%NProcShared=12
%Chk=b-carotene-s0-wb97xd-tzvpp.chk
%Mem=6GB
#n wB97XD/Gen Opt

 b-caroten-s0-wb97xd-tzvpp

0 1
C         12.14657        0.54400       -0.69881
C        -12.11686       -0.03958        0.86821
C         13.43587       -0.30340       -0.59001
C        -12.99500        1.15609        1.30286
C         13.15686       -1.80328       -0.55241
C        -13.39404        2.05488        0.13633
C         11.04206        0.00736        0.24462
C        -10.99332        0.42118       -0.09365
C         12.31563       -2.12706        0.68024
C        -12.14117        2.62692       -0.52664
C         11.15292       -1.17945        0.89432
C        -11.03206        1.61378       -0.74126
C         11.62412        0.52875       -2.15521
C         12.52587        1.99945       -0.33481
C        -12.99409       -1.10881        0.17170
C        -11.51132       -0.65826        2.14852
C          9.85937        0.87886        0.38000
C         -9.91193       -0.56458       -0.27912
C         10.17824       -1.68188        1.93365
C        -10.00030        2.07261       -1.74535
C          8.56760        0.48044        0.29794
C         -8.58042       -0.32135       -0.24677
C          7.39432        1.33200        0.41387
C         -7.52106       -1.30525       -0.40603
C          7.59950        2.80363        0.67563
C         -7.90812       -2.73989       -0.66722
C          6.16099        0.75611        0.27841
C         -6.22390       -0.88177       -0.30888
C          4.87349        1.38668        0.35341
C         -5.02388       -1.66022       -0.42618
C          3.70288        0.70435        0.20051
C         -3.77615       -1.12367       -0.30562
C          2.37699        1.27292        0.26512
C         -2.52001       -1.82941       -0.40720
C          2.24628        2.75633        0.52627
C         -2.55455       -3.31474       -0.67650
C          1.23452        0.52658        0.10083
C         -1.35827       -1.11428       -0.25295
C          1.13628       -0.88053       -0.15480
C         -0.01540       -1.60760       -0.31244
H         13.96894       -0.02430        0.32957
H         14.09986       -0.04624       -1.42462
H        -12.43635        1.75610        2.03435
H        -13.88142        0.77508        1.82562
H         14.09378       -2.37182       -0.53554
H         12.62118       -2.11100       -1.45877
H        -14.04612        2.86640        0.47962
H        -13.97216        1.48326       -0.59978
H         12.95036       -2.11493        1.58118
H         11.92545       -3.15308        0.62144
H        -11.74208        3.45279        0.08483
H        -12.39786        3.08492       -1.49099
H         11.41629       -0.48923       -2.49867
H         12.36119        0.97339       -2.83426
H         10.69429        1.09888       -2.24281
H         12.78046        2.09098        0.72659
H         11.72593        2.71089       -0.55843
H         13.40144        2.30730       -0.91729
H        -13.48769       -0.70991       -0.71899
H        -13.76827       -1.47196        0.85779
H        -12.40397       -1.97595       -0.14117
H        -10.83509        0.04639        2.64341
H        -10.94475       -1.56999        1.93984
H        -12.30936       -0.91532        2.85472
H         10.05593        1.94140        0.50092
H        -10.23555       -1.59890       -0.38622
H          9.50923       -0.90405        2.30242
H         10.73186       -2.09802        2.78570
H          9.55933       -2.50150        1.54378
H         -9.34965        1.26687       -2.08503
H         -9.36195        2.86478       -1.32954
H        -10.49735        2.50995       -2.62027
H          8.36409       -0.57220        0.10950
H         -8.24605        0.69806       -0.06348
H          8.15768        2.95964        1.60617
H          6.66119        3.35296        0.75420
H          8.18762        3.26338       -0.12777
H         -8.52048       -2.81941       -1.57306
H         -8.51012       -3.13813        0.15861
H         -7.04447       -3.39349       -0.79115
H          6.14135       -0.31773        0.09017
H         -6.07015        0.18061       -0.11723
H          4.83643        2.45556        0.54093
H         -5.11900       -2.72484       -0.61859
H          3.77733       -0.36430        0.01362
H         -3.70369       -0.05330       -0.11133
H          2.70301        3.03604        1.48345
H          1.19799        3.06268        0.55273
H          2.74941        3.34526       -0.25030
H         -3.07130       -3.52644       -1.61989
H         -3.10394       -3.84007        0.11349
H         -1.56029       -3.75666       -0.73774
H          0.29599        1.07085        0.17355
H         -1.47911       -0.04987       -0.06274
H          2.06455       -1.43950       -0.23436
H          0.11489       -2.66958       -0.50139

@/home/padawan/israel-mol/basis-set/tzvpp.gbs

