%NProcShared=4
%Chk=b-carotene-td-wb97-tzvp.chk
%Mem=3GB
#n wB97/Gen Td(NStates=10)

 b-caroten-td-wb97-tzvp

0 1
C         12.01498        0.46993       -0.80067
C        -12.01136       -0.05123        0.92251
C         13.33149       -0.30806       -0.66338
C        -12.88466        1.13176        1.36268
C         13.10982       -1.79574       -0.44471
C        -13.36157        1.97374        0.19138
C         11.00471        0.02914        0.26884
C        -10.96023        0.40034       -0.10384
C         12.34681       -2.00447        0.85374
C        -12.16174        2.55573       -0.54073
C         11.17273       -1.06776        1.02372
C        -11.04293        1.56294       -0.77049
C         11.40830        0.24168       -2.19308
C         12.34074        1.96350       -0.65628
C        -12.89169       -1.15244        0.31101
C        -11.32378       -0.61420        2.17344
C          9.81155        0.90137        0.40307
C         -9.86258       -0.57375       -0.31706
C         10.25139       -1.48629        2.14048
C        -10.05360        2.02498       -1.80943
C          8.54841        0.48228        0.29006
C         -8.55673       -0.30336       -0.24469
C          7.34860        1.32257        0.40744
C         -7.46728       -1.27289       -0.42352
C          7.54883        2.78793        0.67626
C         -7.84488       -2.69831       -0.71582
C          6.14448        0.73844        0.26807
C         -6.19910       -0.83667       -0.31355
C          4.83670        1.37174        0.34716
C         -4.97720       -1.61533       -0.44754
C          3.69239        0.68992        0.18908
C         -3.75692       -1.07509       -0.31618
C          2.34946        1.26961        0.25872
C         -2.48268       -1.78792       -0.43329
C          2.24409        2.74636        0.53268
C         -2.53842       -3.26155       -0.72717
C          1.22876        0.53897        0.08949
C         -1.34258       -1.08755       -0.27139
C          1.14607       -0.88833       -0.18405
C          0.01615       -1.60131       -0.34419
H         13.89114        0.09310        0.19199
H         13.94309       -0.12708       -1.55464
H        -12.29875        1.76802        2.03881
H        -13.73193        0.74948        1.94360
H         14.06478       -2.32866       -0.41535
H         12.54036       -2.21701       -1.28043
H        -14.02135        2.77551        0.53604
H        -13.95039        1.35846       -0.49771
H         13.02069       -1.87074        1.71167
H         11.98118       -3.03583        0.92628
H        -11.75344        3.40444        0.02631
H        -12.46910        2.96986       -1.50747
H         11.22547       -0.81937       -2.38302
H         12.08332        0.61843       -2.96891
H         10.45237        0.76392       -2.29120
H         12.65180        2.20366        0.36543
H         11.48978        2.59828       -0.91670
H         13.16257        2.22576       -1.33007
H        -13.44670       -0.78884       -0.55742
H        -13.61127       -1.51540        1.05244
H        -12.29430       -2.00920       -0.01322
H        -10.62096        0.11178        2.59314
H        -10.76750       -1.53049        1.95869
H        -12.07366       -0.84609        2.93697
H          9.99833        1.96060        0.57067
H        -10.17065       -1.60440       -0.49186
H          9.56396       -0.69803        2.44461
H         10.84593       -1.78851        3.00963
H          9.65885       -2.36063        1.84870
H         -9.36374        1.24206       -2.12010
H         -9.46304        2.86742       -1.43087
H        -10.58716        2.39023       -2.69282
H          8.36703       -0.57347        0.08975
H         -8.24621        0.71737       -0.02435
H          8.09353        2.93408        1.61397
H          6.60908        3.33372        0.74344
H          8.14773        3.24300       -0.11875
H         -8.43778       -2.75695       -1.63369
H         -8.46115       -3.10354        0.09293
H         -6.97700       -3.34530       -0.83325
H          6.12878       -0.33372        0.07299
H         -6.05176        0.22142       -0.09749
H          4.79676        2.43943        0.54282
H         -5.06622       -2.67669       -0.66168
H          3.76741       -0.37691       -0.00515
H         -3.68372       -0.00896       -0.10136
H          2.70896        3.00230        1.49003
H          1.20078        3.06342        0.56407
H          2.75504        3.32666       -0.24213
H         -3.06257       -3.44208       -1.67060
H         -3.09277       -3.78569        0.05728
H         -1.55097       -3.71341       -0.80004
H          0.28474        1.07270        0.16361
H         -1.45290       -0.02605       -0.06292
H          2.08045       -1.43438       -0.26969
H          0.13375       -2.66175       -0.54575

H     0
S   3   1.00
     34.0613410              0.60251978D-02
      5.1235746              0.45021094D-01
      1.1646626              0.20189726
S   1   1.00
      0.32723041             1.0000000
S   1   1.00
      0.10307241             1.0000000
P   1   1.00
      0.8000000              1.0000000
****
C     0
S   6   1.00
  13575.3496820              0.22245814352D-03
   2035.2333680              0.17232738252D-02
    463.22562359             0.89255715314D-02
    131.20019598             0.35727984502D-01
     42.853015891            0.11076259931
     15.584185766            0.24295627626
S   2   1.00
      6.2067138508           0.41440263448
      2.5764896527           0.23744968655
S   1   1.00
      0.57696339419          1.0000000
S   1   1.00
      0.22972831358          1.0000000
S   1   1.00
      0.95164440028D-01      1.0000000
P   4   1.00
     34.697232244            0.53333657805D-02
      7.9582622826           0.35864109092D-01
      2.3780826883           0.14215873329
      0.81433208183          0.34270471845
P   1   1.00
      0.28887547253           .46445822433
P   1   1.00
      0.10056823671           .24955789874
D   1   1.00
      1.09700000             1.0000000
D   1   1.00
      0.31800000             1.0000000
F   1   1.00
      0.76100000             1.0000000
****


