%nproc=4
%Mem=2GB
# td(NStates=1) B3LYP/6-31G(d,p) nosymm

AlQ3Abs Single Point

0 1
Al        -0.617746      -1.111817       0.334460
 O         0.709534      -2.389911       0.158501
 O        -2.021754      -2.099933      -0.357871
 O        -0.986832      -1.361818       2.131162
 C        -0.259619      -0.699356       2.997335
 C        -0.367611      -0.806249       4.383616
 C         0.473380      -0.051906       5.227053
 C         1.432826       0.819624       4.741160
 C         1.579310       0.967820       3.340911
 C         0.725810       0.212525       2.484875
 C         2.516373       1.816377       2.699986
 C         2.564960       1.878843       1.322707
 C         1.673300       1.096404       0.560482
 N         0.780537       0.293126       1.124694
 C         1.337439      -2.457583      -0.990057
 C         2.320970      -3.392386      -1.311991
 C         2.929233      -3.381923      -2.583790
 C         2.594735      -2.464455      -3.564828
 C         1.604387      -1.491879      -3.286306
 C         0.992351      -1.494392      -1.998961
 C         1.157064      -0.495614      -4.189769
 C         0.183134       0.401907      -3.803803
 C        -0.358014       0.322907      -2.504136
 N         0.037615      -0.593412      -1.629696
 C        -3.169903      -1.488942      -0.520476
 C        -4.341558      -2.092258      -0.976760
 C        -5.527789      -1.342185      -1.109980
 C        -5.598084       0.006032      -0.804182
 C        -3.231813      -0.087112      -0.210463
 C        -4.434812       0.666259      -0.340441
 C        -4.356374       2.036677       0.012629
 C        -3.162843       2.571175       0.451863
 C        -2.023589       1.745094       0.541322
 N        -2.057474       0.458904       0.216813
 H        -4.324003      -3.149524      -1.217946
 H        -6.421005      -1.849926      -1.464378
 H        -6.525576       0.559413      -0.910734
 H        -5.244676       2.658406      -0.063682
 H        -3.083848       3.616280       0.730906
 H        -1.072084       2.138725       0.882418
 H        -1.102871      -1.486947       4.798714
 H         0.361576      -0.166998       6.301996
 H         2.071580       1.384279       5.412739
 H         3.195552       2.412663       3.303800
 H         3.277804       2.518673       0.813957
 H         1.688782       1.125722      -0.523768
 H         2.600712      -4.131711      -0.569418
 H         3.688152      -4.129873      -2.797872
 H         3.074309      -2.481753      -4.538256
 H        -1.124033       1.016370      -2.173975
 H         1.586194      -0.449114      -5.187340
 H        -0.175496       1.168301      -4.482321




