--Link1--
%Mem=30GB
%CPU=0-29
%Chk=neo-s0.chk
#n wB97XD/Def2TZVP Opt

neo-s0

  0  1
O,11.68006562,0.88358744,-0.861355
O,13.14729762,-2.43173656,1.246662
O,-10.37696338,-0.68475856,2.233576
O,-14.32647438,-1.16080556,0.444504
C,10.95353562,-0.25845056000000005,-0.387216
C,11.92275462,0.46550243999999996,0.487825
C,11.34191862,-1.55459956,-1.129307
C,13.33134462,-0.06539256000000002,0.711244
C,12.873235619999999,-1.7480355600000002,-1.102245
C,13.547346619999999,-1.50133256,0.244079
C,11.45913962,1.4497394399999999,1.534578
C,9.48555762,0.0016824399999999864,-0.254398
C,10.619219619999999,-2.78204356,-0.551612
C,10.90970262,-1.39713356,-2.596494
C,8.73786862,-0.33328256,0.799432
C,7.29400362,-0.09215756000000001,0.952213
C,6.5640486199999994,-1.12947756,1.763181
C,6.71178262,0.99255444,0.401285
C,5.30698562,1.3385454399999999,0.419474
C,-11.84788238,-0.26868456,-1.282568
C,-11.48421138,-0.44766256000000004,1.3673
C,-12.53827738,-1.64456256,-1.179712
C,-13.18676138,-1.96957856,0.164421
C,-12.19432438,-1.80394356,1.303352
C,-10.98088338,-0.03814756000000001,-0.035172
C,-10.97574738,-0.26758956,-2.543967
C,-12.884815380000001,0.8619724400000001,-1.431008
C,-12.35760938,0.64107344,1.997485
C,4.82240062,2.46064244,-0.143698
C,-9.80032038,0.51448044,-0.105043
C,3.4191826199999995,2.87149044,-0.201041
C,-8.58814638,1.02504644,-0.086592
C,3.1979976199999993,4.35910344,-0.287092
C,2.420002619999999,1.95977144,-0.192161
C,-7.34845738,0.23972743999999996,-0.13733
C,-7.50148438,-1.25448156,-0.136866
C,-6.169583380000001,0.89763844,-0.153282
C,1.0005706199999995,2.21371244,-0.192227
C,-4.84285838,0.32585843999999997,-0.18189
C,0.07150761999999942,1.2343554399999999,-0.207593
C,-3.7237153800000007,1.07655544,-0.185203
C,-1.3465653800000004,1.48822444,-0.197518
C,-2.356049380000001,0.58420344,-0.204867
C,-2.1438863800000005,-0.90445356,-0.228636
H,13.59275862,-0.008787560000000014,1.772593
H,14.00959862,0.61022244,0.178865
H,13.10281462,-2.76434856,-1.437036
H,13.32696762,-1.0606485600000002,-1.824064
H,14.62163162,-1.67502856,0.127182
H,11.32386562,0.9583754400000001,2.503238
H,12.21752062,2.2288994399999997,1.659907
H,10.52035162,1.92055644,1.248938
H,9.02481362,0.48179244,-1.114939
H,9.53658062,-2.68031256,-0.644604
H,10.92381062,-3.67479756,-1.104736
H,10.85412362,-2.96764456,0.497062
H,11.33235062,-0.48614156000000003,-3.027007
H,11.25911062,-2.25045156,-3.185562
H,9.82101762,-1.35334456,-2.691769
H,12.303731619999999,-2.1370555600000003,1.607279
H,9.215288619999999,-0.8614955599999999,1.625765
H,5.5252056199999995,-0.8670435599999999,1.959336
H,6.57883962,-2.10156156,1.25799
H,7.05886762,-1.2710295600000001,2.730322
H,7.35804262,1.70128044,-0.112688
H,4.61607562,0.66386744,0.915968
H,-13.28408038,-1.73007456,-1.981457
H,-11.792985380000001,-2.42523556,-1.374179
H,-13.49559238,-3.02567956,0.143718
H,-12.694011380000001,-1.99126556,2.257797
H,-11.41451638,-2.56298056,1.189862
H,-11.592172380000001,-0.46487156,-3.426455
H,-10.48465138,0.69824844,-2.683966
H,-10.19846138,-1.03453656,-2.491103
H,-13.59684638,0.8791534400000001,-0.608485
H,-12.382356380000001,1.83144844,-1.483986
H,-13.44871638,0.72456844,-2.360313
H,-12.58012638,0.35472943999999995,3.028533
H,-11.81930738,1.59389944,2.009139
H,-13.30022838,0.77047444,1.468785
H,5.53694462,3.15782244,-0.581775
H,-9.82275938,0.10713443999999998,2.221842
H,-14.95463838,-1.26940556,-0.279182
H,-8.476348380000001,2.10744544,-0.023923
H,2.1586336199999994,4.6286454400000006,-0.470602
H,3.5194246199999992,4.85532144,0.635085
H,3.7991826199999994,4.78320844,-1.098472
H,2.701211619999999,0.9087164400000001,-0.199251
H,-6.55290938,-1.77577856,-0.013747
H,-8.17642738,-1.5576065600000002,0.669254
H,-7.95684838,-1.5946845600000001,-1.07325
H,-6.2063483800000006,1.98629444,-0.141046
H,0.6573396199999995,3.24492044,-0.169792
H,-4.75550738,-0.75561356,-0.200811
H,0.41569761999999943,0.20341043999999997,-0.224682
H,-3.8343073800000007,2.1600614399999998,-0.168755
H,-1.6268653800000006,2.54062544,-0.179842
H,-1.0904373800000005,-1.1793895600000002,-0.242704
H,-2.600295380000001,-1.3737235600000002,0.648907
H,-2.6165093800000006,-1.3477425600000001,-1.111062
O,44.55633562,0.88358744,-0.861355
O,46.023567619999994,-2.43173656,1.246662
O,22.49930662,-0.68475856,2.233576
O,18.549795619999998,-1.16080556,0.444504
C,43.82980562,-0.25845056000000005,-0.387216
C,44.79902462,0.46550243999999996,0.487825
C,44.21818862,-1.55459956,-1.129307
C,46.20761462,-0.06539256000000002,0.711244
C,45.749505619999994,-1.7480355600000002,-1.102245
C,46.42361662,-1.50133256,0.244079
C,44.33540962,1.4497394399999999,1.534578
C,42.36182762,0.0016824399999999864,-0.254398
C,43.49548962,-2.78204356,-0.551612
C,43.785972619999995,-1.39713356,-2.596494
C,41.61413862,-0.33328256,0.799432
C,40.170273619999996,-0.09215756000000001,0.952213
C,39.44031862,-1.12947756,1.763181
C,39.58805262,0.99255444,0.401285
C,38.18325562,1.3385454399999999,0.419474
C,21.028387619999997,-0.26868456,-1.282568
C,21.39205862,-0.44766256000000004,1.3673
C,20.337992619999998,-1.64456256,-1.179712
C,19.689508619999998,-1.96957856,0.164421
C,20.68194562,-1.80394356,1.303352
C,21.895386619999996,-0.03814756000000001,-0.035172
C,21.900522619999997,-0.26758956,-2.543967
C,19.99145462,0.8619724400000001,-1.431008
C,20.51866062,0.64107344,1.997485
C,37.69867062,2.46064244,-0.143698
C,23.075949619999996,0.51448044,-0.105043
C,36.29545262,2.87149044,-0.201041
C,24.28812362,1.02504644,-0.086592
C,36.07426762,4.35910344,-0.287092
C,35.296272619999996,1.95977144,-0.192161
C,25.52781262,0.23972743999999996,-0.13733
C,25.374785619999997,-1.25448156,-0.136866
C,26.70668662,0.89763844,-0.153282
C,33.876840619999996,2.21371244,-0.192227
C,28.03341162,0.32585843999999997,-0.18189
C,32.94777762,1.2343554399999999,-0.207593
C,29.152554619999997,1.07655544,-0.185203
C,31.529704619999997,1.48822444,-0.197518
C,30.520220619999996,0.58420344,-0.204867
C,30.732383619999997,-0.90445356,-0.228636
H,46.469028619999996,-0.008787560000000014,1.772593
H,46.88586862,0.61022244,0.178865
H,45.979084619999995,-2.76434856,-1.437036
H,46.203237619999996,-1.0606485600000002,-1.824064
H,47.49790162,-1.67502856,0.127182
H,44.20013562,0.9583754400000001,2.503238
H,45.09379062,2.2288994399999997,1.659907
H,43.39662162,1.92055644,1.248938
H,41.901083619999994,0.48179244,-1.114939
H,42.41285062,-2.68031256,-0.644604
H,43.800080619999996,-3.67479756,-1.104736
H,43.73039362,-2.96764456,0.497062
H,44.20862062,-0.48614156000000003,-3.027007
H,44.13538062,-2.25045156,-3.185562
H,42.69728762,-1.35334456,-2.691769
H,45.18000162,-2.1370555600000003,1.607279
H,42.09155862,-0.8614955599999999,1.625765
H,38.40147562,-0.8670435599999999,1.959336
H,39.45510962,-2.10156156,1.25799
H,39.93513762,-1.2710295600000001,2.730322
H,40.23431262,1.70128044,-0.112688
H,37.492345619999995,0.66386744,0.915968
H,19.59218962,-1.73007456,-1.981457
H,21.083284619999997,-2.42523556,-1.374179
H,19.38067762,-3.02567956,0.143718
H,20.18225862,-1.99126556,2.257797
H,21.461753619999996,-2.56298056,1.189862
H,21.284097619999997,-0.46487156,-3.426455
H,22.391618619999996,0.69824844,-2.683966
H,22.67780862,-1.03453656,-2.491103
H,19.279423619999996,0.8791534400000001,-0.608485
H,20.493913619999997,1.83144844,-1.483986
H,19.427553619999998,0.72456844,-2.360313
H,20.29614362,0.35472943999999995,3.028533
H,21.05696262,1.59389944,2.009139
H,19.576041619999998,0.77047444,1.468785
H,38.41321462,3.15782244,-0.581775
H,23.053510619999997,0.10713443999999998,2.221842
H,17.92163162,-1.26940556,-0.279182
H,24.399921619999997,2.10744544,-0.023923
H,35.034903619999994,4.6286454400000006,-0.470602
H,36.39569462,4.85532144,0.635085
H,36.675452619999994,4.78320844,-1.098472
H,35.57748162,0.9087164400000001,-0.199251
H,26.32336062,-1.77577856,-0.013747
H,24.69984262,-1.5576065600000002,0.669254
H,24.919421619999998,-1.5946845600000001,-1.07325
H,26.669921619999997,1.98629444,-0.141046
H,33.53360962,3.24492044,-0.169792
H,28.120762619999997,-0.75561356,-0.200811
H,33.291967619999994,0.20341043999999997,-0.224682
H,29.041962619999996,2.1600614399999998,-0.168755
H,31.249404619999996,2.54062544,-0.179842
H,31.785832619999997,-1.1793895600000002,-0.242704
H,30.275974619999996,-1.3737235600000002,0.648907
H,30.259760619999998,-1.3477425600000001,-1.111062

