--Link1--
#n CAM-B3LYP/6-31G(d,p) Opt=ReadFC Geom=AllCheck Guess=Read Freq=savenormalmodes Td

neoxanthin-s1-geom-freq

  0  1
O,-11.77893942,0.2523928800000001,-1.518364
O,-13.06725742,-2.46804312,1.39315
O,10.54918558,-1.06224412,-2.082737
O,14.44071758,-1.01390812,-0.115126
C,-11.10394342,-0.14157611999999992,-0.315756
C,-11.72271842,-1.14932412,-1.231597
C,-11.83518542,0.35204888000000006,0.95345
C,-13.08357842,-1.75954412,-0.93366
C,-13.321035420000001,-0.06664711999999992,0.913121
C,-13.59128042,-1.5057451199999998,0.482327
C,-10.879728420000001,-1.9469481199999998,-2.196817
C,-9.63117742,0.09753888000000008,-0.370419
C,-11.15584142,-0.14516311999999992,2.239329
C,-11.77181242,1.88784588,0.949083
C,-8.70139842,-0.75071112,0.11261
C,-7.265719420000001,-0.5726621199999999,0.142997
C,-6.42546642,-1.78423512,0.447637
C,-6.67899842,0.65057788,-0.094448
C,-5.296199420000001,0.9085098800000001,-0.136698
C,11.86191558,0.04858188000000007,1.344719
C,11.61148358,-0.6195711199999999,-1.241203
C,12.61210358,-1.28882612,1.512666
C,13.32751758,-1.8157891199999998,0.270356
C,12.375037579999999,-1.90603312,-0.910375
C,11.035505579999999,0.011397880000000072,0.048197
C,10.94033558,0.2324568800000001,2.556598
C,12.84321758,1.23666888,1.31949
C,12.46132258,0.3801438800000001,-2.030522
C,-4.77065842,2.17381688,-0.361511
C,9.83250958,0.5108488800000001,-0.018233
C,-3.4140314200000006,2.54133988,-0.427393
C,8.596524579999999,0.9555388800000001,-0.1566
C,-3.0787644200000006,3.98428188,-0.692679
C,-2.3764644200000005,1.61038988,-0.254653
C,7.39895958,0.14299688000000008,0.001841
C,7.5970195799999996,-1.3216021199999999,0.260771
C,6.180904579999999,0.74957388,-0.11064
C,-1.0143004200000003,1.88763988,-0.308249
C,4.89835658,0.14771588000000008,0.006312
C,-0.020405420000000368,0.92577788,-0.128972
C,3.7303075799999994,0.8553728800000001,-0.12531
C,1.3449765799999998,1.21159988,-0.186191
C,2.4153795799999993,0.3358798800000001,-0.023579
C,2.2257675799999994,-1.1293201199999998,0.254064
H,-13.05760742,-2.8413451199999997,-1.09776
H,-13.78337842,-1.3412811199999999,-1.665453
H,-13.757593420000001,0.09818888000000008,1.903173
H,-13.85167942,0.58760588,0.213344
H,-14.67257442,-1.6739891199999999,0.503957
H,-10.57944642,-2.90329512,-1.757046
H,-11.46352642,-2.16320912,-3.097138
H,-9.98378042,-1.39903712,-2.483875
H,-9.339067420000001,1.0275668800000002,-0.851899
H,-10.132339420000001,0.22623588000000008,2.312572
H,-11.71200642,0.22186088000000007,3.106499
H,-11.12867842,-1.23235812,2.322103
H,-12.18019042,2.28765688,0.01784
H,-12.35322142,2.29312188,1.782882
H,-10.742794420000001,2.2429718800000003,1.057065
H,-12.12489042,-2.56238712,1.215211
H,-9.05719642,-1.69754612,0.519011
H,-5.85115442,-2.10787212,-0.429556
H,-5.70146242,-1.58879712,1.246038
H,-7.044509420000001,-2.62839312,0.758492
H,-7.33250442,1.5055858800000002,-0.253235
H,-4.61916842,0.07269288000000008,0.007757
H,13.32761358,-1.1942491199999998,2.340594
H,11.89261458,-2.05732312,1.820003
H,13.680815579999999,-2.8344731199999997,0.490741
H,12.919999579999999,-2.23633812,-1.799053
H,11.62430258,-2.66988412,-0.686579
H,11.52830258,0.22520988000000008,3.479613
H,10.404607579999999,1.18324588,2.504758
H,10.19817258,-0.5679781199999999,2.617588
H,13.58536558,1.1426348800000001,0.529352
H,12.29825258,2.1744988800000002,1.182943
H,13.376013579999999,1.2940858800000001,2.275184
H,12.73618958,-0.07502711999999992,-2.985481
H,11.88370058,1.28796788,-2.230651
H,13.376058579999999,0.6483478800000001,-1.505146
H,-5.493376420000001,2.9750088800000003,-0.505892
H,9.97187858,-0.30454711999999995,-2.246642
H,15.045932579999999,-0.96297912,0.634007
H,8.44587658,2.00560488,-0.407228
H,-2.4847734200000007,4.41437988,0.121703
H,-2.4879724200000006,4.09662888,-1.608909
H,-3.9817644200000006,4.58705888,-0.801985
H,-2.6494144200000007,0.57675688,-0.060454
H,6.6768855799999995,-1.89550212,0.155153
H,8.34223958,-1.72387512,-0.432259
H,7.98516858,-1.4878391199999998,1.272391
H,6.182913579999999,1.8208228800000001,-0.309803
H,-0.6920454200000005,2.9084418800000003,-0.500885
H,4.844520579999999,-0.9161561199999999,0.213189
H,-0.3463834200000004,-0.09299411999999992,0.063889
H,3.8127055799999994,1.92251488,-0.32775
H,1.6056325799999998,2.25095788,-0.383016
H,1.1760365799999997,-1.41508112,0.300044
H,2.7011365799999996,-1.73810812,-0.5223
H,2.6874205799999995,-1.40883312,1.207134

