--Link1--
%Mem=30GB
%CPU=0-29
%Chk=Dh-Bilin-s1.chk
#n wB97XD/Def2TZVP Opt Td

Dh-Bilin-s1

  0  1
O,-5.238449088607595,-0.03922344303797472,-3.282103
O,3.1491959113924053,2.7826255569620253,3.199216
O,3.4557649113924054,0.5711825569620252,3.021149
O,1.722855911392405,-7.302126443037975,1.484937
O,0.750370911392405,-7.150591443037975,-0.530171
O,1.818769911392405,3.8639445569620254,0.064926
N,-2.2446380886075947,-1.0705254430379747,0.619834
N,-4.261935088607595,0.4485075569620253,-1.236452
N,1.935334911392405,-0.8090974430379747,-0.405224
N,2.6538319113924054,1.7677175569620251,-0.512533
C,-4.666837088607595,1.0602025569620253,0.012002
C,-4.2968210886075955,0.19351955696202527,1.256423
C,-2.839793088607595,-0.09739444303797472,1.37987
C,-1.839782088607595,0.5056005569620252,2.158304
C,-0.6046460886075951,-0.12047244303797472,1.833224
C,-0.8788710886075951,-1.1042384430379748,0.841806
C,-6.167188088607595,1.2172795569620252,-0.157846
C,0.7031849113924049,0.06840755696202527,2.549799
C,-6.545604088607595,0.7426885569620252,-1.372713
C,-0.07818808860759506,-2.097458443037975,0.179185
C,1.210288911392405,-1.9693614430379747,-0.314178
C,-5.3147460886075955,0.3230255569620253,-2.126885
C,2.038398911392405,-3.0294434430379744,-0.899907
C,-2.053740088607595,1.5776035569620253,3.186098
C,-7.0058170886075954,1.8238805569620253,0.920141
C,3.215913911392405,-2.4553154430379744,-1.327549
C,1.258977911392405,1.5002385569620251,2.573641
C,3.138497911392405,-1.0285714430379747,-1.040118
C,1.6415489113924049,-4.475183443037975,-0.942831
C,-7.841689088607596,0.6487965569620253,-2.036122
C,1.8635949113924049,-5.205481443037975,0.390045
C,4.393160911392405,-3.1101394430379745,-1.977687
C,4.030544911392405,-0.018862443037974713,-1.363176
C,2.723038911392405,1.5292905569620252,2.951001
C,3.7754729113924053,1.3710575569620251,-1.104327
C,-9.060915088607596,0.6735695569620253,-1.471847
C,1.378603911392405,-6.638325443037975,0.36341
C,4.650904911392405,2.5176235569620253,-1.469169
C,3.9665669113924054,3.6499355569620255,-1.057057
C,2.703542911392405,3.1866615569620254,-0.442373
C,5.933197911392405,2.3667665569620255,-2.120449
C,4.313052911392405,5.096414556962025,-1.139866
C,6.7886749113924045,3.3383245569620255,-2.515231
H,-4.195888088607595,2.0543715569620256,0.139597
H,-4.864180088607595,-0.7500664430379747,1.182558
H,-4.6423500886075955,0.7151755569620253,2.160903
H,-2.720350088607595,-1.6008724430379748,-0.100782
H,-3.3107760886075948,0.49600155696202525,-1.584491
H,0.5849039113924049,-0.2779474430379747,3.594519
H,1.469156911392405,-0.5881534430379747,2.118672
H,-0.574140088607595,-3.0501774430379744,-0.030023
H,-3.119296088607595,1.7025315569620252,3.430103
H,-1.5285980886075952,1.3415335569620253,4.126121
H,-1.676938088607595,2.5569745569620252,2.845782
H,-6.426240088607595,2.5371375569620254,1.52767
H,-7.403079088607595,1.0570805569620252,1.609893
H,-7.871377088607595,2.3543415569620256,0.495198
H,1.182166911392405,1.9948065569620252,1.589327
H,0.7181259113924049,2.1569525569620254,3.271758
H,1.6659869113924048,0.16872255696202526,-0.216347
H,2.2013289113924053,-4.996523443037975,-1.733903
H,0.581275911392405,-4.576352443037975,-1.225166
H,-7.760131088607595,0.5128665569620252,-3.120618
H,1.337361911392405,-4.693030443037975,1.214234
H,2.926549911392405,-5.202782443037975,0.681851
H,4.218627911392405,-4.180305443037975,-2.155389
H,5.298266911392405,-3.0163254430379745,-1.353824
H,4.624919911392404,-2.6425014430379745,-2.949264
H,4.953055911392405,-0.30388244303797474,-1.868243
H,-9.214744088607596,0.7506175569620253,-0.393102
H,-9.959413088607596,0.5910155569620252,-2.089
H,4.102385911392405,2.7213355569620257,3.382343
H,6.244568911392404,1.3336805569620251,-2.31185
H,5.262252911392404,5.327530556962025,-0.623801
H,4.429025911392404,5.437515556962025,-2.184551
H,3.5125549113924053,5.689108556962025,-0.672584
H,1.3661699113924048,-8.203256443037974,1.399451
H,7.734806911392405,3.0797735569620253,-2.997267
H,6.580375911392404,4.400050556962025,-2.376475

