--Link1--
%Mem=30GB
%CPU=0-29
%Chk=Dh-Bilin-s0.chk
#n wB97XD/Def2TZVP Opt

Dh-Bilin-s0

  0  1
O,-5.266527974683544,0.09956846835443037,-3.341672
O,2.9715930253164555,2.9934844683544304,3.247356
O,3.312476025316456,0.7806274683544303,3.260388
O,1.6684950253164557,-7.310237531645569,1.515902
O,0.5923600253164558,-7.10024153164557,-0.440688
O,2.0852610253164556,3.911048468354431,-0.072644
N,-2.274118974683544,-0.9992155316455696,0.574729
N,-4.321106974683544,0.5382324683544304,-1.270679
N,1.9925830253164558,-0.7894715316455696,-0.375619
N,2.797150025316456,1.7462174683544305,-0.52525
C,-4.747682974683544,1.0989244683544301,-0.004565
C,-4.364091974683544,0.20654146835443038,1.209393
C,-2.8955839746835443,-0.04810553164556964,1.336599
C,-1.9197029746835441,0.5692484683544303,2.122018
C,-0.6612709746835442,-0.023696531645569646,1.792378
C,-0.9063959746835443,-0.9981905316455696,0.802917
C,-6.249171974683544,1.2331594683544305,-0.185862
C,0.6350210253164558,0.20148746835443038,2.523312
C,-6.6058289746835435,0.7976664683544303,-1.421423
C,-0.09272597468354418,-1.9962705316455698,0.158243
C,1.200742025316456,-1.9241555316455696,-0.292068
C,-5.359564974683543,0.42378646835443035,-2.175592
C,2.001155025316456,-3.0235215316455695,-0.836834
C,-2.1627339746835443,1.6233984683544302,3.1636
C,-7.110223974683544,1.7853584683544304,0.903861
C,3.214571025316456,-2.5090385316455697,-1.228429
C,1.1721280253164559,1.6392964683544302,2.507816
C,3.1844440253164557,-1.0748875316455697,-0.96369
C,1.5544750253164556,-4.45548553164557,-0.875261
C,-7.892936974683544,0.7050744683544303,-2.10278
C,1.8229530253164556,-5.20685753164557,0.436735
C,4.382690025316456,-3.2166235316455696,-1.840026
C,4.140432025316456,-0.10589953164556964,-1.288049
C,2.583700025316456,1.7189754683544303,3.040949
C,3.914595025316456,1.2681554683544305,-1.072293
C,-9.118415974683545,0.6822804683544303,-1.552374
C,1.2867700253164558,-6.62198653164557,0.422073
C,4.8692050253164565,2.3701684683544304,-1.462735
C,4.243509025316456,3.5291164683544305,-1.124287
C,2.9122940253164558,3.1337044683544306,-0.51453
C,6.179810025316456,2.1320044683544306,-2.054712
C,4.651920025316456,4.955546468354431,-1.233281
C,6.984340025316456,3.0365044683544307,-2.643319
H,-4.300638974683544,2.1002694683544303,0.15458
H,-4.905854974683544,-0.7493705316455697,1.107517
H,-4.728953974683544,0.6884274683544304,2.128655
H,-2.7360419746835443,-1.5407065316455695,-0.146087
H,-3.3632129746835444,0.5899564683544304,-1.598027
H,0.5040110253164558,-0.10901653164556964,3.576678
H,1.4154140253164558,-0.46044153164556967,2.126796
H,-0.5952209746835442,-2.9496485316455696,-0.038184
H,-3.228625974683544,1.6948654683544304,3.428324
H,-1.611551974683544,1.4044434683544305,4.092754
H,-1.842152974683544,2.6243604683544306,2.82846
H,-6.551194974683544,2.4911974683544305,1.538812
H,-7.493062974683544,0.9874344683544304,1.565774
H,-7.9852329746835435,2.3090174683544307,0.490028
H,1.198041025316456,2.0646384683544303,1.489924
H,0.5494530253164558,2.3298404683544303,3.096455
H,1.763671025316456,0.20681646835443035,-0.217739
H,2.0572680253164557,-4.98404953164557,-1.699378
H,0.4790500253164558,-4.52014753164557,-1.102303
H,-7.796895974683544,0.6143784683544303,-3.19088
H,1.3604530253164557,-4.68623853164557,1.293124
H,2.8994250253164555,-5.244491531645569,0.670616
H,4.175416025316456,-4.2839965316455695,-1.999474
H,5.278639025316457,-3.1404735316455694,-1.200785
H,4.648891025316456,-2.7787255316455695,-2.816777
H,5.061783025316456,-0.4381935316455696,-1.763118
H,-9.284923974683545,0.7117464683544303,-0.473138
H,-10.008494974683545,0.6069344683544303,-2.182583
H,3.8955400253164556,2.9550324683544305,3.548178
H,6.539798025316456,1.0986534683544305,-2.004968
H,4.619752025316457,5.309798468354431,-2.27945
H,3.9598130253164556,5.580019468354431,-0.649168
H,5.682139025316456,5.1161724683544305,-0.872519
H,1.274469025316456,-8.196856531645569,1.443269
H,7.957036025316456,2.7376554683544305,-3.042378
H,6.705411025316456,4.085005468354431,-2.761109
O,15.999003025316458,0.09956846835443037,-3.341672
O,24.237124025316458,2.9934844683544304,3.247356
O,24.57800702531646,0.7806274683544303,3.260388
O,22.93402602531646,-7.310237531645569,1.515902
O,21.85789102531646,-7.10024153164557,-0.440688
O,23.35079202531646,3.911048468354431,-0.072644
N,18.991412025316457,-0.9992155316455696,0.574729
N,16.944424025316458,0.5382324683544304,-1.270679
N,23.25811402531646,-0.7894715316455696,-0.375619
N,24.062681025316458,1.7462174683544305,-0.52525
C,16.51784802531646,1.0989244683544301,-0.004565
C,16.90143902531646,0.20654146835443038,1.209393
C,18.36994702531646,-0.04810553164556964,1.336599
C,19.345828025316457,0.5692484683544303,2.122018
C,20.60426002531646,-0.023696531645569646,1.792378
C,20.35913502531646,-0.9981905316455696,0.802917
C,15.016359025316458,1.2331594683544305,-0.185862
C,21.900552025316458,0.20148746835443038,2.523312
C,14.65970202531646,0.7976664683544303,-1.421423
C,21.17280502531646,-1.9962705316455698,0.158243
C,22.466273025316458,-1.9241555316455696,-0.292068
C,15.90596602531646,0.42378646835443035,-2.175592
C,23.26668602531646,-3.0235215316455695,-0.836834
C,19.10279702531646,1.6233984683544302,3.1636
C,14.155307025316459,1.7853584683544304,0.903861
C,24.48010202531646,-2.5090385316455697,-1.228429
C,22.43765902531646,1.6392964683544302,2.507816
C,24.44997502531646,-1.0748875316455697,-0.96369
C,22.82000602531646,-4.45548553164557,-0.875261
C,13.37259402531646,0.7050744683544303,-2.10278
C,23.088484025316458,-5.20685753164557,0.436735
C,25.64822102531646,-3.2166235316455696,-1.840026
C,25.40596302531646,-0.10589953164556964,-1.288049
C,23.84923102531646,1.7189754683544303,3.040949
C,25.180126025316458,1.2681554683544305,-1.072293
C,12.147115025316458,0.6822804683544303,-1.552374
C,22.55230102531646,-6.62198653164557,0.422073
C,26.13473602531646,2.3701684683544304,-1.462735
C,25.50904002531646,3.5291164683544305,-1.124287
C,24.17782502531646,3.1337044683544306,-0.51453
C,27.44534102531646,2.1320044683544306,-2.054712
C,25.91745102531646,4.955546468354431,-1.233281
C,28.24987102531646,3.0365044683544307,-2.643319
H,16.96489202531646,2.1002694683544303,0.15458
H,16.35967602531646,-0.7493705316455697,1.107517
H,16.536577025316458,0.6884274683544304,2.128655
H,18.529489025316458,-1.5407065316455695,-0.146087
H,17.902318025316458,0.5899564683544304,-1.598027
H,21.769542025316458,-0.10901653164556964,3.576678
H,22.680945025316458,-0.46044153164556967,2.126796
H,20.670310025316457,-2.9496485316455696,-0.038184
H,18.036905025316457,1.6948654683544304,3.428324
H,19.65397902531646,1.4044434683544305,4.092754
H,19.42337802531646,2.6243604683544306,2.82846
H,14.71433602531646,2.4911974683544305,1.538812
H,13.77246802531646,0.9874344683544304,1.565774
H,13.280298025316458,2.3090174683544307,0.490028
H,22.46357202531646,2.0646384683544303,1.489924
H,21.81498402531646,2.3298404683544303,3.096455
H,23.029202025316458,0.20681646835443035,-0.217739
H,23.32279902531646,-4.98404953164557,-1.699378
H,21.74458102531646,-4.52014753164557,-1.102303
H,13.468635025316459,0.6143784683544303,-3.19088
H,22.62598402531646,-4.68623853164557,1.293124
H,24.164956025316457,-5.244491531645569,0.670616
H,25.440947025316458,-4.2839965316455695,-1.999474
H,26.54417002531646,-3.1404735316455694,-1.200785
H,25.91442202531646,-2.7787255316455695,-2.816777
H,26.327314025316458,-0.4381935316455696,-1.763118
H,11.980607025316457,0.7117464683544303,-0.473138
H,11.257036025316458,0.6069344683544303,-2.182583
H,25.16107102531646,2.9550324683544305,3.548178
H,27.80532902531646,1.0986534683544305,-2.004968
H,25.88528302531646,5.309798468354431,-2.27945
H,25.22534402531646,5.580019468354431,-0.649168
H,26.94767002531646,5.1161724683544305,-0.872519
H,22.54000002531646,-8.196856531645569,1.443269
H,29.222567025316458,2.7376554683544305,-3.042378
H,27.97094202531646,4.085005468354431,-2.761109

