--Link1--
%Mem=30GB
%CPU=0-29
%Chk=pheo-a-s0.chk
#n wB97XD/Def2TZVP Opt 

pheo-a-s0

  0  1
C,25.74360221014493,-19.285538971014496,-0.396266
C,27.22263721014493,-16.151710971014495,2.903794
C,24.417890210144932,-12.762615971014494,0.788783
C,22.70378321014493,-15.972071971014495,-2.399381
N,26.33392021014493,-17.523019971014495,1.109295
C,26.474041210144932,-18.805606971014495,0.672794
C,27.486607210144932,-19.597136971014496,1.489859
C,27.756844210144934,-18.639327971014495,2.675146
C,27.07792021014493,-17.355026971014496,2.210545
C,27.178473210144933,-19.141421971014495,4.005355
C,28.751024210144934,-19.939616971014495,0.681195
C,29.71082321014493,-20.844042971014495,1.45074
C,30.953454210144933,-21.185027971014495,0.656839
O,31.19068921014493,-20.782662971014496,-0.463521
O,31.75722121014493,-22.007917971014496,1.357449
N,25.75898521014493,-14.657264971014495,1.59724
C,26.63676721014493,-14.921321971014496,2.611991
C,26.849256210144933,-13.684136971014496,3.319211
C,26.101606210144933,-12.705399971014495,2.694262
C,25.373213210144932,-13.334250971014495,1.606989
C,27.770861210144933,-13.533162971014495,4.487584
C,26.05931921014493,-11.293094971014495,3.070522
C,25.967277210144932,-10.250624971014496,2.23592
N,23.80664221014493,-14.642723971014496,-0.665835
C,23.68548621014493,-13.359581971014496,-0.256755
C,22.685181210144933,-12.636992971014495,-1.041499
C,22.197102210144934,-13.534465971014495,-1.949304
C,22.91067621014493,-14.784116971014495,-1.697442
C,22.30980921014493,-11.200600971014495,-0.851549
C,21.17713321014493,-13.315661971014496,-3.027432
C,21.802888210144932,-13.052728971014496,-4.407328
N,24.338892210144934,-17.285349971014494,-1.166197
C,23.370947210144934,-17.174522971014497,-2.161651
C,23.234189210144933,-18.449467971014496,-2.795499
C,24.138997210144932,-19.283438971014494,-2.143106
C,24.80651221014493,-18.542222971014496,-1.138761
C,22.31015421014493,-18.804326971014497,-3.915116
C,24.62792321014493,-20.654682971014495,-2.124383
O,24.29596721014493,-21.611881971014494,-2.793623
C,25.751869210144932,-20.685372971014495,-1.002924
C,25.468757210144933,-21.816037971014495,-0.03503
O,24.94283821014493,-21.706759971014495,1.052764
O,25.864325210144933,-22.989976971014496,-0.558339
C,25.541702210144933,-24.144477971014496,0.229942
C,33.01689521014493,-22.373421971014494,0.720079
C,34.10326021014493,-21.406728971014495,1.069099
C,34.743948210144936,-20.587344971014495,0.221322
C,34.43460821014493,-20.490266971014496,-1.253008
C,35.863123210144934,-19.704297971014494,0.721342
C,37.23292721014493,-20.042273971014495,0.107873
C,38.34785921014493,-19.135245971014495,0.635393
C,39.72814721014493,-19.350562971014494,-0.009734
C,40.274388210144934,-20.755458971014495,0.273101
C,40.701441210144935,-18.253481971014494,0.456063
C,42.056707210144936,-18.234211971014496,-0.257661
C,42.93281821014493,-17.055359971014497,0.177506
C,44.268410210144935,-16.915262971014496,-0.573598
C,45.188372210144934,-18.117958971014495,-0.329988
C,44.94943421014493,-15.589700971014496,-0.190965
C,46.19865921014493,-15.235944971014495,-1.003823
C,46.75390721014493,-13.851682971014496,-0.655059
C,48.07020721014493,-13.479275971014495,-1.356553
C,47.91871921014493,-13.409449971014496,-2.88033
C,48.61066021014493,-12.153020971014495,-0.811694
H,27.87551421014493,-16.165003971014496,3.771283
H,24.19457021014493,-11.722812971014495,0.998672
H,21.961903210144932,-15.971813971014495,-3.192353
H,27.02250421014493,-20.526849971014496,1.841556
H,28.833019210144933,-18.462316971014495,2.802669
H,27.67139021014493,-20.068875971014496,4.315876
H,27.309932210144932,-18.402913971014495,4.802712
H,26.107349210144932,-19.344953971014494,3.905201
H,28.481335210144934,-20.434653971014495,-0.257129
H,29.26564021014493,-19.015669971014496,0.392515
H,30.03664321014493,-20.385955971014496,2.393249
H,29.22382821014493,-21.785457971014495,1.736241
H,28.81051421014493,-13.737269971014495,4.205312
H,27.73627521014493,-12.519802971014496,4.893584
H,27.511941210144933,-14.228483971014494,5.294267
H,26.142909210144932,-11.090489971014495,4.137748
H,25.93680321014493,-10.375157971014495,1.158277
H,25.947613210144933,-9.233903971014495,2.614886
H,23.154342210144932,-10.529957971014495,-1.053286
H,21.49629321014493,-10.910510971014496,-1.522123
H,21.97908621014493,-11.000157971014495,0.174502
H,20.511854210144932,-14.186321971014495,-3.091274
H,20.53498321014493,-12.469676971014495,-2.75618
H,22.43189621014493,-12.157384971014494,-4.382958
H,22.43595421014493,-13.890146971014495,-4.717677
H,21.02996821014493,-12.907705971014495,-5.169278
H,22.51634621014493,-18.206970971014496,-4.810734
H,22.42646021014493,-19.859348971014494,-4.171607
H,21.26334721014493,-18.629573971014494,-3.641557
H,26.68659221014493,-20.922689971014496,-1.525495
H,25.91812721014493,-24.998634971014496,-0.3318
H,26.019115210144932,-24.085718971014494,1.211598
H,24.460728210144932,-24.221671971014494,0.368827
H,33.23147121014493,-23.365244971014494,1.127706
H,32.855426210144934,-22.453457971014494,-0.355215
H,34.38930421014493,-21.394760971014495,2.120432
H,33.39712421014493,-20.752361971014494,-1.469505
H,34.60118021014493,-19.465884971014496,-1.605029
H,35.09450421014493,-21.136636971014497,-1.845304
H,35.62409521014493,-18.656364971014497,0.484661
H,35.93163621014493,-19.773920971014494,1.814047
H,37.45960421014493,-21.094182971014494,0.320902
H,37.180669210144934,-19.951366971014494,-0.985669
H,38.048715210144934,-18.088665971014496,0.48023
H,38.43853021014493,-19.265344971014496,1.72466
H,39.60552121014493,-19.245121971014495,-1.099873
H,39.59481721014493,-21.534810971014494,-0.084365
H,41.24012821014493,-20.920223971014494,-0.21366
H,40.41446521014493,-20.903487971014496,1.351697
H,40.21830121014493,-17.275940971014496,0.315344
H,40.86282721014493,-18.356830971014496,1.540089
H,42.58557621014493,-19.176444971014494,-0.073136
H,41.89258221014493,-18.181224971014494,-1.344395
H,42.35951821014493,-16.126485971014496,0.045735
H,43.13697321014493,-17.133053971014494,1.256467
H,44.04088621014493,-16.872959971014495,-1.65115
H,44.71635621014493,-19.057831971014494,-0.631395
H,46.124453210144935,-18.031955971014497,-0.88968
H,45.44233721014493,-18.198239971014495,0.734929
H,44.21796321014493,-14.776658971014495,-0.304315
H,45.20690921014493,-15.616371971014495,0.878982
H,46.984000210144934,-15.985211971014495,-0.836008
H,45.95225421014493,-15.283928971014495,-2.073253
H,45.99804021014493,-13.085857971014494,-0.887841
H,46.91048921014493,-13.799726971014495,0.432075
H,48.80510121014493,-14.265542971014495,-1.124227
H,47.168787210144934,-12.658333971014496,-3.159614
H,48.864074210144935,-13.126068971014496,-3.355731
H,47.60739021014493,-14.367128971014495,-3.308506
H,48.75996421014493,-12.196800971014495,0.272762
H,49.56906621014493,-11.892704971014496,-1.273904
H,47.90986221014493,-11.334392971014495,-1.01818
H,25.394278210144932,-15.357631971014495,0.964278
H,24.586589210144933,-16.481041971014495,-0.594404

