--Link1--
%Mem=30GB
%CPU=0-29
%Chk=Ph-Bilin-s0.chk
#n wB97XD/Def2TZVP Opt 

Ph-Bilin-s0

  0  1
O,-4.228516296296297,-4.962674654320987,1.886364
O,3.2242947037037037,-5.067994654320987,1.290682
O,7.346461703703704,-1.7480756543209874,1.847795
O,4.042947703703703,-3.372234654320988,0.081416
O,7.902755703703703,-0.8396936543209876,-0.124307
O,-2.7264362962962965,2.2425383456790122,-0.240954
N,0.004092703703703571,-0.8099886543209875,-0.593638
N,1.8434487037037035,1.5627253456790124,-0.373379
N,-3.1402942962962963,-3.363018654320988,0.635287
N,-0.45569529629629646,2.6923313456790123,-0.109761
C,0.9379517037037036,-2.6991036543209876,-1.369169
C,1.2209377037037035,-1.3739756543209876,-0.944447
C,-0.4564732962962964,-2.9045926543209877,-1.258006
C,-1.0186622962962963,-1.7070676543209875,-0.745341
C,4.080862703703703,1.1916603456790125,-0.347836
C,2.7833457037037035,0.5731953456790124,-0.574414
C,2.4902327037037035,-0.7420286543209875,-0.87755
C,3.8619067037037036,2.5164313456790124,-0.002271
C,1.9287507037037035,-3.7008286543209876,-1.89799
C,-5.296372296296297,-2.8043906543209878,1.3506
C,-3.3490952962962965,-2.0828666543209877,0.11215
C,2.4276737037037037,2.732231345679012,-0.02523
C,-4.767761296296296,-1.7584546543209876,0.373611
C,5.3954947037037035,0.4698133456790125,-0.429436
C,-2.3801022962962963,-1.3057706543209875,-0.455856
C,-1.2103472962962964,-4.108463654320987,-1.747563
C,-4.205056296296297,-3.8784296543209877,1.348854
C,2.3355157037037038,-4.7912896543209875,-0.891442
C,5.711512703703703,-0.38284765432098755,0.808939
C,4.862413703703703,3.5742003456790123,0.348162
C,1.6378617037037035,3.8724383456790124,0.248805
C,-6.688418296296296,-3.379688654320988,1.095339
C,-5.5236992962962965,-0.7961876543209876,-0.195256
C,0.2401657037037036,3.809797345679012,0.203744
C,-0.6801072962962964,4.955583345679012,0.493714
C,-1.9364622962962965,4.475285345679012,0.345971
C,3.2818627037037036,-4.3072956543209875,0.18601
C,-5.133116296296296,0.20422734567901246,-1.23933
C,7.094613703703704,-0.9906456543209876,0.758774
C,-3.2721312962962963,5.133531345679012,0.481849
C,-1.7953612962962966,3.0146003456790122,-0.039248
C,-0.2183492962962964,6.327833345679013,0.869102
C,-3.934355296296296,5.442464345679013,-0.872243
H,-0.1440752962962964,0.09945734567901249,-0.164467
H,3.3401297037037034,-1.4034656543209876,-1.044914
H,2.8377667037037035,-3.196417654320988,-2.255653
H,1.4924827037037036,-4.204310654320987,-2.776335
H,-5.271662296296296,-2.3895956543209875,2.378395
H,5.417173703703703,-0.18065165432098754,-1.31847
H,6.210619703703704,1.1934203456790125,-0.577004
H,-2.6087672962962962,-0.24844865432098753,-0.610944
H,0.8069587037037036,1.6046833456790126,-0.495279
H,-1.2338122962962965,-4.942444654320988,-1.021943
H,-2.2534272962962962,-3.856466654320988,-1.986798
H,-0.7502132962962964,-4.5117426543209875,-2.66397
H,-2.2421462962962964,-3.8320026543209877,0.62753
H,1.4622087037037035,-5.258661654320988,-0.412825
H,2.8684177037037037,-5.606401654320988,-1.414861
H,4.996065703703704,-1.2129756543209875,0.924138
H,5.638279703703704,0.21214734567901244,1.735293
H,4.735072703703704,4.471839345679013,-0.280173
H,5.894047703703704,3.2193213456790124,0.214768
H,4.756101703703703,3.9014323456790123,1.396961
H,2.131955703703704,4.807217345679012,0.512131
H,-7.472008296296297,-2.6235416543209875,1.25306
H,-6.873281296296296,-4.215827654320988,1.786321
H,-6.777884296296296,-3.755851654320988,0.064108
H,-6.566307296296296,-0.7501736543209876,0.140721
H,-4.631306296296296,1.0845443456790125,-0.801519
H,-6.021427296296296,0.5602303456790125,-1.783215
H,-4.424769296296296,-0.22194865432098754,-1.967873
H,-3.1809312962962966,6.059955345679012,1.07296
H,-3.9329492962962966,4.455191345679013,1.048622
H,0.4146227037037036,6.306914345679012,1.772675
H,-1.0658912962962963,6.999558345679012,1.067436
H,0.3883997037037036,6.781508345679012,0.066658
H,-3.3267662962962965,6.147682345679012,-1.461839
H,-4.9314932962962965,5.889103345679012,-0.728583
H,-4.054513296296296,4.521590345679012,-1.462616
H,3.887210703703704,-4.721184654320988,1.91363
H,8.247828703703703,-2.0969636543209877,1.738374
O,14.791320703703706,-4.962674654320987,1.886364
O,22.244131703703708,-5.067994654320987,1.290682
O,26.366298703703706,-1.7480756543209874,1.847795
O,23.062784703703706,-3.372234654320988,0.081416
O,26.922592703703707,-0.8396936543209876,-0.124307
O,16.293400703703707,2.2425383456790122,-0.240954
N,19.023929703703708,-0.8099886543209875,-0.593638
N,20.863285703703706,1.5627253456790124,-0.373379
N,15.879542703703706,-3.363018654320988,0.635287
N,18.564141703703704,2.6923313456790123,-0.109761
C,19.957788703703706,-2.6991036543209876,-1.369169
C,20.240774703703707,-1.3739756543209876,-0.944447
C,18.563363703703708,-2.9045926543209877,-1.258006
C,18.001174703703708,-1.7070676543209875,-0.745341
C,23.100699703703704,1.1916603456790125,-0.347836
C,21.803182703703705,0.5731953456790124,-0.574414
C,21.510069703703707,-0.7420286543209875,-0.87755
C,22.881743703703705,2.5164313456790124,-0.002271
C,20.948587703703705,-3.7008286543209876,-1.89799
C,13.723464703703705,-2.8043906543209878,1.3506
C,15.670741703703706,-2.0828666543209877,0.11215
C,21.447510703703706,2.732231345679012,-0.02523
C,14.252075703703706,-1.7584546543209876,0.373611
C,24.415331703703707,0.4698133456790125,-0.429436
C,16.639734703703706,-1.3057706543209875,-0.455856
C,17.809489703703704,-4.108463654320987,-1.747563
C,14.814780703703706,-3.8784296543209877,1.348854
C,21.355352703703705,-4.7912896543209875,-0.891442
C,24.731349703703707,-0.38284765432098755,0.808939
C,23.882250703703704,3.5742003456790123,0.348162
C,20.657698703703705,3.8724383456790124,0.248805
C,12.331418703703706,-3.379688654320988,1.095339
C,13.496137703703706,-0.7961876543209876,-0.195256
C,19.260002703703705,3.809797345679012,0.203744
C,18.339729703703707,4.955583345679012,0.493714
C,17.083374703703704,4.475285345679012,0.345971
C,22.301699703703704,-4.3072956543209875,0.18601
C,13.886720703703705,0.20422734567901246,-1.23933
C,26.114450703703707,-0.9906456543209876,0.758774
C,15.747705703703707,5.133531345679012,0.481849
C,17.224475703703707,3.0146003456790122,-0.039248
C,18.801487703703707,6.327833345679013,0.869102
C,15.085481703703707,5.442464345679013,-0.872243
H,18.875761703703706,0.09945734567901249,-0.164467
H,22.359966703703705,-1.4034656543209876,-1.044914
H,21.857603703703706,-3.196417654320988,-2.255653
H,20.512319703703707,-4.204310654320987,-2.776335
H,13.748174703703707,-2.3895956543209875,2.378395
H,24.437010703703706,-0.18065165432098754,-1.31847
H,25.230456703703705,1.1934203456790125,-0.577004
H,16.411069703703706,-0.24844865432098753,-0.610944
H,19.826795703703706,1.6046833456790126,-0.495279
H,17.786024703703706,-4.942444654320988,-1.021943
H,16.766409703703708,-3.856466654320988,-1.986798
H,18.269623703703708,-4.5117426543209875,-2.66397
H,16.777690703703705,-3.8320026543209877,0.62753
H,20.482045703703704,-5.258661654320988,-0.412825
H,21.888254703703705,-5.606401654320988,-1.414861
H,24.015902703703706,-1.2129756543209875,0.924138
H,24.658116703703705,0.21214734567901244,1.735293
H,23.754909703703706,4.471839345679013,-0.280173
H,24.913884703703708,3.2193213456790124,0.214768
H,23.775938703703705,3.9014323456790123,1.396961
H,21.151792703703705,4.807217345679012,0.512131
H,11.547828703703706,-2.6235416543209875,1.25306
H,12.146555703703706,-4.215827654320988,1.786321
H,12.241952703703706,-3.755851654320988,0.064108
H,12.453529703703706,-0.7501736543209876,0.140721
H,14.388530703703706,1.0845443456790125,-0.801519
H,12.998409703703707,0.5602303456790125,-1.783215
H,14.595067703703705,-0.22194865432098754,-1.967873
H,15.838905703703706,6.059955345679012,1.07296
H,15.086887703703706,4.455191345679013,1.048622
H,19.434459703703705,6.306914345679012,1.772675
H,17.953945703703706,6.999558345679012,1.067436
H,19.408236703703707,6.781508345679012,0.066658
H,15.693070703703706,6.147682345679012,-1.461839
H,14.088343703703707,5.889103345679012,-0.728583
H,14.965323703703707,4.521590345679012,-1.462616
H,22.907047703703707,-4.721184654320988,1.91363
H,27.267665703703706,-2.0969636543209877,1.738374

