--Link1--
#n B3LYP/SVP Opt Freq=savenormalmodes td

phycocyanobilin-s1-geom-freq

  0  1
O,-3.9564215802469134,-5.119462703703704,1.819716
O,3.2881834197530866,-5.090106703703703,1.078627
O,7.255427419753087,-1.7904777037037038,1.873205
O,4.097895419753086,-3.3529247037037035,-0.076606
O,7.893104419753087,-0.7742237037037036,-0.019673
O,-2.7356685802469136,2.1563172962962964,-0.394386
N,0.038417419753086435,-0.7312437037037036,-0.589871
N,1.8435434197530864,1.6125002962962962,-0.374224
N,-2.9816395802469136,-3.3720447037037036,0.676814
N,-0.49657258024691364,2.665331296296296,-0.081542
C,0.9458274197530864,-2.6135907037037036,-1.417049
C,1.2394474197530863,-1.2908577037037037,-0.971511
C,-0.44024258024691354,-2.829552703703704,-1.259373
C,-0.9973095802469135,-1.6400607037037038,-0.7087
C,4.083862419753086,1.2851602962962962,-0.277332
C,2.7974124197530865,0.6485702962962964,-0.55815
C,2.5259684197530867,-0.6705957037037037,-0.895254
C,3.8320694197530867,2.598803296296296,0.090097
C,1.9244194197530864,-3.586161703703704,-2.016544
C,-5.1924625802469135,-3.0370257037037036,1.347357
C,-3.2829365802469135,-2.0934157037037036,0.210682
C,2.3953494197530865,2.796883296296296,0.033766
C,-4.694566580246914,-1.8535357037037037,0.519561
C,5.405851419753087,0.5776562962962963,-0.340413
C,-2.3333725802469134,-1.2576207037037037,-0.355262
C,-1.1949085802469135,-4.025643703703704,-1.766832
C,-4.014845580246914,-4.010856703703704,1.338744
C,2.3671334197530864,-4.722937703703703,-1.077732
C,5.670446419753087,-0.35193970370370364,0.854528
C,4.807857419753087,3.658332296296296,0.497997
C,1.5716864197530862,3.891322296296296,0.322794
C,-6.495023580246913,-3.7053767037037035,0.899379
C,-5.4957235802469135,-0.8253347037037037,0.138331
C,0.15766341975308643,3.804327296296296,0.241881
C,-0.7905435802469135,4.921488296296297,0.465345
C,-2.0367925802469133,4.411811296296297,0.24094
C,3.3326504197530866,-4.286472703703703,0.003108
C,-5.164434580246914,0.3539392962962964,-0.705352
C,7.049680419753087,-0.9684787037037036,0.821018
C,-3.3861005802469135,5.056240296296297,0.284893
C,-1.8460135802469133,2.9672152962962963,-0.112302
C,-0.38561858024691353,6.310125296296297,0.849484
C,-3.995903580246914,5.287258296296296,-1.109085
H,-0.09568058024691356,0.16816729629629631,-0.132603
H,3.3748604197530865,-1.3317627037037036,-1.059126
H,2.8196574197530864,-3.057208703703704,-2.374529
H,1.4684084197530862,-4.052065703703703,-2.906399
H,-5.304256580246913,-2.7269277037037036,2.404601
H,5.473345419753087,-0.016988703703703673,-1.266527
H,6.222796419753086,1.3115442962962962,-0.404254
H,-2.5693525802469135,-0.19107770370370367,-0.446025
H,0.8161644197530864,1.6283862962962963,-0.525545
H,-1.1741715802469135,-4.887469703703704,-1.074902
H,-2.2504195802469136,-3.787310703703704,-1.958669
H,-0.7597305802469135,-4.382486703703703,-2.714107
H,-2.0476665802469136,-3.765867703703704,0.653348
H,1.5101774197530866,-5.226191703703703,-0.606101
H,2.8974264197530863,-5.5021057037037036,-1.656181
H,4.946140419753086,-1.1815407037037038,0.892639
H,5.5650164197530865,0.18643829629629635,1.811969
H,4.683214419753087,4.572661296296297,-0.106282
H,5.847553419753087,3.321493296296296,0.382104
H,4.668144419753086,3.9521042962962967,1.552831
H,2.0306844197530864,4.835051296296297,0.619248
H,-7.355846580246913,-3.0323397037037036,1.027304
H,-6.670890580246914,-4.609353703703703,1.501596
H,-6.4445595802469136,-3.999013703703704,-0.160884
H,-6.526306580246914,-0.8740897037037036,0.509989
H,-4.601808580246914,1.1286162962962962,-0.147387
H,-6.077755580246913,0.8260752962962964,-1.096839
H,-4.508409580246913,0.09520329629629634,-1.552352
H,-3.3316745802469137,6.012774296296297,0.831235
H,-4.067147580246914,4.403506296296297,0.859737
H,0.1899154197530864,6.3211712962962965,1.791584
H,-1.2604265802469135,6.962278296296296,0.986483
H,0.2567904197530864,6.773968296296297,0.080429
H,-3.3724595802469133,5.970568296296297,-1.707975
H,-5.004457580246913,5.725664296296297,-1.031228
H,-4.076760580246914,4.335122296296297,-1.65492
H,3.9644654197530866,-4.771049703703703,1.702176
H,8.158224419753086,-2.1392847037037037,1.77617

