%nproc=10
%mem=10GB
# wB97XD/Def2TZVP iop(3/107=0125000000,3/108=0125000000)

TITLE

-1 2
 6 -12.01754300000000 -0.50889500000000 -0.79414600000000
 6  12.01595100000000  0.02051400000000  0.87794900000000
 6 -13.31869200000000  0.30569100000000 -0.69408600000000
 6  12.87499600000000 -1.18180100000000  1.30390700000000
 6 -13.06749100000000  1.79746000000000 -0.54966200000000
 6  13.31280300000000 -2.03801100000000  0.12785500000000
 6 -10.98457500000000 -0.02723500000000  0.23877000000000
 6  10.93349900000000 -0.41190100000000 -0.12733300000000
 6 -12.29028200000000  2.05510700000000  0.73145000000000
 6  12.09008300000000 -2.58743200000000 -0.59211800000000
 6 -11.13322700000000  1.10992100000000  0.94257200000000
 6  10.98852000000000 -1.57490900000000 -0.80258400000000
 6 -11.41546600000000 -0.37713500000000 -2.20562200000000
 6 -12.37989300000000 -1.98676100000000 -0.55787100000000
 6  12.90782900000000  1.10544500000000  0.24344600000000
 6  11.36420800000000  0.59932600000000  2.14548400000000
 6 -9.80636800000000 -0.89907900000000  0.39435800000000
 6  9.85508100000000  0.57383400000000 -0.31392700000000
 6 -10.20493300000000  1.56031200000000  2.03850300000000
 6  9.98072200000000 -2.00622900000000 -1.83423200000000
 6 -8.53154200000000 -0.49474700000000  0.29501200000000
 6  8.53926300000000  0.32566500000000 -0.24290800000000
 6 -7.34948800000000 -1.33314100000000  0.43153500000000
 6  7.47090600000000  1.30152600000000 -0.40074700000000
 6 -7.54874700000000 -2.79465800000000  0.71597400000000
 6  7.85170700000000  2.72794700000000 -0.67847900000000
 6 -6.13386100000000 -0.75161300000000  0.29443300000000
 6  6.19065700000000  0.87331700000000 -0.28874600000000
 6 -4.84021700000000 -1.37440600000000  0.38817300000000
 6  4.98468900000000  1.64895100000000 -0.40636400000000
 6 -3.68511600000000 -0.69342100000000  0.23323400000000
 6  3.75216500000000  1.11482200000000 -0.27632000000000
 6 -2.35470300000000 -1.25943100000000  0.31478800000000
 6  2.49246900000000  1.82349200000000 -0.38083700000000
 6 -2.22918400000000 -2.73336700000000  0.59509200000000
 6  2.53473900000000  3.29989000000000 -0.65975900000000
 6 -1.22753200000000 -0.51821400000000  0.14931300000000
 6  1.34430600000000  1.11605200000000 -0.22142700000000
 6 -1.13909500000000  0.89124000000000 -0.12247900000000
 6 -0.00248600000000  1.61218800000000 -0.28538500000000
 1 -13.88529300000000 -0.03970800000000  0.17735400000000
 1 -13.93519300000000  0.09573400000000 -1.57225300000000
 1  12.29223500000000 -1.80183800000000  1.99323900000000
 1  13.74031400000000 -0.81829000000000  1.86508000000000
 1 -14.01091800000000  2.34715300000000 -0.53851300000000
 1 -12.49994500000000  2.16791500000000 -1.40730600000000
 1  13.95127800000000 -2.85669800000000  0.46646900000000
 1  13.91206200000000 -1.44382000000000 -0.56673600000000
 1 -12.96080900000000  1.98166400000000  1.59749800000000
 1 -11.90819200000000  3.08104600000000  0.74831700000000
 1  11.67335700000000 -3.43101500000000 -0.02611100000000
 1  12.37849900000000 -3.00432600000000 -1.56134600000000
 1 -11.19744000000000  0.66290100000000 -2.45224700000000
 1 -12.10812900000000 -0.76921500000000 -2.95459700000000
 1 -10.48087700000000 -0.93512100000000 -2.28225500000000
 1 -12.68211200000000 -2.15852100000000  0.47745000000000
 1 -11.55302400000000 -2.65837400000000 -0.79154000000000
 1 -13.21579700000000 -2.26556200000000 -1.20341500000000
 1  13.42113000000000  0.73416900000000 -0.64401300000000
 1  13.66054400000000  1.44282200000000  0.96033500000000
 1  12.32568900000000  1.97903300000000 -0.05423400000000
 1  10.66218000000000 -0.11299300000000  2.58295900000000
 1  10.81764000000000  1.52067000000000  1.94085600000000
 1  12.13204300000000  0.82299700000000  2.89017400000000
 1 -10.00339800000000 -1.95365200000000  0.55526000000000
 1  10.17759800000000  1.60091000000000 -0.45930100000000
 1 -9.53848600000000  0.77309100000000  2.38227000000000
 1 -10.79122200000000  1.91797500000000  2.89013900000000
 1 -9.58966900000000  2.40394700000000  1.71051000000000
 1  9.31710200000000 -1.20230900000000 -2.14189300000000
 1  9.36215500000000 -2.82649000000000 -1.45553500000000
 1  10.49482800000000 -2.38960900000000 -2.71974800000000
 1 -8.34163700000000  0.55367600000000  0.08472300000000
 1  8.21818800000000 -0.69078400000000 -0.03635200000000
 1 -8.10444900000000 -2.93309200000000  1.64664100000000
 1 -6.61118600000000 -3.33705300000000  0.80369800000000
 1 -8.13285300000000 -3.26411900000000 -0.07966200000000
 1  8.43877700000000  2.79784400000000 -1.59756500000000
 1  8.47143700000000  3.12459300000000  0.12985100000000
 1  6.98837700000000  3.37947400000000 -0.78425700000000
 1 -6.12074300000000  0.31573200000000  0.08850200000000
 1  6.04296500000000 -0.18442000000000 -0.08557400000000
 1 -4.79978300000000 -2.43719200000000  0.59225200000000
 1  5.07677700000000  2.70904000000000 -0.60887300000000
 1 -3.76160600000000  0.36863800000000  0.02980200000000
 1  3.67829400000000  0.04942600000000 -0.07325700000000
 1 -2.69231500000000 -2.99452600000000  1.55027100000000
 1 -1.18437500000000 -3.03781700000000  0.63291600000000
 1 -2.72633700000000 -3.32592200000000 -0.17742100000000
 1  3.04683200000000  3.49724400000000 -1.60472100000000
 1  3.08915000000000  3.82229800000000  0.12371100000000
 1  1.54572500000000  3.74535400000000 -0.71921600000000
 1 -0.28781100000000 -1.05235600000000  0.23244700000000
 1  1.46350800000000  0.05614700000000 -0.02420600000000
 1 -2.06755700000000  1.44238900000000 -0.20726800000000
 1 -0.13243100000000  2.66903900000000 -0.48421200000000

