%nproc=10
%mem=10GB
# wB97XD/Def2TZVP iop(3/107=0112500000,3/108=0112500000)

TITLE

-1 2
 6 -12.01938400000000 -0.50797700000000 -0.79909700000000
 6  12.01865400000000  0.01692600000000  0.87794100000000
 6 -13.32036800000000  0.30859800000000 -0.70160900000000
 6  12.87717200000000 -1.18773800000000  1.30100600000000
 6 -13.06808700000000  1.80045000000000 -0.55518400000000
 6  13.31451300000000 -2.04201400000000  0.12279000000000
 6 -10.98706600000000 -0.02721800000000  0.23621900000000
 6  10.93538100000000 -0.41226900000000 -0.12918400000000
 6 -12.29274500000000  2.05651100000000  0.72792000000000
 6  12.09129700000000 -2.58800900000000 -0.59993500000000
 6 -11.13661500000000  1.10994200000000  0.94090800000000
 6  10.99042600000000 -1.57365800000000 -0.80831500000000
 6 -11.41420900000000 -0.37716500000000 -2.21020000000000
 6 -12.38459800000000 -1.98603900000000 -0.56312000000000
 6  12.91183000000000  1.10336000000000  0.24588900000000
 6  11.36713000000000  0.59306100000000  2.14774700000000
 6 -9.80966800000000 -0.89999600000000  0.39327500000000
 6  9.85787900000000  0.57492400000000 -0.31393800000000
 6 -10.21069300000000  1.55839100000000  2.04026400000000
 6  9.98380700000000 -2.00070100000000 -1.84352000000000
 6 -8.53333300000000 -0.49720900000000  0.29663500000000
 6  8.54088000000000  0.32867400000000 -0.24363800000000
 6 -7.35241900000000 -1.33627200000000  0.43439800000000
 6  7.47367300000000  1.30533700000000 -0.40040300000000
 6 -7.55205600000000 -2.79819300000000  0.71910400000000
 6  7.85472400000000  2.73217500000000 -0.67830300000000
 6 -6.13534900000000 -0.75496800000000  0.29800300000000
 6  6.19212700000000  0.87764600000000 -0.28754600000000
 6 -4.84234400000000 -1.37729300000000  0.39250100000000
 6  4.98673600000000  1.65297400000000 -0.40398800000000
 6 -3.68598600000000 -0.69618600000000  0.23800700000000
 6  3.75299500000000  1.11898100000000 -0.27329100000000
 6 -2.35596600000000 -1.26107600000000  0.31996400000000
 6  2.49364600000000  1.82690600000000 -0.37674300000000
 6 -2.22835300000000 -2.73541200000000  0.60026700000000
 6  2.53398200000000  3.30397100000000 -0.65528400000000
 6 -1.22804400000000 -0.51854600000000  0.15473100000000
 6  1.34488700000000  1.11812200000000 -0.21675900000000
 6 -1.13904600000000  0.89007900000000 -0.11653100000000
 6 -0.00174600000000  1.61222800000000 -0.27969000000000
 1 -13.88975900000000 -0.03681300000000  0.16775700000000
 1 -13.93493700000000  0.10036100000000 -1.58135500000000
 1  12.29430000000000 -1.80878200000000  1.98902700000000
 1  13.74286800000000 -0.82656100000000  1.86282800000000
 1 -14.01111800000000  2.35072800000000 -0.54507200000000
 1 -12.49907300000000  2.17153300000000 -1.41138600000000
 1  13.95128200000000 -2.86252500000000  0.46001000000000
 1  13.91548600000000 -1.44741900000000 -0.56972900000000
 1 -12.96501600000000  1.98358800000000  1.59253700000000
 1 -11.90994400000000  3.08206900000000  0.74593300000000
 1  11.67344000000000 -3.43292700000000 -0.03694700000000
 1  12.38020500000000 -3.00238600000000 -1.56998100000000
 1 -11.19333200000000  0.66226700000000 -2.45619100000000
 1 -12.10618100000000 -0.76727100000000 -2.96064400000000
 1 -10.48090500000000 -0.93716600000000 -2.28549400000000
 1 -12.68940800000000 -2.15722500000000  0.47137500000000
 1 -11.55840000000000 -2.65895400000000 -0.79466000000000
 1 -13.21932400000000 -2.26400200000000 -1.21031700000000
 1  13.42392700000000  0.73438500000000 -0.64305500000000
 1  13.66556700000000  1.43763200000000  0.96294600000000
 1  12.33074500000000  1.97854000000000 -0.04857800000000
 1  10.66527800000000 -0.12001400000000  2.58388400000000
 1  10.82069800000000  1.51484600000000  1.94564000000000
 1  12.13495100000000  0.81495000000000  2.89279200000000
 1 -10.00805300000000 -1.95441800000000  0.55233500000000
 1  10.18172500000000  1.60171100000000 -0.45710200000000
 1 -9.54447200000000  0.77088400000000  2.38338000000000
 1 -10.79884700000000  1.91306300000000  2.89176700000000
 1 -9.59546300000000  2.40344400000000  1.71617700000000
 1  9.31898600000000 -1.19628900000000 -2.14673800000000
 1  9.36664800000000 -2.82456700000000 -1.47066700000000
 1  10.49914200000000 -2.37738500000000 -2.73112900000000
 1 -8.34205700000000  0.55090100000000  0.08708900000000
 1  8.21868000000000 -0.68745900000000 -0.03829700000000
 1 -8.10934700000000 -2.93662400000000  1.64870000000000
 1 -6.61465300000000 -3.34027800000000  0.80896100000000
 1 -8.13413100000000 -3.26837300000000 -0.07745300000000
 1  8.44173100000000  2.80217000000000 -1.59730300000000
 1  8.47406600000000  3.12922400000000  0.12997700000000
 1  6.99151900000000  3.38363000000000 -0.78435600000000
 1 -6.12219400000000  0.31219400000000  0.09193900000000
 1  6.04453800000000 -0.17998900000000 -0.08460200000000
 1 -4.80199700000000 -2.43988700000000  0.59669600000000
 1  5.07883800000000  2.71294900000000 -0.60618100000000
 1 -3.76246000000000  0.36568900000000  0.03438100000000
 1  3.67940800000000  0.05367400000000 -0.07052200000000
 1 -2.69082500000000 -2.99744400000000  1.55542200000000
 1 -1.18330000000000 -3.03864200000000  0.63809400000000
 1 -2.72445600000000 -3.32875900000000 -0.17217900000000
 1  3.04484300000000  3.50250300000000 -1.60054500000000
 1  3.08797700000000  3.82701200000000  0.12790900000000
 1  1.54446100000000  3.74816800000000 -0.71388600000000
 1 -0.28851600000000 -1.05270700000000  0.23805400000000
 1  1.46524800000000  0.05840100000000 -0.02001000000000
 1 -2.06723800000000  1.44155200000000 -0.20098200000000
 1 -0.13313700000000  2.66889000000000 -0.47801800000000

