%nproc=10
%mem=10GB
# wB97XD/Def2TZVP iop(3/107=0075000000,3/108=0075000000)

TITLE

-1 2
 6  12.01655700000000  0.49975300000000 -0.82807100000000
 6 -12.02124400000000  0.00518100000000  0.88346000000000
 6  13.31890700000000 -0.32066800000000 -0.73943700000000
 6 -12.87208000000000  1.22327200000000  1.29297000000000
 6  13.06715300000000 -1.81174200000000 -0.56955800000000
 6 -13.31189600000000  2.06475100000000  0.10446800000000
 6  10.99419000000000  0.03059000000000  0.22712400000000
 6 -10.93921700000000  0.41365000000000 -0.13860200000000
 6  12.30556900000000 -2.05138400000000  0.72680100000000
 6 -12.08969500000000  2.58952500000000 -0.63876600000000
 6  11.15253300000000 -1.09935000000000  0.94404700000000
 6 -10.99521200000000  1.56407300000000 -0.83874900000000
 6  11.39186500000000  0.35732400000000 -2.23269400000000
 6  12.39032500000000  1.98152300000000 -0.61009700000000
 6 -12.92552800000000 -1.08788300000000  0.27172500000000
 6 -11.36565100000000 -0.55530500000000  2.16157300000000
 6  9.81952900000000  0.90770300000000  0.39003200000000
 6 -9.86689700000000 -0.58205600000000 -0.31566100000000
 6  10.24190900000000 -1.53209100000000  2.06489400000000
 6 -9.99729500000000  1.96664200000000 -1.89465200000000
 6  8.53861900000000  0.51040900000000  0.30309800000000
 6 -8.54604800000000 -0.34472500000000 -0.24716500000000
 6  7.36044300000000  1.35156500000000  0.44541600000000
 6 -7.48303700000000 -1.32579800000000 -0.39900900000000
 6  7.56091200000000  2.81531100000000  0.73047800000000
 6 -7.86636600000000 -2.75413400000000 -0.67660300000000
 6  6.13938900000000  0.77024800000000  0.31230300000000
 6 -6.19737200000000 -0.90078000000000 -0.28312200000000
 6  4.84710000000000  1.38957900000000  0.40965000000000
 6 -4.99322800000000 -1.67536600000000 -0.39461100000000
 6  3.68771700000000  0.70678200000000  0.25716300000000
 6 -3.75598200000000 -1.14154500000000 -0.26153200000000
 6  2.35752600000000  1.26600500000000  0.34051500000000
 6 -2.49658800000000 -1.84612100000000 -0.36052000000000
 6  2.22049000000000  2.74184000000000  0.62057500000000
 6 -2.52882600000000 -3.32583300000000 -0.63747600000000
 6  1.22842500000000  0.51769400000000  0.17636400000000
 6 -1.34709300000000 -1.13162000000000 -0.19825200000000
 6  1.13867100000000 -0.88889300000000 -0.09264600000000
 6  0.00044800000000 -1.61658300000000 -0.25670500000000
 1  13.90264100000000  0.03432200000000  0.11553300000000
 1  13.92106000000000 -0.12627900000000 -1.63021700000000
 1 -12.28332500000000  1.85048000000000  1.96916400000000
 1 -13.73707200000000  0.87674500000000  1.86403000000000
 1  14.01027700000000 -2.36157800000000 -0.56220600000000
 1  12.48997300000000 -2.19520300000000 -1.41398700000000
 1 -13.93749700000000  2.89607300000000  0.43552700000000
 1 -13.92549400000000  1.46699900000000 -0.57317000000000
 1  12.98838500000000 -1.97143000000000  1.58195400000000
 1  11.92189500000000 -3.07585300000000  0.76009900000000
 1 -11.66203900000000  3.44157600000000 -0.09497500000000
 1 -12.38493100000000  2.98893500000000 -1.61272900000000
 1  11.16046400000000 -0.68247400000000 -2.46462600000000
 1  12.07624500000000  0.73340700000000 -2.99643800000000
 1  10.46227500000000  0.92283700000000 -2.30362400000000
 1  12.71145400000000  2.16136800000000  0.41742100000000
 1  11.56336500000000  2.65499000000000 -0.83444900000000
 1  13.21542500000000  2.25233300000000 -1.27169800000000
 1 -13.43555500000000 -0.73226800000000 -0.62319000000000
 1 -13.68134300000000 -1.40299200000000  0.99450500000000
 1 -12.35281300000000 -1.97300800000000 -0.00674800000000
 1 -10.65969800000000  0.16069600000000  2.58474800000000
 1 -10.82393600000000 -1.48176000000000  1.97190300000000
 1 -12.13016000000000 -0.76331300000000  2.91331800000000
 1  10.02322500000000  1.96126400000000  0.54334200000000
 1 -10.19751200000000 -1.60695600000000 -0.45104100000000
 1  9.57519500000000 -0.74252000000000  2.40043000000000
 1  10.84196800000000 -1.86456600000000  2.91670000000000
 1  9.62870100000000 -2.38762400000000  1.76665900000000
 1 -9.32851100000000  1.15889000000000 -2.17732000000000
 1 -9.38487100000000  2.80697800000000 -1.55310700000000
 1 -10.52106800000000  2.31014600000000 -2.79052800000000
 1  8.34305300000000 -0.53676700000000  0.09667200000000
 1 -8.21888400000000  0.67013000000000 -0.04707600000000
 1  8.12363800000000  2.95431900000000  1.65628400000000
 1  6.62397700000000  3.35601400000000  0.82760600000000
 1  8.13562400000000  3.28795700000000 -0.06942800000000
 1 -8.45298700000000 -2.82463500000000 -1.59538700000000
 1 -8.48483800000000 -3.15145700000000  0.13166600000000
 1 -7.00429100000000 -3.40626800000000 -0.78294800000000
 1  6.12693200000000 -0.29634900000000  0.10617800000000
 1 -6.04971900000000  0.15656200000000 -0.08166300000000
 1  4.80567700000000  2.45137200000000  0.61398100000000
 1 -5.08499200000000 -2.73494200000000 -0.59516100000000
 1  3.76563800000000 -0.35431500000000  0.05309900000000
 1 -3.68416200000000 -0.07640500000000 -0.06031700000000
 1  2.68011500000000  3.00776800000000  1.57564600000000
 1  1.17415800000000  3.03925600000000  0.65833600000000
 1  2.71194200000000  3.33858100000000 -0.15174200000000
 1 -3.03484000000000 -3.52915200000000 -1.58389300000000
 1 -3.08104000000000 -3.85147000000000  0.14471300000000
 1 -1.53721400000000 -3.76471400000000 -0.69271600000000
 1  0.28905400000000  1.05084200000000  0.26013000000000
 1 -1.47298500000000 -0.07272900000000 -0.00354200000000
 1  2.06640500000000 -1.44067100000000 -0.17544700000000
 1  0.13888800000000 -2.67238700000000 -0.45263600000000

