%nproc=10
%mem=10GB
# wB97XD/Def2TZVP iop(3/107=0100000000,3/108=0100000000) opt

TITLE

0 1
 6  11.98570000000000  0.49466700000000 -0.80112300000000
 6 -11.98789800000000 -0.02666900000000  0.88824100000000
 6  13.29084600000000 -0.30528100000000 -0.69120500000000
 6 -12.84435900000000  1.17043200000000  1.32122200000000
 6  13.05107600000000 -1.79317100000000 -0.51463800000000
 6 -13.29437000000000  2.02247900000000  0.14979000000000
 6  10.96895900000000  0.03226900000000  0.25043500000000
 6 -10.91886700000000  0.40819300000000 -0.12429400000000
 6  12.28522300000000 -2.02907900000000  0.77471000000000
 6 -12.08079300000000  2.57721300000000 -0.57633500000000
 6  11.12555000000000 -1.08702600000000  0.97268800000000
 6 -10.97930800000000  1.56903800000000 -0.79464100000000
 6  11.37404200000000  0.32238800000000 -2.19996200000000
 6  12.33475200000000  1.97768800000000 -0.60629000000000
 6 -12.88010700000000 -1.11195600000000  0.26414000000000
 6 -11.32339500000000 -0.60282200000000  2.14587000000000
 6  9.78831100000000  0.90346400000000  0.40125800000000
 6 -9.83792000000000 -0.57445100000000 -0.31907400000000
 6  10.20256800000000 -1.52269100000000  2.07646800000000
 6 -9.97583300000000  2.00736300000000 -1.82499200000000
 6  8.52163200000000  0.49326800000000  0.29159900000000
 6 -8.52883300000000 -0.31971000000000 -0.24235100000000
 6  7.33316600000000  1.32869800000000  0.42320400000000
 6 -7.45448800000000 -1.29277800000000 -0.40435500000000
 6  7.53112400000000  2.78869300000000  0.70534600000000
 6 -7.83488300000000 -2.71691300000000 -0.68316900000000
 6  6.12583900000000  0.74561000000000  0.28422500000000
 6 -6.18175500000000 -0.86247900000000 -0.29403200000000
 6  4.82757900000000  1.36928200000000  0.37461600000000
 6 -4.97159500000000 -1.63902600000000 -0.41574900000000
 6  3.68049700000000  0.68758200000000  0.21824800000000
 6 -3.74661400000000 -1.10346200000000 -0.28703600000000
 6  2.34616000000000  1.25606900000000  0.29744000000000
 6 -2.48301600000000 -1.81344900000000 -0.39503500000000
 6  2.22737500000000  2.72827200000000  0.57697200000000
 6 -2.53150700000000 -3.28698300000000 -0.67585900000000
 6  1.22486700000000  0.51957700000000  0.13127600000000
 6 -1.34075500000000 -1.10980900000000 -0.23702700000000
 6  1.14008100000000 -0.89483700000000 -0.14222600000000
 6  0.00914700000000 -1.61165000000000 -0.30415400000000
 1  13.85835000000000  0.06274300000000  0.17067900000000
 1  13.90088500000000 -0.10869800000000 -1.57712900000000
 1 -12.25591000000000  1.79300800000000  2.00383200000000
 1 -13.70297000000000  0.80408700000000  1.89099700000000
 1  13.99814900000000 -2.33628100000000 -0.49856200000000
 1  12.47992200000000 -2.18439300000000 -1.36069100000000
 1 -13.93508200000000  2.83770500000000  0.49220000000000
 1 -13.89418000000000  1.42409600000000 -0.54088300000000
 1  12.96021700000000 -1.93148000000000  1.63464600000000
 1  11.90886700000000 -3.05629600000000  0.81574800000000
 1 -11.66258000000000  3.42059300000000 -0.01147700000000
 1 -12.37645300000000  2.99339200000000 -1.54359200000000
 1  11.16486700000000 -0.72570600000000 -2.41910300000000
 1  12.05681700000000  0.70357500000000 -2.96370000000000
 1  10.43310300000000  0.86922800000000 -2.28144000000000
 1  12.64301600000000  2.17843600000000  0.42226700000000
 1  11.49851800000000  2.63413000000000 -0.85048100000000
 1  13.16304700000000  2.24726900000000 -1.26564200000000
 1 -13.40466900000000 -0.74216500000000 -0.61748000000000
 1 -13.62319300000000 -1.45234600000000  0.98980100000000
 1 -12.29706700000000 -1.98293300000000 -0.04006700000000
 1 -10.61576300000000  0.11008600000000  2.57381700000000
 1 -10.77967400000000 -1.52484000000000  1.93571400000000
 1 -12.08363700000000 -0.82461100000000  2.89903300000000
 1  9.98175700000000  1.95748000000000  0.57150300000000
 1 -10.15676900000000 -1.60097100000000 -0.47694200000000
 1  9.53361200000000 -0.73271900000000  2.40892900000000
 1  10.79235400000000 -1.86545600000000  2.93165900000000
 1  9.59024900000000 -2.37293500000000  1.76065500000000
 1 -9.31331100000000  1.20582500000000 -2.14117200000000
 1 -9.35620400000000  2.82354200000000 -1.43954200000000
 1 -10.49279100000000  2.39871100000000 -2.70510600000000
 1  8.33803300000000 -0.55657700000000  0.08031400000000
 1 -8.21245700000000  0.69747200000000 -0.03006200000000
 1  8.08196000000000  2.92747800000000  1.63880700000000
 1  6.59351700000000  3.33216000000000  0.78630100000000
 1  8.12121100000000  3.25457200000000 -0.08793000000000
 1 -8.42202700000000 -2.78458700000000 -1.60231800000000
 1 -8.45571700000000 -3.11243700000000  0.12483800000000
 1 -6.97183300000000 -3.36885100000000 -0.78915600000000
 1  6.11340700000000 -0.32217900000000  0.07959600000000
 1 -6.03388500000000  0.19505000000000 -0.08892200000000
 1  4.78578800000000  2.43234400000000  0.57752800000000
 1 -5.06277900000000 -2.69898000000000 -0.61999700000000
 1  3.75852800000000 -0.37473800000000  0.01627800000000
 1 -3.67280500000000 -0.03814200000000 -0.08228500000000
 1  2.69150200000000  2.98639000000000  1.53241100000000
 1  1.18357400000000  3.03660100000000  0.61357600000000
 1  2.72859200000000  3.31732900000000 -0.19548900000000
 1 -3.04759900000000 -3.47934800000000 -1.61964700000000
 1 -3.08714800000000 -3.80711200000000  0.10822200000000
 1 -1.54461800000000 -3.73669500000000 -0.73850700000000
 1  0.28390600000000  1.05194700000000  0.21280500000000
 1 -1.45700300000000 -0.04991000000000 -0.03793700000000
 1  2.07009600000000 -1.44318800000000 -0.22764500000000
 1  0.13509300000000 -2.66869500000000 -0.50445800000000

