%nproc=10
%mem=10GB
# wB97XD/Def2TZVP iop(3/107=0200000000,3/108=0200000000) opt

TITLE

0 1
 6  12.02021900000000  0.50552800000000 -0.80566500000000
 6 -12.02078700000000 -0.01266100000000  0.87893100000000
 6  13.32129600000000 -0.31264000000000 -0.71014900000000
 6 -12.87785500000000  1.19493300000000  1.29944000000000
 6  13.06851700000000 -1.80436800000000 -0.55848200000000
 6 -13.31539200000000  2.04725700000000  0.11927200000000
 6  10.98953600000000  0.02757600000000  0.23403900000000
 6 -10.93711400000000  0.41260100000000 -0.13096100000000
 6  12.29584000000000 -2.05654200000000  0.72758100000000
 6 -12.09210600000000  2.58875400000000 -0.60775000000000
 6  11.14079800000000 -1.10814500000000  0.94169800000000
 6 -10.99246500000000  1.57201100000000 -0.81449900000000
 6  11.41070400000000  0.37272100000000 -2.21565800000000
 6  12.38821200000000  1.98439400000000 -0.57325700000000
 6 -12.91629100000000 -1.10028100000000  0.25006900000000
 6 -11.36899200000000 -0.58620500000000  2.15080000000000
 6  9.81304700000000  0.90166800000000  0.39209900000000
 6 -9.86075600000000 -0.57633300000000 -0.31404000000000
 6  10.21857900000000 -1.55241500000000  2.04657700000000
 6 -9.98784800000000  1.99395000000000 -1.85447900000000
 6  8.53516100000000  0.50057700000000  0.29852600000000
 6 -8.54249500000000 -0.33238600000000 -0.24481100000000
 6  7.35534300000000  1.34050200000000  0.43690200000000
 6 -7.47658500000000 -1.31009800000000 -0.40063300000000
 6  7.55537000000000  2.80311600000000  0.72076100000000
 6 -7.85810400000000 -2.73736500000000 -0.67874900000000
 6  6.13684000000000  0.75932700000000  0.30168200000000
 6 -6.19367000000000 -0.88313200000000 -0.28697200000000
 6  4.84432600000000  1.38105200000000  0.39644800000000
 6 -4.98880600000000 -1.65814000000000 -0.40222300000000
 6  3.68679700000000  0.69959000000000  0.24270600000000
 6 -3.75383500000000 -1.12428900000000 -0.27075300000000
 6  2.35698900000000  1.26312500000000  0.32457500000000
 6 -2.49472700000000 -1.83132500000000 -0.37302400000000
 6  2.22683200000000  2.73802200000000  0.60421200000000
 6 -2.53277800000000 -3.30912800000000 -0.65131900000000
 6  1.22844600000000  0.51901100000000  0.15967800000000
 6 -1.34546800000000 -1.12104000000000 -0.21228700000000
 6  1.13900500000000 -0.88890700000000 -0.11055700000000
 6  0.00119900000000 -1.61263300000000 -0.27389200000000
 1  13.89410500000000  0.03465400000000  0.15595000000000
 1  13.93323600000000 -0.10780200000000 -1.59232600000000
 1 -12.29402700000000  1.81687300000000  1.98550600000000
 1 -13.74362800000000  0.83673300000000  1.86275100000000
 1  14.01136900000000 -2.35483500000000 -0.54877000000000
 1  12.49781200000000 -2.17812200000000 -1.41216700000000
 1 -13.94947300000000  2.87013100000000  0.45559300000000
 1 -13.91933600000000  1.45257600000000 -0.57031200000000
 1  12.97043600000000 -1.98279100000000  1.59016600000000
 1  11.91227800000000 -3.08164800000000  0.74871200000000
 1 -11.67217900000000  3.43515000000000 -0.04874700000000
 1 -12.38230500000000  3.00017800000000 -1.57853600000000
 1  11.18669900000000 -0.66656300000000 -2.45870100000000
 1  12.10130400000000  0.75923300000000 -2.96900200000000
 1  10.47867900000000  0.93461300000000 -2.29006100000000
 1  12.69688600000000  2.15711300000000  0.45966400000000
 1  11.56224600000000  2.65796600000000 -0.80288100000000
 1  13.22084200000000  2.26057800000000 -1.22365400000000
 1 -13.42738400000000 -0.73364000000000 -0.64022300000000
 1 -13.67092800000000 -1.43080500000000  0.96768600000000
 1 -12.33700000000000 -1.97749900000000 -0.04119300000000
 1 -10.66663100000000  0.12727000000000  2.58503600000000
 1 -10.82338400000000 -1.50881300000000  1.95124300000000
 1 -12.13642800000000 -0.80567200000000  2.89674700000000
 1  10.01300500000000  1.95599100000000  0.54845200000000
 1 -10.18618600000000 -1.60273300000000 -0.45475300000000
 1  9.55181500000000 -0.76449400000000  2.38712400000000
 1  10.80969400000000 -1.90059400000000  2.89861500000000
 1  9.60436200000000 -2.40073100000000  1.72952100000000
 1 -9.32200000000000  1.18891300000000 -2.15311700000000
 1 -9.37191500000000  2.82178500000000 -1.48877500000000
 1 -10.50517200000000  2.36302000000000 -2.74405200000000
 1  8.34245500000000 -0.54735000000000  0.09055600000000
 1 -8.21890200000000  0.68334000000000 -0.04081400000000
 1  8.11395700000000  2.94229500000000  1.64933700000000
 1  6.61815500000000  3.34500600000000  0.81201600000000
 1  8.13564900000000  3.27337800000000 -0.07689200000000
 1 -8.44537500000000 -2.80737500000000 -1.59744300000000
 1 -8.47674900000000 -3.13491700000000  0.12965300000000
 1 -6.99512100000000 -3.38877000000000 -0.78546500000000
 1  6.12370300000000 -0.30779700000000  0.09629400000000
 1 -6.04608400000000  0.17437400000000 -0.08423800000000
 1  4.80385400000000  2.44353900000000  0.60010000000000
 1 -5.08084700000000 -2.71795900000000 -0.60416400000000
 1  3.76349200000000 -0.36218100000000  0.03953800000000
 1 -3.68067000000000 -0.05908500000000 -0.06823900000000
 1  2.68848500000000  3.00153600000000  1.55923600000000
 1  1.18146400000000  3.03974500000000  0.64184900000000
 1  2.72170700000000  3.33199200000000 -0.16839400000000
 1 -3.04216800000000 -3.50892500000000 -1.59697300000000
 1 -3.08632700000000 -3.83304000000000  0.13144300000000
 1 -1.54265600000000 -3.75179100000000 -0.70894300000000
 1  0.28907600000000  1.05312600000000  0.24280600000000
 1 -1.46726900000000 -0.06155400000000 -0.01601400000000
 1  2.06697500000000 -1.44062300000000 -0.19441000000000
 1  0.13453600000000 -2.66908800000000 -0.47136200000000

