%nproc=10
%mem=10GB
# wB97XD/Def2TZVP iop(3/107=0118700000,3/108=0118700000)

TITLE

1 2
 6  12.01850800000000  0.50867500000000 -0.79660300000000
 6 -12.01731700000000 -0.01875200000000  0.87786400000000
 6  13.31952400000000 -0.30700600000000 -0.69808800000000
 6 -12.87604200000000  1.18475400000000  1.30241400000000
 6  13.06767800000000 -1.79884800000000 -0.55325600000000
 6 -13.31381100000000  2.03989600000000  0.12528600000000
 6  10.98584900000000  0.02719300000000  0.23736800000000
 6 -10.93448600000000  0.41205800000000 -0.12836100000000
 6  12.29139700000000 -2.05613300000000  0.72876200000000
 6 -12.09097800000000  2.58753500000000 -0.59635400000000
 6  11.13493100000000 -1.11020500000000  0.94126200000000
 6 -10.98965600000000  1.57419500000000 -0.80566700000000
 6  11.41488100000000  0.37788200000000 -2.20792900000000
 6  12.38234900000000  1.98654300000000 -0.55998300000000
 6 -12.90986100000000 -1.10439300000000  0.24456100000000
 6 -11.36567300000000 -0.59628200000000  2.14650100000000
 6  9.80806500000000  0.89946300000000  0.39391400000000
 6 -9.85647000000000 -0.57433300000000 -0.31395000000000
 6  10.20798100000000 -1.55987400000000  2.03892400000000
 6 -9.98251800000000  2.00338500000000 -1.83915100000000
 6  8.53247400000000  0.49588300000000  0.29595200000000
 6 -8.54005800000000 -0.32701600000000 -0.24353000000000
 6  7.35099300000000  1.33458200000000  0.43326900000000
 6 -7.47225100000000 -1.30327300000000 -0.40070000000000
 6  7.55044500000000  2.79625700000000  0.71804100000000
 6 -7.85314800000000 -2.72996500000000 -0.67821700000000
 6  6.13463600000000  0.75321200000000  0.29641200000000
 6 -6.19135900000000 -0.87529200000000 -0.28835400000000
 6  4.84131900000000  1.37578100000000  0.39062100000000
 6 -4.98567600000000 -1.65080400000000 -0.40518000000000
 6  3.68558000000000  0.69476500000000  0.23582800000000
 6 -3.75254200000000 -1.11674000000000 -0.27482100000000
 6  2.35536400000000  1.26024500000000  0.31766400000000
 6 -2.49303800000000 -1.82510900000000 -0.37857800000000
 6  2.22887300000000  2.73438100000000  0.59795000000000
 6 -2.53437000000000 -3.30188200000000 -0.65707300000000
 6  1.22780200000000  0.51838200000000  0.15239600000000
 6 -1.34454900000000 -1.11704400000000 -0.21890500000000
 6  1.13909200000000 -0.89068700000000 -0.11903900000000
 6  0.00215200000000 -1.61223600000000 -0.28214000000000
 1  13.88751100000000  0.03804000000000  0.17247600000000
 1  13.93511900000000 -0.09759000000000 -1.57693200000000
 1 -12.29312900000000  1.80534700000000  1.99097700000000
 1 -13.74146100000000  0.82244500000000  1.86408000000000
 1  14.01086000000000 -2.34891700000000 -0.54286400000000
 1  12.49936100000000 -2.16923700000000 -1.41033000000000
 1 -13.95137700000000  2.85952000000000  0.46324600000000
 1 -13.91407800000000  1.44544200000000 -0.56810100000000
 1  12.96283300000000 -1.98344000000000  1.59411800000000
 1  11.90880600000000 -3.08184000000000  0.74579200000000
 1 -11.67369300000000  3.43199700000000 -0.03215300000000
 1 -12.37979400000000  3.00290800000000 -1.56606700000000
 1  11.19538500000000 -0.66176100000000 -2.45460400000000
 1  12.10720300000000  0.76920600000000 -2.95751900000000
 1  10.48094300000000  0.93692600000000 -2.28371000000000
 1  12.68589800000000  2.15766900000000  0.47497600000000
 1  11.55584200000000  2.65893300000000 -0.79233600000000
 1  13.21766100000000  2.26512400000000 -1.20627800000000
 1 -13.42263500000000 -0.73421300000000 -0.64358100000000
 1 -13.66303300000000 -1.44031300000000  0.96155200000000
 1 -12.32823700000000 -1.97873500000000 -0.05164100000000
 1 -10.66374700000000  0.11639800000000  2.58336800000000
 1 -10.81914100000000 -1.51782900000000  1.94311000000000
 1 -12.13349700000000 -0.81913000000000  2.89135700000000
 1  10.00574700000000  1.95395800000000  0.55396600000000
 1 -10.17958300000000 -1.60133500000000 -0.45791900000000
 1  9.54136100000000 -0.77275200000000  2.38235100000000
 1  10.79536500000000 -1.91577200000000  2.89050900000000
 1  9.59306600000000 -2.40450200000000  1.71297000000000
 1 -9.31808100000000  1.19931900000000 -2.14439600000000
 1 -9.36487300000000  2.82570200000000 -1.46353900000000
 1 -10.49729700000000  2.38310300000000 -2.72582600000000
 1  8.34189000000000 -0.55235900000000  0.08589000000000
 1 -8.21844500000000  0.68934200000000 -0.03786100000000
 1  8.10734700000000  2.93457200000000  1.64795000000000
 1  6.61295100000000  3.33839500000000  0.80735400000000
 1  8.13315900000000  3.26628600000000 -0.07821700000000
 1 -8.44065200000000 -2.80007400000000 -1.59694900000000
 1 -8.47223500000000 -3.12682700000000  0.13043600000000
 1 -6.98985300000000 -3.38135600000000 -0.78453300000000
 1  6.12145400000000 -0.31401100000000  0.09023200000000
 1 -6.04369600000000  0.18243700000000 -0.08551100000000
 1  4.80095900000000  2.43845700000000  0.59487100000000
 1 -5.07777900000000 -2.71087600000000 -0.60734600000000
 1  3.76204700000000 -0.36717600000000  0.03214600000000
 1 -3.67878900000000 -0.05135000000000 -0.07210100000000
 1  2.69163600000000  2.99596300000000  1.55314400000000
 1  1.18396000000000  3.03829300000000  0.63571400000000
 1  2.72559600000000  3.32731300000000 -0.17448600000000
 1 -3.04579900000000 -3.49998400000000 -1.60218100000000
 1 -3.08863900000000 -3.82448600000000  0.12629800000000
 1 -1.54510100000000 -3.74673300000000 -0.71596600000000
 1  0.28817300000000  1.05252500000000  0.23563600000000
 1 -1.46426400000000 -0.05717900000000 -0.02212400000000
 1  2.06743700000000 -1.44199300000000 -0.20349200000000
 1  0.13280900000000 -2.66901800000000 -0.48060600000000

