%nproc=4
%Mem=2GB
# td(NStates=1) B3LYP/SVP nosymm

phycocyanobilin-abs Single Point

0 1
O  -4.42948102  -4.77280529   1.85555295
O   2.99165638  -4.90182242   1.10507825
O   6.89019979  -1.51920472   2.07684952
O   3.68928988  -3.07143349   0.00534540
O   7.67451582  -0.47520607   0.15445051
O  -2.99272238   2.53275415  -0.23247936
N  -0.34121010  -0.54781198  -0.55096184
N   1.62779180   1.75693877  -0.46372327
N  -3.36928185  -3.16237972   0.51319194
N  -0.68258810   2.87804304  -0.07033378
C   0.63433547  -2.42823061  -1.36008968
C   0.84586555  -1.13900887  -0.95893321
C  -0.79744572  -2.68210530  -1.30985547
C  -1.33433357  -1.47251364  -0.69328659
C   3.76024665   1.36444354  -0.34959993
C   2.43670107   0.75433308  -0.62971523
C   2.12885211  -0.50174180  -0.87456989
C   3.62235138   2.70266721  -0.08118010
C   1.60125683  -3.46443476  -1.91170257
C  -5.48315040  -2.61381366   1.41080415
C  -3.60981769  -1.74071607   0.12679948
C   2.14159669   2.93991029  -0.14197196
C  -5.05403799  -1.47310988   0.51162900
C   5.10125675   0.61699821  -0.53052285
C  -2.64365181  -1.04622052  -0.49320533
C  -1.48109103  -3.97160773  -1.79901583
C  -4.38932220  -3.68089866   1.36605088
C   2.00057795  -4.61538149  -1.01704087
C   5.34307862  -0.14284140   0.82770033
C   4.64398935   3.66462249   0.44488964
C   1.36119188   4.13529530   0.04912389
C  -6.90706308  -3.23140370   1.17956126
C  -5.89489313  -0.59632969   0.07338582
C  -0.00583371   4.06184202   0.15508342
C  -0.91225582   5.27763069   0.51861054
C  -2.17287722   4.78329405   0.33432305
C   2.98038564  -4.13707952   0.07328560
C  -5.63094150   0.47936999  -1.12577045
C   6.78178709  -0.59888812   0.99056051
C  -3.56123946   5.43492410   0.46892387
C  -2.07995640   3.22875238  -0.03948279
C  -0.56017362   6.61242779   0.86666474
C  -4.12515192   5.74647226  -0.98116398
H  -0.51845522   0.32205698  -0.20237683
H   2.89117661  -1.29962630  -0.88810541
H   2.48925224  -2.84649761  -2.16144652
H   1.21605765  -3.90080452  -2.78580250
H  -5.45924784  -2.37591072   2.58242192
H   4.86935508  -0.07782951  -1.38505631
H   5.93068117   1.41746279  -0.75135479
H  -2.92927018   0.09423423  -0.65825018
H   0.53674098   1.64539449  -0.57289360
H  -1.54637185  -4.77113921  -1.08105425
H  -2.72548661  -3.70440816  -2.12271991
H  -1.11911128  -4.22973641  -2.59938905
H  -2.43727643  -3.55483391   0.29187850
H   1.19867835  -5.10142223  -0.60069062
H   2.64497714  -5.31462746  -1.56247760
H   4.75816336  -1.03435512   1.19115071
H   5.06777683   0.40241137   1.66952618
H   4.53532672   4.58851757  -0.23259904
H   5.73092937   3.07228265   0.47202460
H   4.44341764   3.91662662   1.47610043
H   1.82349977   4.91066470   0.32761020
H  -7.54827118  -2.44191893   0.90697877
H  -7.19632372  -3.83146345   1.93916491
H  -6.81846183  -3.86405773   0.27345900
H  -6.80489976  -0.64936580   0.32904587
H  -5.02879710   1.34998508  -0.62548059
H  -6.51975569   0.85792567  -1.59754665
H  -4.87453580   0.18726436  -1.74990873
H  -3.50996344   6.38820435   1.13365601
H  -4.32877982   4.60956265   0.83492445
H   0.15616428   6.58254203   1.72648685
H  -1.40798199   7.11568368   0.90579064
H  -0.27728983   7.22483124  -0.03985014
H  -3.55235832   6.44014505  -1.30501997
H  -5.33606125   5.98554886  -1.03297849
H  -4.08248979   4.85033374  -1.56842538
H   3.69694098  -4.75632542   1.63227487
H   8.06784583  -1.39902353   1.69318805




