%CPU=0-6
%Mem=7GB
%Chk=b-carotene-charged-tunado.chk
# wB97XD/Def2TZVP iop(3/107=0106300000,3/108=0106300000) opt

b-carotene-charged-tunado

0 1
C         12.02001        0.50659       -0.80184
C        -12.01991       -0.01520        0.87837
C         13.32099       -0.31078       -0.70494
C        -12.87774        1.19077        1.30044
C         13.06842       -1.80256       -0.55588
C        -13.31502        2.04444        0.12148
C         10.98823        0.02730        0.23539
C        -10.93626        0.41239       -0.12976
C         12.29403       -2.05661        0.72846
C        -12.09170        2.58842       -0.60307
C         11.13838       -1.10914        0.94160
C        -10.99130        1.57307       -0.81063
C         11.41304        0.37473       -2.21253
C         12.38655        1.98504       -0.56763
C        -12.91413       -1.10202        0.24744
C        -11.36848       -0.59045        2.14913
C          9.81133        0.90080        0.39273
C         -9.85928       -0.57556       -0.31380
C         10.21388       -1.55550        2.04335
C         -9.98523        1.99808       -1.84757
C          8.53423        0.49890        0.29734
C         -8.54165       -0.33040       -0.24414
C          7.35388        1.33842        0.43524
C         -7.47509       -1.30754       -0.40054
C          7.55370        2.80066        0.71957
C         -7.85637       -2.73459       -0.67849
C          6.13609        0.75721        0.29930
C         -6.19286       -0.88020       -0.28742
C          4.84335        1.37924        0.39384
C         -4.98774       -1.65535       -0.40337
C          3.68640        0.69798        0.23966
C         -3.75338       -1.12141       -0.27243
C          2.35651        1.26222        0.32154
C         -2.49418       -1.82890       -0.37538
C          2.22764        2.73682        0.60151
C         -2.53341       -3.30633       -0.65371
C          1.22827        0.51892        0.15648
C         -1.34514       -1.11940       -0.21513
C          1.13905       -0.88934       -0.11427
C          0.00149       -1.61228       -0.27747
H         13.89183        0.03562        0.16296
H         13.93450       -0.10427       -1.58574
H        -12.29445        1.81204        1.98775
H        -13.74354        0.83089        1.86280
H         14.01136       -2.35294       -0.54567
H         12.49880       -2.17501       -1.41098
H        -13.95051        2.86602        0.45842
H        -13.91738        1.45000       -0.56983
H         12.96720       -1.98317        1.59227
H         11.91087       -3.08196        0.74800
H        -11.67302        3.43409       -0.04191
H        -12.38114        3.00140       -1.57350
H         11.19064       -0.66464       -2.45708
H         12.10454        0.76301       -2.96425
H         10.48040        0.93570       -2.28763
H         12.69312        2.15703        0.46613
H         11.56048        2.65826       -0.79837
H         13.22033        2.26210       -1.21631
H        -13.42559       -0.73394       -0.64216
H        -13.66843       -1.43465        0.96456
H        -12.33388       -1.97813       -0.04561
H        -10.66639        0.12267        2.58463
H        -10.82247       -1.51262        1.94812
H        -12.13624       -0.81130        2.89444
H         10.01052        1.95516        0.55060
H        -10.18386       -1.60217       -0.45577
H          9.54736       -0.76773        2.38503
H         10.80317       -1.90712        2.89529
H          9.59915       -2.40207        1.72244
H         -9.32068        1.19309       -2.14959
H         -9.36782        2.82273       -1.47704
H        -10.50109        2.37279       -2.73566
H          8.34230       -0.54912        0.08852
H         -8.21879        0.68554       -0.03939
H          8.11137        2.93944        1.64883
H          6.61639        3.34269        0.80982
H          8.13517        3.27084       -0.07735
H         -8.44348       -2.80464       -1.59736
H         -8.47541       -3.13185        0.12984
H         -6.99327       -3.38603       -0.78480
H          6.12298       -0.30994        0.09357
H         -6.04530        0.17738       -0.08459
H          4.80289        2.44179        0.59777
H         -5.07978       -2.71526       -0.60540
H          3.76302       -0.36385        0.03626
H         -3.68003       -0.05614       -0.06982
H          2.68967        2.99957        1.55663
H          1.18243        3.03929        0.63919
H          2.72320        3.33048       -0.17097
H         -3.04363       -3.50556       -1.59911
H         -3.08712       -3.82977        0.12935
H         -1.54359       -3.74976       -0.71188
H          0.28884        1.05309        0.23972
H         -1.46623       -0.05979       -0.01865
H          2.06712       -1.44096       -0.19845
H          0.13386       -2.66884       -0.47536

--Link1--

%CPU=0-6
%Mem=7GB
%OldChk=b-carotene-charged-tunado.chk
%Chk=b-carotene-charged-tunado-sp.chk
# wB97XD/Def2TZVP iop(3/107=0106300000,3/108=0106300000) Geom=Checkpoint Guess=Read

b-carotene-charged-tunado-sp

0 1

