%nproc=4
%Mem=2GB
# td(NStates=1) B3LYP/SVP nosymm

chlorophyll-a-abs Single Point

0 1
Mg  -7.08860000   0.68991100   0.13458000
C  -4.97277000  -2.03345900   0.51824000
C  -4.63085000   2.72090100   1.33787000
C  -9.16247000   3.34820100  -0.31614000
C  -9.59678000  -1.46065900  -0.96522000
N  -5.06727000   0.36497100   0.80857000
C  -4.38373000  -0.82557900   0.85223000
C  -2.94098000  -0.61372000   1.28786000
C  -2.97326000   0.83657000   1.83552000
C  -4.29502000   1.36965100   1.28883000
C  -2.92377000   0.90330000   3.37066000
C  -1.95387000  -0.81547000   0.11932000
C  -0.48916000  -0.76564000   0.55011000
C   0.47639000  -1.01247000  -0.59329000
O   0.16723000  -1.38159000  -1.70074000
O   1.74473000  -0.77691000  -0.21539000
N  -6.91882000   2.69367100   0.44258000
C  -5.83318000   3.34760100   0.93926000
C  -6.09755000   4.77689100   1.01062000
C  -7.38531000   4.96097100   0.53134000
C  -7.89355000   3.63111100   0.18946000
C  -5.15104000   5.80665100   1.54352000
C  -8.15980000   6.19072100   0.39413000
C  -7.69374000   7.44499100   0.25462000
N  -9.04294000   0.90315100  -0.53341000
C  -9.70718000   2.08703100  -0.64871000
C -11.05167000   1.86225100  -1.15412000
C -11.17792000   0.49903100  -1.33353000
C  -9.90425000  -0.08783900  -0.94099000
C -12.06748000   2.93337100  -1.41405000
C -12.36202000  -0.25535900  -1.87199000
C -12.30578000  -0.50279900  -3.38945000
N  -7.29240000  -1.29590900  -0.16911000
C  -8.37689000  -2.04895900  -0.60599000
C  -8.03116000  -3.46187900  -0.62452000
C  -6.70930000  -3.50587900  -0.18823000
C  -6.31022000  -2.16480900   0.07339000
C  -8.91093000  -4.60304900  -1.02540000
C  -5.58982000  -4.39947900   0.10244000
O  -5.51260000  -5.60500900   0.05120000
C  -4.38193000  -3.44090900   0.52961000
C  -3.80367000  -3.90024000   1.85598000
O  -4.04946000  -3.42014900   2.93741000
O  -2.98188000  -4.94616000   1.67797000
C  -2.46825000  -5.56039000   2.85889000
C   2.76931000  -1.01678000  -1.20630000
C   4.09438000  -0.71760000  -0.58384000
C   5.07405000   0.06598000  -1.07188000
C   4.98831000   0.82697000  -2.37236000
C   6.37519000   0.21402000  -0.30995000
C   7.60529000  -0.38600000  -1.01615000
C   8.88736000  -0.25128000  -0.18735000
C  10.18060000  -0.74072000  -0.86927000
C  10.14023000  -2.24624000  -1.16762000
C  11.40645000  -0.34989000  -0.01957000
C  12.77363000  -0.57490000  -0.67596000
C  13.94008000  -0.08178000   0.18832000
C  15.34092000  -0.19302000  -0.44621000
C  15.74067000  -1.65152000  -0.71124000
C  16.37757000   0.54173000   0.42699000
C  17.77649000   0.69499000  -0.18146000
C  18.72200000   1.52518000   0.69439000
C  20.17262000   1.64216000   0.18885000
C  20.27367000   2.36676000  -1.16035000
C  21.05728000   2.32749000   1.23857000
H  -3.85913000   3.38017000   1.73938000
H  -9.82101000   4.20331100  -0.47412000
H -10.38735000  -2.13507900  -1.30058000
H  -2.69133000  -1.32514000   2.09128000
H  -2.13908000   1.43432000   1.43191000
H  -1.96696000   0.50542000   3.74575000
H  -3.02739000   1.93826000   3.73188000
H  -3.73508000   0.30461000   3.81448000
H  -2.14054000  -1.78335000  -0.36963000
H  -2.14098000  -0.05382000  -0.65637000
H  -0.21969000   0.19642000   1.01605000
H  -0.28147000  -1.52905000   1.32171000
H  -4.53102000   6.25410100   0.74587000
H  -5.69695000   6.63101100   2.02749000
H  -4.46122000   5.37888100   2.28634000
H  -9.24813000   6.06131100   0.39959000
H  -8.38483000   8.28774100   0.17051000
H  -6.62851000   7.67607100   0.19410000
H -11.74597000   3.61512100  -2.22033000
H -13.03603000   2.50796100  -1.71396000
H -12.24333000   3.55576100  -0.52045000
H -12.45499000  -1.22280900  -1.35012000
H -13.28526000   0.29757100  -1.63200000
H -13.19199000  -1.06110900  -3.73267000
H -12.26685000   0.44792100  -3.94444000
H -11.41072000  -1.08186900  -3.66679000
H  -9.24989000  -4.50678900  -2.07095000
H  -8.37035000  -5.55439900  -0.92681000
H  -9.81686000  -4.65617900  -0.39806000
H  -3.60349000  -3.59519000  -0.23688000
H  -1.88187000  -4.84271000   3.45303000
H  -3.28723000  -5.94398000   3.48593000
H  -1.83138000  -6.38705000   2.52097000
H   2.69900000  -2.07387000  -1.51919000
H   2.55539000  -0.41088000  -2.09819000
H   4.26409000  -1.22362000   0.37406000
H   3.97558000   0.84739000  -2.79674000
H   5.31956000   1.86989000  -2.22988000
H   5.65510000   0.38954000  -3.13530000
H   6.56284000   1.29001000  -0.12983000
H   6.27039000  -0.25325000   0.68331000
H   7.39837000  -1.44677000  -1.23707000
H   7.75577000   0.10756000  -1.99285000
H   9.01722000   0.81235000   0.08358000
H   8.76158000  -0.78934000   0.77163000
H  10.26593000  -0.20604000  -1.83603000
H   9.28553000  -2.51540000  -1.80679000
H  11.04894000  -2.58482000  -1.68800000
H  10.05454000  -2.82814000  -0.23309000
H  11.31859000   0.71907000   0.24725000
H  11.36674000  -0.89966000   0.94033000
H  12.90553000  -1.64533000  -0.90260000
H  12.79831000  -0.05257000  -1.65108000
H  13.75920000   0.97705000   0.44857000
H  13.93831000  -0.62846000   1.15083000
H  15.30273000   0.32992000  -1.42236000
H  15.79500000  -2.22021000   0.23378000
H  15.01829000  -2.16246000  -1.36592000
H  16.72400000  -1.72437000  -1.20025000
H  15.98604000   1.54927000   0.65760000
H  16.45646000   0.02371000   1.40206000
H  18.22894000  -0.29828000  -0.34955000
H  17.68142000   1.15800000  -1.17974000
H  18.30519000   2.54278000   0.82274000
H  18.74070000   1.08232000   1.70709000
H  20.55702000   0.61336000   0.04745000
H  19.87760000   3.39477000  -1.08513000
H  21.32189000   2.43970000  -1.49327000
H  19.71242000   1.85030000  -1.95433000
H  21.03274000   1.79060000   2.20096000
H  22.10786000   2.37859000   0.90907000
H  20.71799000   3.36107000   1.42646000




