%NProcShared=6
%Chk=b-carotene-s0-geom.chk
%Mem=6GB
#n B3LYP/6-31G(d,p) Opt Freq=savenormalmodes

 b-caroten-s0-geom

0 1
C         11.93974       -0.52702        0.73751
C        -11.92811        0.12698       -0.88726
C         13.24366        0.26622        0.69407
C        -12.78026       -1.02181       -1.42032
C         13.01201        1.75878        0.63128
C        -13.26002       -1.94526       -0.32448
C         10.93814        0.01660       -0.27792
C        -10.89146       -0.38739        0.10957
C         12.26538        2.09420       -0.64034
C        -12.06883       -2.56858        0.36982
C         11.10294        1.18109       -0.91021
C        -10.97014       -1.59047        0.68486
C         11.32459       -0.45834        2.13411
C         12.27651       -1.98565        0.43428
C        -12.82008        1.16844       -0.21140
C        -11.23348        0.78212       -2.07771
C          9.75440       -0.83463       -0.50318
C         -9.80928        0.56975        0.40343
C         10.19037        1.70416       -1.97701
C         -9.99579       -2.11226        1.69653
C          8.49724       -0.43289       -0.34677
C         -8.50851        0.31441        0.31075
C          7.30330       -1.25145       -0.54866
C         -7.42784        1.26341        0.57080
C          7.50301       -2.67134       -0.97109
C         -7.80911        2.64763        0.98693
C          6.10685       -0.68842       -0.34539
C         -6.16596        0.84476        0.42149
C          4.80407       -1.30280       -0.48607
C         -4.95057        1.60427        0.62182
C          3.66927       -0.64058       -0.25667
C         -3.73810        1.08018        0.44009
C          2.33045       -1.20055       -0.38174
C         -2.46815        1.77144        0.61853
C          2.22070       -2.63318       -0.80233
C         -2.52090        3.20298        1.04721
C          1.21843       -0.49162       -0.13893
C         -1.33733        1.08963        0.38962
C          1.13799        0.89360        0.27456
C          0.01633        1.58558        0.50672
H         13.81313       -0.03751       -0.19253
H         13.85113       -0.00369        1.56391
H        -12.18166       -1.60214       -2.13234
H        -13.62233       -0.60761       -1.98432
H         13.96075        2.30039        0.67162
H         12.43004        2.08462        1.49881
H        -13.91264       -2.72222       -0.73146
H        -13.85869       -1.38641        0.40120
H         12.94754        2.04976       -1.49990
H         11.90004        3.12686       -0.61347
H        -11.64804       -3.36762       -0.25539
H        -12.38186       -3.06050        1.29651
H         11.13753        0.57235        2.44190
H         11.99016       -0.91891        2.86988
H         10.36926       -0.98668        2.16305
H         12.59550       -2.11217       -0.60379
H         11.43167       -2.65205        0.61784
H         13.09541       -2.31568        1.07909
H        -13.37499        0.74334        0.62673
H        -13.54023        1.57323       -0.92821
H        -12.23698        2.00830        0.17296
H        -10.52741        0.09290       -2.54721
H        -10.67901        1.67658       -1.78794
H        -11.97358        1.07465       -2.82790
H          9.94237       -1.86828       -0.78134
H        -10.12403        1.57845        0.66300
H          9.50041        0.95167       -2.35249
H         10.78417        2.08315       -2.81480
H          9.60043        2.54989       -1.60896
H         -9.30934       -1.35034        2.05771
H         -9.40103       -2.93109        1.27758
H        -10.53431       -2.52865        2.55285
H          8.31699        0.59398       -0.03537
H         -8.19500       -0.68149        0.00543
H          8.04855       -2.71722       -1.91740
H          6.56613       -3.20911       -1.09871
H          8.10075       -3.21070       -0.23120
H         -8.40702        2.62277        1.90188
H         -8.42207        3.12480        0.21719
H         -6.94680        3.28542        1.16833
H          6.09238        0.35566       -0.03793
H         -6.01637       -0.18821        0.11244
H          4.76032       -2.34254       -0.79103
H         -5.03929        2.63989        0.93174
H          3.74836        0.39857        0.04676
H         -3.66761        0.03943        0.12854
H          2.68150       -2.79344       -1.78113
H          1.17847       -2.94637       -0.86407
H          2.73139       -3.29234       -0.09466
H         -3.04133        3.29663        2.00410
H         -3.07672        3.79995        0.31922
H         -1.53511        3.64786        1.15944
H          0.27425       -1.01182       -0.26532
H         -1.45055        0.05428        0.08273
H          2.07304        1.42557        0.41113
H          0.13584        2.61951        0.81189

