%NProcShared=4
%Chk=b-carotene-s0-geom.chk
#n B3LYP/6-31G(d) Opt

 b-caroten-s0-geom

0 1
C         12.33307       -0.53996        0.55125
C        -12.31034        0.17886       -0.70080
C         13.57772        0.39434        0.49415
C        -13.26945       -0.96279       -1.14409
C         13.20110        1.82627        0.79916
C        -13.53639       -1.92487       -0.00868
C         11.09822        0.07641       -0.16879
C        -11.08131       -0.35909        0.08150
C         12.27863        2.32368       -0.30814
C        -12.22639       -2.61102        0.36157
C         11.12667        1.38300       -0.61735
C        -11.06470       -1.65186        0.57263
C         11.94298       -0.82722        2.01995
C         12.78492       -1.87057       -0.10326
C        -13.06567        1.20160        0.18309
C        -11.86586        0.88966       -2.00328
C          9.89516       -0.82824       -0.31080
C         -9.95293        0.62709        0.25815
C         10.08165        2.01475       -1.51578
C         -9.96531       -2.25080        1.42979
C          8.60876       -0.41767       -0.28757
C         -8.63921        0.31894        0.23746
C          7.40264       -1.30751       -0.38212
C         -7.50914        1.29901        0.36516
C          7.49545       -2.80749       -0.59946
C         -7.72470        2.78132        0.61372
C          6.18829       -0.71439       -0.27018
C         -6.25014        0.80784        0.25426
C          4.88747       -1.43479       -0.34166
C         -5.01379        1.62938        0.35482
C          3.72713       -0.76134       -0.21802
C         -3.80315        1.05348        0.23424
C          2.35258       -1.37490       -0.27344
C         -2.48305        1.76308        0.31392
C          2.13904       -2.86207       -0.48965
C         -2.37054        3.25954        0.54307
C          1.22058       -0.63463       -0.13399
C         -1.36395        1.00921        0.17140
C          1.15768        0.84120        0.08939
C          0.02343        1.55863        0.22369
H         14.02545        0.39044       -0.52660
H         14.36115        0.03316        1.19660
H        -12.81434       -1.55639       -1.97027
H        -14.22126       -0.53663       -1.53139
H         14.10154        2.47666        0.83756
H         12.69886        1.88660        1.78630
H        -14.27645       -2.69772       -0.30924
H        -13.95378       -1.38151        0.86336
H         12.84821        2.48026       -1.25048
H         11.88912        3.31032        0.02528
H        -11.91998       -3.33425       -0.42530
H        -12.43380       -3.19222        1.28665
H         11.61014        0.09203        2.54321
H         12.80180       -1.25686        2.57938
H         11.10772       -1.55816        2.07115
H         13.02871       -1.71408       -1.17629
H         12.02632       -2.67292       -0.03147
H         13.69195       -2.26488        0.40526
H        -13.39347        0.75056        1.14130
H        -13.96343        1.58751       -0.34622
H        -12.43229        2.07676        0.43282
H        -11.29884        0.19102       -2.65598
H        -11.21909        1.76793       -1.79918
H        -12.74819        1.25957       -2.56989
H         10.08249       -1.88223       -0.33945
H        -10.23821        1.66261        0.31021
H          9.33885        1.31661       -1.93698
H         10.59055        2.42835       -2.41208
H          9.57440        2.84815       -0.98592
H         -9.20093       -1.54792        1.79342
H         -9.48752       -3.09882        0.89597
H        -10.41545       -2.63772        2.36831
H          8.40861        0.63708       -0.14538
H         -8.35696       -0.71286        0.06736
H          8.52011       -3.20018       -0.69748
H          6.96585       -3.07945       -1.53695
H          7.02411       -3.33804        0.25473
H         -8.77894        3.08707        0.70774
H         -7.28949        3.36719       -0.22331
H         -7.22809        3.07396        1.56297
H          6.14551        0.36199       -0.11690
H         -6.11836       -0.25794        0.07906
H          4.89957       -2.50068       -0.49326
H         -5.10965        2.68890        0.52499
H          3.81822        0.30409       -0.06790
H         -3.77841       -0.02100        0.06404
H          3.05883       -3.45699       -0.60361
H          1.53679       -3.01921       -1.40997
H          1.58437       -3.28570        0.37479
H         -3.33480        3.78263        0.64587
H         -1.84202        3.72895       -0.31342
H         -1.80090        3.45176        1.47679
H          0.28435       -1.17479       -0.19074
H         -1.49548       -0.05237        0.01041
H          2.06942        1.41687        0.15579
H          0.15492        2.62394        0.38210

