%nproc=4
%Mem=2GB
# td=(NStates=1) B3LYP/SVP 

TD

0 1
 8 -4.17673918471847 -5.01775614681468  1.77314134253425
 8  2.94202823152315 -4.86489779657966  0.94956909420942
 8  6.87309361366137 -1.76199346904691  1.76562924242424
 8  3.75685074257426 -3.16867489248925 -0.13003634303430
 8  7.56581611821182 -0.50414030913091 -0.07455348804880
 8 -3.03864945104510  2.41811986278628 -0.50028158955896
 7 -0.22319931463146 -0.59718391149115 -0.50832784568457
 7  1.52112060476048  1.83707413991399 -0.25411698929893
 7 -3.32963495249525 -3.21784289728973  0.63672999159916
 7 -0.78548704440444  2.93511466086609  0.05819197339734
 6  0.68217048134813 -2.33507146554655 -1.56013830893089
 6  0.91714461676168 -1.03294052575258 -0.98777762666267
 6 -0.66033016171617 -2.61430979317932 -1.34997706040604
 6 -1.28665908790879 -1.42923323472347 -0.74623375337534
 6  3.81986044684468  1.52080524702470 -0.13294756155616
 6  2.50198230403040  0.91842366786679 -0.47860204520452
 6  2.27259250945095 -0.38167542544254 -0.84236371097110
 6  3.57815845594559  2.79185898809881  0.35419340964096
 6  1.62335374047405 -3.32655435673567 -2.13773111871187
 6 -5.40110901760176 -2.75571118601860  1.51879914421442
 6 -3.62266612591259 -1.89639461536154  0.24435036683668
 6  2.06163047514751  3.01973196739674  0.29084670807081
 6 -5.00383307960796 -1.54653361726173  0.59876392029203
 6  5.17509277117712  0.89290420732073 -0.30856981568157
 6 -2.54993980968097 -1.04551310671067 -0.35676215001500
 6 -1.41693135523552 -3.84835458855886 -1.73278359515952
 6 -4.29192886128613 -3.85322955475548  1.39251437703770
 6  1.99622075577558 -4.55574459815982 -1.14854408120812
 6  5.37136593899390 -0.11419954345435  0.81382392959296
 6  4.52028809010901  3.93696654595460  0.67970017031703
 6  1.29952863126313  4.19349389968997  0.35817753835384
 6 -6.79306395699570 -3.37554233403340  1.13813287538754
 6 -5.80327990859086 -0.56810259425943  0.22138930583058
 6 -0.10667858715872  4.08643689348935  0.30652246414641
 6 -1.10173527212721  5.31250878457846  0.48675714121412
 6 -2.35751522522252  4.72707420882088  0.15457136313631
 6  2.96466304830483 -4.08651132133213 -0.13754606540654
 6 -5.40122383188319  0.57752304090409 -0.68848031283128
 6  6.74727460646065 -0.81850732033203  0.85576647484748
 6 -3.70094763766377  5.35063612211221  0.03382789348935
 6 -2.18831838343834  3.22380734173417 -0.09526529632963
 6 -0.72804339543954  6.75057072707271  0.61651070267027
 6 -4.36097566016602  5.30896685338534 -1.36253534503450
 1 -0.37174875977598  0.28736560236024  0.21447170747075
 1  3.19597695869587 -0.94272241344134 -0.92775286268627
 1  2.61888176947695 -2.92381397799780 -2.50049659675968
 1  1.22719372557256 -3.64698880978098 -3.20766912701270
 1 -5.63586531383138 -2.44646327102710  2.65913645354535
 1  5.48737124962496  0.43251263266327 -1.25923627092709
 1  5.77050561796180  1.72310183828383 -0.04360793539354
 1 -2.88034425212521 -0.02968517821782 -0.66733713121312
 1  0.43127035763576  2.11593143704370 -0.35215266076608
 1 -1.49160389618962 -4.83012758325833 -1.17239674947495
 1 -2.47302741374137 -3.56314690109011 -1.91112924602460
 1 -0.98988416831683 -4.22349941874187 -2.53960955025503
 1 -2.31097348364837 -3.48599833053305  0.51993465866587
 1  1.12644347364736 -5.28408110641064 -0.84569995989599
 1  2.41746785118512 -5.06365047194720 -1.89721510341034
 1  4.54094932793279 -0.84949611301130  0.94667440354035
 1  5.47850219561956  0.47707374607461  1.84294209730973
 1  4.05005553115312  4.73839425582558  0.26693532173217
 1  5.61510460216022  3.70473800700070  0.46792258185819
 1  4.50746777937794  4.12309778187819  1.79347506440644
 1  1.75608638723872  5.13802297969797  0.79387046224622
 1 -7.58711027932793 -2.68666374987499  1.38188945854585
 1 -6.88637270117012 -4.38755513761376  1.57461330173017
 1 -6.83876957395740 -3.61837925402540  0.07078916731673
 1 -6.78282280458046 -0.60971187968797  0.76461446254625
 1 -4.91831080318032  1.52137695859586 -0.08327558885889
 1 -6.27758613601360  1.16021509650965 -1.14924924102410
 1 -4.73330264226423  0.33961412361236 -1.40892765756576
 1 -3.76990897639764  6.34014841994200  0.48569544604460
 1 -4.39774121232123  4.72186451835184  0.75860188648865
 1 -0.17701684618462  6.87396796219622  1.72452229382938
 1 -1.58458456875688  7.47763121782178  0.42573192489249
 1 -0.12078291029103  6.91634392009201 -0.39759880278028
 1 -3.78356626362636  5.81501912761276 -2.19800400290029
 1 -5.37656036323632  5.73970708680868 -1.34252412961296
 1 -4.38067154405441  4.35248541884189 -1.83967347534753
 1  3.59621802230223 -4.63793000550055  1.50436121852185
 1  7.92335035963596 -1.92188157715772  1.45603298629863

