%nproc=4
%Mem=2GB
# td=(NStates=1) B3LYP/SVP 

TD

0 1
 8 -4.34859637043704 -4.95981035223522  1.93645767416742
 8  2.92034606330633 -4.84134544134413  1.15907004430443
 8  6.94126043034303 -1.59104637433743  1.84353703320332
 8  3.83333839133913 -3.13522154715472 -0.05292863226323
 8  7.59003854045405 -0.69434933003300 -0.01802783548355
 8 -3.11184677077708  2.53793184398440 -0.49025058645865
 7 -0.29694668936894 -0.59220341344134 -0.59020603350335
 7  1.55291378407841  1.82832326482648 -0.28436001360136
 7 -3.27281927092709 -3.22252336533653  0.62107842644264
 7 -0.87565606130613  2.82518366776678 -0.07585143094309
 6  0.74205646994699 -2.33173113151315 -1.53286558165817
 6  0.97469037133713 -1.00696792849285 -1.08095694459446
 6 -0.67855198389839 -2.63143150535054 -1.29835189788979
 6 -1.23212363436344 -1.49521983338334 -0.64722385238524
 6  3.79576803760376  1.51250441694169 -0.34664893169317
 6  2.45928803460346  0.89568139363936 -0.57276146114611
 6  2.20422567276728 -0.42963022092209 -0.98116759135914
 6  3.49483012311231  2.82488229042904  0.09310730103010
 6  1.68781018611861 -3.31637333863386 -2.02669001460146
 6 -5.47983689038904 -2.82157777267727  1.25233249754975
 6 -3.51841570087009 -1.93443841974197  0.18828476027603
 6  2.11351566366637  3.00045003920392  0.09481710511051
 6 -4.91064376067607 -1.57386635053505  0.52635667956796
 6  5.12032729462946  0.96961187808781 -0.37647660636064
 6 -2.59137395309531 -1.09208776417642 -0.26248272207221
 6 -1.46361602370237 -3.84767452055206 -1.73116343314331
 6 -4.34817448584859 -3.81154538633863  1.37873299889989
 6  1.99943107680768 -4.54124314801480 -1.00514974177418
 6  5.31221002340234 -0.03235135863586  0.78002054925493
 6  4.51393745504550  3.98930177947795  0.46181838213821
 6  1.14952363076308  4.02742729302930  0.40324204480448
 6 -6.82097674827483 -3.44621940174017  0.86665572767277
 6 -5.66048562916292 -0.55739152315232  0.13230039693969
 6 -0.18417633693369  4.00838908870887  0.34125593749375
 6 -0.97538263686369  5.24906243994399  0.49813827932793
 6 -2.21865133883388  4.72329383078308  0.24323022902290
 6  3.10989757175718 -4.09386205640564  0.07908559775978
 6 -5.55838954845485  0.61504679327933 -0.77059852465247
 6  6.77413729272927 -0.76566203580358  0.79719061726173
 6 -3.61437898079808  5.44345540404040  0.22101661236124
 6 -2.19940949254925  3.29831479247925 -0.08541431123112
 6 -0.62046263736374  6.56334200420042  0.92987203880388
 6 -4.46453601620162  5.47595355205521 -1.04351344284428
 1 -0.39956154105411  0.26800366616662 -0.20725046474647
 1  3.34733209420942 -1.02741088228823 -0.92849293669367
 1  2.65501538283828 -2.74099569616962 -2.30063661076108
 1  1.21194220042004 -3.68015212611261 -3.01226958705871
 1 -5.48117984528453 -2.39132775747575  2.30077061696170
 1  5.61911442394239  0.27848723012301 -1.22939328662866
 1  5.92385095249525  1.84775430353035 -0.32648622322232
 1 -2.69702592029203  0.07623541384138 -0.37115751325132
 1  0.51756898749875  1.93741358525853 -0.69250669616962
 1 -1.27192192799280 -4.99430400090009 -1.30215972577258
 1 -2.55938604960496 -3.66338692509251 -1.77420555365537
 1 -1.34946012591259 -4.00050711951195 -2.78174376367637
 1 -2.17882026832683 -3.45081481218122  0.78264092929293
 1  1.03738456775678 -4.95849854815482 -0.66747213711371
 1  2.50736684108411 -5.05239934683468 -1.88074345624562
 1  4.64150938393839 -0.89581074447445  0.66519625572557
 1  5.19976432183218  0.43623966266627  1.79135693879388
 1  4.34690521612161  5.04120453685369 -0.15837720952095
 1  5.51373446514652  3.73045057825783 -0.17257146754675
 1  4.82385941854185  4.10407587968797  1.53561927882788
 1  1.40779155775577  5.08413759115912  0.65262633783378
 1 -7.67448901720172 -2.73795887938794  1.05332660226023
 1 -7.01311537543754 -4.04901128322832  1.47563340374037
 1 -6.86520221722172 -3.74033144924492 -0.27325523712371
 1 -6.62013653595359 -0.70884179267927  0.55258325942594
 1 -4.70735970807081  1.34618943984398 -0.36544380568057
 1 -6.54602297969797  0.97597667266727 -1.14397871397140
 1 -4.95968528052805  0.25133529572957 -1.53614037883788
 1 -3.45041702720272  6.38483288838884  0.66980385688569
 1 -4.38861029922992  4.91019335123512  0.84974100040004
 1 -0.39730887538754  6.66643720912091  1.95881572317232
 1 -1.50352646294629  7.19302275697570  0.73406275797580
 1  0.26694586258626  6.84937722342234  0.21300225732573
 1 -4.04798270527053  6.04875250095010 -1.99091329382938
 1 -5.52944565176518  5.85767888398840 -1.05753563076308
 1 -4.64157763466347  4.42997316761676 -1.38392790079008
 1  3.66217461796180 -4.57356356885689  1.89884066646665
 1  7.83642166676668 -2.14546393539354  1.94148153115311

