%nproc=4
%Mem=2GB
# td=(NStates=1) B3LYP/SVP 

TD

0 1
 8 -4.11844335513551 -4.80792516371637  1.90241426982698
 8  3.02758678737874 -4.86658796559656  1.00811494879488
 8  7.08964526882688 -1.46327359705971  2.07747042654265
 8  3.72116717421742 -3.19634765976598 -0.17674101350135
 8  7.56016555315532 -0.51404129922992  0.05587955525553
 8 -3.01702728882888  2.38753680448045 -0.31774333573357
 7 -0.28541553625363 -0.47896208930893 -0.66457347024702
 7  1.58445693839384  1.88004843734373 -0.39310088768877
 7 -3.25310729972997 -3.15332644564456  0.64456077467747
 7 -0.75062355805581  2.95163631303130 -0.08773261906191
 6  0.65150741504150 -2.38442640104010 -1.46796909200920
 6  0.90925382768277 -1.06439367106711 -1.04724357325733
 6 -0.77918204690469 -2.57144550675068 -1.30385244794479
 6 -1.30600102210221 -1.38080839223922 -0.74978410841084
 6  3.80265872667267  1.49278244474447 -0.33241750855086
 6  2.52801490729073  0.81500332583258 -0.54134831983198
 6  2.20317556775678 -0.51023828172817 -0.83893336793679
 6  3.55624626472647  2.79468927112711  0.07700569086909
 6  1.57269867496750 -3.29795149644965 -2.20051739733973
 6 -5.53358226492649 -2.82972858775878  1.35523278757876
 6 -3.64923878317832 -1.77817279317932  0.26211214301430
 6  2.19122343444344  3.04667466166617 -0.01057343394339
 6 -5.03002569886989 -1.61282024592459  0.52409645354535
 6  5.10613587548755  0.72366728362836 -0.29301826052605
 6 -2.70299511521152 -0.96894544994499 -0.37953442724272
 6 -1.51930159225923 -3.75387514061406 -1.73836415321532
 6 -4.32166183458346 -3.81185541734173  1.30928605420542
 6  2.07433856755676 -4.52206122982298 -1.08564779157916
 6  5.35883468586859 -0.12889101260126  0.98425097229723
 6  4.62737879917992  3.88440128942894  0.36309851015102
 6  1.33105178357836  4.16458100840084  0.29475119571957
 6 -6.76886153675368 -3.55213999379938  0.88702776487649
 6 -5.89253883448345 -0.74287007100710  0.13151031793179
 6 -0.06528444774477  4.05954420422042  0.19697150905091
 6 -1.08451354995500  5.20216775047505  0.38184665016502
 6 -2.32424189788979  4.63008450985099  0.22334824082408
 6  2.93359994199420 -4.06048871907191 -0.00032234303430
 6 -5.45547925742574  0.51799708830883 -0.63519498429843
 6  6.76646652565257 -0.74623009260926  0.93832473067307
 6 -3.65859340224022  5.30671172967297  0.36816132683268
 6 -2.17017656925693  3.21274623562356 -0.10770654045405
 6 -0.77278786988699  6.65345101510151  0.77903695529553
 6 -4.39445900850085  5.46027198389839 -1.00585967746775
 1 -0.43440502540254  0.47968483428343 -0.14837457715772
 1  2.97890525152515 -1.19320746194619 -1.06636672407241
 1  2.53008288958896 -2.78448004460446 -2.57927447454745
 1  1.19056006220622 -3.47576168706871 -3.10271863196320
 1 -5.64388611591159 -2.63140176487649  2.33882442234223
 1  5.25711822432243  0.15913529492949 -1.14356470377038
 1  6.05192375977598  1.42384191229123 -0.44194776937694
 1 -2.86046226392639  0.05464325462546 -0.49651004850485
 1  0.55765299589959  1.85660550445044 -0.50238768426843
 1 -1.69233396919692 -4.48909347984798 -0.95023453325333
 1 -2.56202631363136 -3.54292487888789 -1.97403553665367
 1 -1.05625080498050 -4.10261733053305 -2.74411000030003
 1 -2.34725711201120 -3.45864559525953  0.62990565576558
 1  1.30972180148015 -4.98818151645165 -0.57203259315932
 1  2.59699580398040 -5.36781088798880 -1.47165254715471
 1  4.53258849184918 -0.92797396079608  1.02006174227423
 1  5.38379272467247  0.41534757345735  1.97903570667067
 1  4.64933545914591  4.80343075947595 -0.20686205800580
 1  5.57401049274928  3.32808034123412  0.38058384798480
 1  4.47223425602560  4.03349882198220  1.45972168906891
 1  1.56996777537754  5.17599677707771  0.60135121032103
 1 -7.78260982928293 -2.78060314381438  1.02469373897390
 1 -7.04036810071007 -4.38833521562156  1.56500234063406
 1 -6.58427412441244 -3.92865028112811 -0.06421433303330
 1 -7.10230475277528 -0.82385329382938  0.23843184428443
 1 -5.12088106020602  1.40764558545855  0.01523426212621
 1 -6.35392376977698  1.21701077607761 -1.23686800290029
 1 -4.77986729872987  0.64552471467147 -1.50791755655566
 1 -3.69924190969097  6.06818122322232  0.86146302280228
 1 -4.18570000820082  4.74626695859586  0.91940796709671
 1 -0.18240738523852  6.82289285468547  1.93795363696370
 1 -1.53780989128913  7.34902835753575  0.90161951365137
 1 -0.06763759575958  6.94593687938794 -0.05187423032303
 1 -3.73985189218922  6.16971459715972 -1.56596079857986
 1 -5.49296200340034  5.75338845494549 -0.74482435963596
 1 -4.66341981888189  4.29145931623162 -1.37247675567557
 1  3.66556495699570 -4.70176638913891  1.51906268866887
 1  7.92658068266827 -1.92270165916592  2.02884026702670

