%nproc=4
%Mem=2GB
# td=(NStates=1) B3LYP/SVP 

TD

0 1
 8 -4.19537104790479 -4.96151052225223  1.74230825922592
 8  2.82029605830583 -4.89564087088709  1.05227936523652
 8  6.84475077937794 -1.60264753445345  1.81470414991499
 8  3.65868092559256 -3.05561358635864 -0.08213155255526
 8  7.60712024862486 -0.39164906000600  0.08153212051205
 8 -3.01541712781278  2.32333038383838 -0.30672223362336
 7 -0.29469646434643 -0.46428062116212 -0.55306231913191
 7  1.57771626432643  1.84367479998000 -0.34006558415842
 7 -3.24170615961596 -3.22118323132313  0.61813813241324
 7 -0.77168566426643  2.86004715411541 -0.06329017481748
 6  0.64581684598460 -2.44016197459746 -1.39454174927493
 6  0.95751865416542 -1.04513174487449 -1.01648049694970
 6 -0.69426355505551 -2.64303266546655 -1.30575263796380
 6 -1.28658908090809 -1.41448175957596 -0.77829695969597
 6  3.85447390819082  1.55273844034403 -0.28518278507851
 6  2.50239234503450  0.91911373687369 -0.49737392239224
 6  2.20979622982298 -0.38425568346835 -0.86813628822882
 6  3.62446308640864  2.82855265746575  0.08453644394439
 6  1.57778918401840 -3.39083078437844 -1.96900424602460
 6 -5.45718462516252 -2.86003161806181  1.42130939523952
 6 -3.51744560386039 -1.86778175407541  0.21540747254725
 6  2.12219653175318  3.05869586378638  0.15874349774977
 6 -5.01387408370837 -1.65004396829683  0.47660170407041
 6  5.04729999189919  0.85386030293029 -0.39478843754375
 6 -2.67550236593659 -1.04589314471447 -0.42536901070107
 6 -1.46853651575158 -3.76255600870087 -1.75584590139014
 6 -4.19611928032803 -3.77541177297730  1.34262938853885
 6  1.96361749544954 -4.41265028872887 -0.97311653845385
 6  5.33174197659766 -0.14840296379638  0.79301184838484
 6  4.70942700400040  3.86651950125012  0.42334453475348
 6  1.20523920232023  4.18378292859286  0.33017473807381
 6 -6.82595724632463 -3.54563934373437  0.84923398549855
 6 -5.84028360896090 -0.69232501650165  0.13793095999600
 6 -0.17202512181218  3.98553680348035  0.21191300320032
 6 -1.08137323592359  5.13245077877788  0.49229769526953
 6 -2.29509898359836  4.66738824022402  0.25565147114711
 6  2.86677325932593 -3.97050972117212  0.00654834403440
 6 -5.43077678717872  0.58347363596360 -0.49102056685669
 6  6.72979285828583 -0.63579904950495  0.85551644984498
 6 -3.67026456935694  5.38017907640764  0.30923543424342
 6 -2.12784233583358  3.19992495349535 -0.08050382018202
 6 -0.51960255135514  6.61851752175218  0.63755280688069
 6 -4.21188075067507  5.49722567926793 -1.12694178567857
 1 -0.49782136703670  0.70492735853585 -0.40753049274927
 1  3.03330069106911 -0.98730687188719 -1.09869995739574
 1  2.55389527082708 -2.86714831143114 -2.28873542064206
 1  1.17783879007901 -3.95085919681968 -2.85577393749375
 1 -5.73325505280528 -2.49472809750975  2.39767030693069
 1  5.01604411691169  0.11481086248625 -1.27025737303730
 1  5.96526509390939  1.52061158925893 -0.36017959255926
 1 -2.96480269796980  0.12754054435444 -0.63747414491449
 1  0.50546777737774  1.88981882578258 -0.54902234773477
 1 -1.53322805860586 -4.61032560306031 -1.20425993579358
 1 -2.55259537053705 -3.50477106350635 -2.09948808190819
 1 -1.05069024892489 -4.01321839063906 -2.65473106240624
 1 -2.21214360066007 -3.72093182388239  0.61955462066207
 1  0.93964479377938 -4.78262096039604 -0.54206959685969
 1  2.55532163656366 -5.24214832173217 -1.62265764766477
 1  4.79427466046605 -1.17009817321732  0.51092082818282
 1  4.90444478987899  0.19056509520952  1.85309311241124
 1  4.21895242084208  4.98189860626063 -0.04077544934493
 1  5.72155524722472  3.73504103730373  0.02430822042204
 1  4.78644567716772  4.03028850095010  1.42047776467647
 1  1.53875465406541  5.13384256165617  0.73036411161116
 1 -7.52364393269327 -2.91560664416442  0.87122839243924
 1 -6.80195425932593 -4.43786016811681  1.60444628502850
 1 -6.73132882988299 -3.97794521062106 -0.30283819541954
 1 -6.92507703000300 -0.78393930243024  0.39870787188719
 1 -5.04412338443844  1.40278509940994  0.20648338703870
 1 -6.50251862926293  0.96876595159516 -0.91594591069107
 1 -4.69954926692669  0.27886804900490 -1.52733949874987
 1 -3.38213019851985  6.30075448054806  0.90994787128713
 1 -4.22220365856586  4.74407673957396  0.96223224952495
 1  0.28774963046305  6.55447601300130  1.39463930553055
 1 -1.47262337263726  7.17748120282028  1.04341369306931
 1 -0.10076090809081  7.02212449814982 -0.40870991389139
 1 -3.56810471747175  6.17417504320432 -1.73955815831583
 1 -5.25570827802780  6.05298841494149 -1.19819969716972
 1 -4.17692116901690  4.47454762506251 -1.75051455945595
 1  3.52879127962796 -4.56792300480048  1.72713349574957
 1  7.83128115271527 -1.84274366336634  1.91288867186719

