%nproc=4
%Mem=2GB
# td=(NStates=1) B3LYP/SVP 

TD

0 1
 8 -4.22710422122212 -4.92170654185419  1.78683271167117
 8  2.80877490619062 -4.66971827862786  1.35900003730373
 8  6.91982828712871 -1.53017028672867  1.93446612611261
 8  3.62678773627363 -3.07412543754375 -0.02207554695470
 8  7.58295783238324 -0.68294818991899 -0.06731276397640
 8 -2.95001058715872  2.29950800160016 -0.29735129652965
 7 -0.26292328702870 -0.43510770387039 -0.73763077597760
 7  1.58046653935394  1.80209064156416 -0.36662824042404
 7 -3.18569055805581 -3.12786389938994  0.70871719031903
 7 -0.74989348504850  2.94559570897090 -0.11320516631663
 6  0.61351361566157 -2.38737669606961 -1.41732402750275
 6  0.98288119041904 -1.01526875857586 -1.01668051695170
 6 -0.70372450115011 -2.62893125532553 -1.27269933263326
 6 -1.20979140114011 -1.37209752115212 -0.84571370137014
 6  3.83669213001300  1.57633079957996 -0.41798606540654
 6  2.54642674847485  0.87459928542854 -0.61216540154015
 6  2.20799604980498 -0.45115237313731 -0.86177565216522
 6  3.61308194829483  2.90148995119512 -0.03449545924592
 6  1.57251865696570 -3.42211391269127 -2.06615396099610
 6 -5.48346725342534 -2.87526314121412  1.25041230553055
 6 -3.47190104940494 -1.91268624452445  0.22432836463646
 6  2.10731504360436  3.06117611181118 -0.00285266186619
 6 -4.97505020132013 -1.68316728062806  0.39648369226923
 6  5.14555981788179  0.69270418731873 -0.48409736843684
 6 -2.59489430513051 -1.04577313271327 -0.47023349714972
 6 -1.55879554165417 -3.69201895499550 -1.93800411721172
 6 -4.29406907530753 -3.80527475927593  1.34855998159816
 6  1.96693782748275 -4.56487551125113 -0.94657388418842
 6  5.37696649904990 -0.02081020452045  0.81662420962096
 6  4.65070113141314  3.93624647394739  0.31994419471947
 6  1.25275395379538  4.15856040634063  0.46454817541754
 6 -6.81810646124613 -3.52487726752675  1.00694975707571
 6 -5.76950653125312 -0.74174995899590 -0.00931376447645
 6 -0.08160607990799  4.01907015681568  0.38014982688269
 6 -1.17187228582858  5.16354388808881  0.51231969746975
 6 -2.37479695339534  4.67990949234924  0.34298020402040
 6  2.89318590059006 -4.00620329052905  0.13514120332033
 6 -5.44926863636364  0.54047933653365 -0.75965743054305
 6  6.76568644764477 -0.71916738633863  0.85302620082008
 6 -3.72101964486449  5.24934599309931  0.34344885558556
 6 -2.13466301790179  3.18155311631163 -0.05437120692069
 6 -0.70375096619662  6.53914958495850  0.93695274687469
 6 -4.25490505310531  5.50556651335133 -0.99571866336634
 1 -0.53717530243024  0.41177804360436 -0.16234597429743
 1  2.95228258925893 -1.08116625782578 -1.13982406980698
 1  2.47264714601460 -3.05336693329333 -2.35003155025502
 1  1.05572657885789 -3.76532064296430 -2.76033439353935
 1 -5.40101182848285 -2.33010163486349  2.12719325922592
 1  5.00080259275928  0.28808819021902 -1.52784313161316
 1  5.85029359675968  1.45143467156716 -0.53879745434543
 1 -3.11496771447145 -0.10059226892689 -0.61705210271027
 1  0.67068429902990  1.88969881378138 -0.44995244074407
 1 -1.53252798859886 -4.45064963546355 -1.07962747254725
 1 -2.68962907390739 -3.27126771317132 -2.00007814091409
 1 -1.15709088898890 -4.16789385818582 -2.79694528382838
 1 -2.11719410571057 -3.19755948664867  1.02915558075808
 1  1.01845267456746 -4.90754345264526 -0.45975136503650
 1  2.62421852625262 -5.15658976587659 -1.59077445934593
 1  4.54788002100210 -0.79460062346235  1.07952768886889
 1  5.52202654805481  0.65355139383938  1.71238904200420
 1  4.27176770237024  4.97140755715572 -0.03810518231823
 1  5.69850294199420  3.64539207240724  0.27053284288429
 1  4.73962099469947  4.17400287238724  1.45570128702870
 1  1.60123090169017  5.18434761216122  0.72345342054205
 1 -7.57207877617762 -2.48316339983998  1.11205247484748
 1 -7.23599766366637 -4.32067844994499  1.60610645104510
 1 -7.05354105110511 -3.68409582568257 -0.06860477207721
 1 -6.82041656395640 -0.72758366686669  0.24845284638464
 1 -4.93953292539254  1.32481730263026 -0.05537279857986
 1 -6.31159953735374  0.72848192319232 -1.31440575667567
 1 -4.60906021802180  0.51282144434443 -1.48082484728473
 1 -3.78743072857286  6.14814922002200  0.99616649314931
 1 -4.28735017321732  4.55275760766077  0.82880890719072
 1  0.07990884638464  6.42479304470447  1.78904874647465
 1 -1.60850696099610  7.24462791749175  1.25758511021102
 1 -0.22147297929793  7.04364665036504  0.16018697579758
 1 -3.55510341734173  6.25529315501550 -1.44675887838784
 1 -5.38152085928593  5.89470258635864 -1.02895277247725
 1 -4.32594607150715  4.73932410271027 -1.57140664866487
 1  3.42567096759676 -4.10137635013501  1.88391917431743
 1  7.82433045764576 -1.87286667566757  1.77956533953395

