%nproc=4
%Mem=2GB
# td=(NStates=1) B3LYP/SVP 

TD

0 1
 8 -4.12168367916792 -4.91401577277728  1.82163619201920
 8  2.94843887258726 -4.69714102090209  1.06952108940894
 8  6.78307461176118 -1.79250652035204  1.93898657815782
 8  3.81854691219122 -3.20635866086609 -0.37476081548155
 8  7.53284282088209 -0.53034292939294  0.23951791909191
 8 -3.00743632973297  2.39760781158116 -0.49823138453845
 7 -0.24981197589759 -0.50945513861386 -0.50646765966597
 7  1.46792528522852  1.83646407890789 -0.28946052365237
 7 -3.18144013301330 -3.22378349134913  0.63714003260326
 7 -0.78218671437144  2.97499864926493 -0.28467231303130
 6  0.57062932723272 -2.29969792819282 -1.43980627572757
 6  1.02393529582958 -1.05037226892689 -0.91154000290029
 6 -0.80060418911891 -2.49423778597860 -1.29310137283728
 6 -1.32807322932293 -1.33076338773877 -0.63669279927993
 6  3.79473793459346  1.54058722522252 -0.29689395619562
 6  2.54809691549155  0.84217604310431 -0.47411159615962
 6  2.27480273047305 -0.53771102900290 -0.84361383598360
 6  3.53528416851685  2.88200800300030  0.02957094739474
 6  1.52094349944994 -3.23082478377838 -2.16104344994499
 6 -5.42894180088009 -2.85343095799580  1.41646891119112
 6 -3.53137699699970 -1.87498247414741  0.22408834063406
 6  2.04629894199420  3.05791578577858  0.07296491989199
 6 -4.91857455375538 -1.58127709160916  0.71219526342634
 6  5.06367162906291  0.80090500740074 -0.19006796549655
 6 -2.65391020672067 -0.96241479687969 -0.29819629342934
 6 -1.47498716081608 -3.63032278537854 -1.94203452025202
 6 -4.17461713011301 -3.77797202900290  1.41684681028103
 6  2.02561369506951 -4.49415843954395 -1.21510073687369
 6  5.27323612601260 -0.12461058455846  0.96467901510151
 6  4.44326038733873  3.99026187548755  0.53990619091909
 6  1.27291596999700  4.12161671197120  0.34774649524952
 6 -6.65938058865887 -3.60275505530553  0.99913897599760
 6 -5.74563414401440 -0.63914969896990  0.25699286618662
 6 -0.15348326762676  4.07767601740174  0.12201401330133
 6 -1.06111120972097  5.19822735643564  0.36911537703770
 6 -2.33297277097710  4.58130963236324  0.13404931093109
 6  2.98875545754575 -4.07902057225723 -0.14071638243824
 6 -5.53404711421142  0.51981727032703 -0.44827629242924
 6  6.58091797079708 -0.89475494509451  0.94155505370537
 6 -3.62669021192119  5.24737579607961  0.21880639133913
 6 -2.10005955755576  3.21362632363236 -0.24959072887289
 6 -0.66686727782778  6.52223789378938  0.68297734933493
 6 -4.24382394499450  5.50924688138814 -1.14309340084008
 1 -0.25524710961096  0.55861272707271  0.06881714201420
 1  3.09772713371337 -1.10707884908491 -1.28614870227023
 1  2.53503338463846 -2.79007060366037 -2.41497804490449
 1  0.98769977617762 -3.57626173707371 -3.10082844294429
 1 -5.66774850215021 -2.77821644634464  2.40348088798880
 1  5.24102661516152  0.20070945234523 -1.12903325062506
 1  5.87923649104911  1.47518704680468 -0.21923549814981
 1 -2.77175339303931  0.13726151645165 -0.29905030253025
 1  0.45151238183818  1.89075891979198 -0.53633107860786
 1 -1.50806554235424 -4.51046561706171 -1.41447095689569
 1 -2.56061617261726 -3.38877946434643 -2.07369550265026
 1 -0.90057523742374 -4.05678274707471 -2.96169175847585
 1 -2.32578496479648 -3.70353008370837  0.68834149934994
 1  1.24119494879488 -5.11747444574457 -0.85743113301330
 1  2.62238834323432 -5.10352445934593 -1.87943332523252
 1  4.63388862186219 -1.04313547694770  1.05725546164616
 1  5.35988033343334  0.61547758645865  1.82038984208421
 1  4.26561708730873  5.00753116951695  0.13919254745475
 1  5.55835892759276  3.58470600380038  0.45371116071607
 1  4.11745877847785  4.12405787788779  1.70137585448545
 1  1.72726350495050  4.94267344474448  0.66093716891689
 1 -7.41600316861686 -2.99283436693669  1.23690496009601
 1 -6.98633269716972 -4.39196557865787  1.68576441684168
 1 -6.80686638363836 -3.97173458955896  0.01034312271227
 1 -6.86823134543454 -0.75249615811581  0.53494149524953
 1 -4.83479245134513  1.21259608050805  0.12738547724772
 1 -6.46380475787579  1.10943001800180 -0.80953526962696
 1 -4.85877518951895  0.37121728392839 -1.27061382618262
 1 -3.69049103460346  6.34789919501950  0.83374025052505
 1 -4.07966940514051  4.40984331623162  0.72212823912391
 1 -0.31411055555556  6.65265583098310  1.70053989558956
 1 -1.45959206950695  7.38523197789779  0.48092744444444
 1  0.16968613661366  7.05999828552855 -0.01532057495750
 1 -3.49746765376538  6.17760538623862 -1.66513071557156
 1 -5.21033374057406  5.97935105120512 -1.12083196039604
 1 -4.32027550445045  4.71220139043904 -1.78483799179918
 1  3.86431483198320 -4.41356756925692  1.49747052945295
 1  7.69956798139814 -2.05365475447545  1.72582996599660

