%nproc=4
%Mem=2GB
# td=(NStates=1) B3LYP/SVP 

TD

0 1
 8 -4.16498800960096 -4.93556792799280  1.79933396179618
 8  3.12495652435244 -5.08368967576758  1.09989412671267
 8  7.11680798509851 -1.58530580028003  1.81619429892989
 8  3.56976203370337 -3.00781880688069  0.06531319191919
 8  7.61062059865987 -0.46839673477348 -0.06122215491549
 8 -3.12927851395140  2.45988403920392 -0.38645020642064
 7 -0.28175517021702 -0.57130132323232 -0.62621963486349
 7  1.49723821652165  1.85271570407041 -0.51259283688369
 7 -3.28008999799980 -3.13882499549955  0.55271158975898
 7 -0.84221271697170  3.03375452485249  0.00396655085509
 6  0.66112837713771 -2.39539749814981 -1.37902019711971
 6  0.96248915121512 -1.02509974167417 -1.05253410231023
 6 -0.77761188988899 -2.63360172237224 -1.32183424612461
 6 -1.29799022102210 -1.41149146054605 -0.86534566456646
 6  3.77393585438544  1.53320648714871 -0.27168143494349
 6  2.44454656045605  0.92315414091409 -0.64404858985899
 6  2.17990324052405 -0.41221847974797 -0.92036151075107
 6  3.43394403450345  2.81884168636864  0.17884587488749
 6  1.68984038913891 -3.45011671297130 -2.02973031863186
 6 -5.34618352505251 -2.82322793769377  1.43549081338134
 6 -3.55104896419642 -1.88486346224622  0.16524245604560
 6  2.05152946504650  3.10624061826183  0.04545216861686
 6 -4.93254595089509 -1.66134509840984  0.49659370327033
 6  5.06410167206721  0.76331124802480 -0.33124208290829
 6 -2.65776059175918 -1.00143869926993 -0.39936641044104
 6 -1.48128779087909 -3.87030678377838 -1.90542085888589
 6 -4.21202087048705 -3.80954518631863  1.21617674327433
 6  2.01538267196720 -4.58495751945195 -1.00902012881288
 6  5.36865566796680 -0.21078920242024  0.93951649884988
 6  4.49698575987599  3.78439128842884  0.67829002930293
 6  1.30295897429743  4.16080063036304  0.49689140974097
 6 -6.78791344194419 -3.33012779257926  1.11554061616162
 6 -5.70401998259826 -0.65051083508351  0.17966513341334
 6 -0.15900381968197  4.04910316011601  0.29734154605461
 6 -1.08889398799880  5.17387492119212  0.42753121862186
 6 -2.41469094279428  4.69988148954895  0.16900280628063
 6  2.93817039903990 -4.13077574777478  0.07084477367737
 6 -5.50800450995099  0.65201048964896 -0.68117958275828
 6  6.79425930493049 -0.68670414001400  0.85845674387439
 6 -3.63179072197220  5.38275933443344  0.23426793749375
 6 -2.16891644324432  3.27785274627463 -0.11815758555856
 6 -0.67437802890289  6.62253792379238  0.79943899549955
 6 -4.25197476007601  5.46966292299230 -1.13498258975898
 1 -0.54102568746875  0.39756662246225 -0.32033177287729
 1  3.12666002700270 -1.11506964816482 -1.04598468586859
 1  2.73265314661466 -2.78385998259826 -2.28382492959296
 1  1.36392739893989 -3.93267737863786 -2.97861622172217
 1 -5.46361808910891 -2.42692131683168  2.43551409130913
 1  5.16979949244925  0.26694607600760 -1.26934728202820
 1  5.95229379677968  1.45625515361536 -0.40852442704270
 1 -2.92558877657766  0.00232802310231 -0.39456985448545
 1  0.42292952355235  2.20146999089909 -0.52645009050905
 1 -1.50177491329133 -4.69988455895590 -1.17197670747075
 1 -2.62355246624662 -3.52768335473547 -2.08562669576958
 1 -0.94335951585159 -4.33136020482048 -2.70530611991199
 1 -2.22124451075108 -3.32011174187419  0.90015268046805
 1  1.12107293659366 -4.92835553385339 -0.68117350725072
 1  2.37790389478948 -5.54899900680068 -1.54394977687769
 1  4.55231046404640 -0.99533069646965  0.85312504860486
 1  4.99268361376138  0.48358439713971  1.81814961806181
 1  4.59129965556556  4.72873328972897  0.13310193839384
 1  5.62010510221022  3.24476200940094  0.43414920452045
 1  4.25794282688269  4.33051852395240  1.68800451735174
 1  1.91670244884488  4.99534871227123  0.74542561776178
 1 -7.61708327662766 -2.41023610711071  1.39433070267027
 1 -7.03412747664766 -4.04220060216022  1.99276511691169
 1 -7.10834653165317 -3.95808322442244  0.08652074047405
 1 -6.56539106140614 -0.55696660516052  0.81222922402240
 1 -4.94264323642364  1.39402422332233 -0.17883514481448
 1 -6.49206758415842  1.01400047504750 -1.14720903700370
 1 -4.74228354035403  0.28678884108411 -1.51721848664866
 1 -3.49840182568257  6.46160056515652  0.60201707820782
 1 -4.37321876007601  4.74004633653365  0.84156018231823
 1 -0.13621276577658  6.67094766016602  1.73093293489349
 1 -1.51784789508951  7.35508896359636  1.04777412911291
 1 -0.17345817781778  7.05345763146315 -0.01642068496850
 1 -3.54337224422442  5.98368599429943 -1.86894109660966
 1 -5.27958066526653  5.98262137823782 -1.08536841404140
 1 -4.47454093099310  4.50615078537854 -1.72894240224022
 1  3.77728612911291 -4.57232344484448  1.49932071447145
 1  8.05024304890489 -1.70396978597860  1.42230961396140

