%nproc=4
%Mem=2GB
# td=(NStates=1) B3LYP/SVP 

TD

0 1
 8 -4.22149366016602 -4.82692706390639  1.89304333273327
 8  3.01366539523952 -4.79185049184918  1.01668580588059
 8  7.00376668096810 -1.66802407210721  1.77026970647065
 8  3.74779983748375 -3.06675470047005 -0.04489782918292
 8  7.62183171977198 -0.20422031713171  0.01605557285729
 8 -2.97857344344434  2.31662971377138 -0.39975153655366
 7 -0.23300029472947 -0.50519471257126 -0.66553356625663
 7  1.54454294699470  1.74612504500450 -0.31735331293129
 7 -3.23571556055606 -3.09855096809681  0.56575289388939
 7 -0.84015251095110  2.84444559395940  0.06753290749075
 6  0.60496276057606 -2.38589654805481 -1.45942823792379
 6  0.97072997529753 -1.13564079577958 -1.03814266316632
 6 -0.76089021772177 -2.60015837803780 -1.28065012771277
 6 -1.34772519451945 -1.44767507890789 -0.65036416641664
 6  3.74622308310831  1.42064523102310 -0.22788705550555
 6  2.46561866766677  0.78989081458146 -0.49278346334633
 6  2.25599084928493 -0.50821807970797 -0.96336581118112
 6  3.55478611871187  2.79123892609261  0.09309730003000
 6  1.55205661076108 -3.43813551485149 -2.16482382798280
 6 -5.47619652635264 -2.71467708260826  1.36139340364036
 6 -3.65904976427643 -1.81543651955196  0.14177010881088
 6  2.16964127622762  3.05047504170417  0.09150677407741
 6 -5.02399509580958 -1.61818078197820  0.57416146004600
 6  5.11863712561256  0.80655557245725 -0.20115907460746
 6 -2.64303911961196 -1.00913946934693 -0.32773924772477
 6 -1.55320498259826 -3.75494524762476 -1.74852516931693
 6 -4.35377504590459 -3.73148738053805  1.37894301990199
 6  2.05289642334233 -4.41439046274628 -1.08550777757776
 6  5.37951675407541 -0.15523364686469  0.91881442864286
 6  4.45700176147615  3.81216406570657  0.45730793109311
 6  1.32258093649365  4.17922247254725  0.28524024462446
 6 -6.86807145774577 -3.43645842564256  1.06447550965097
 6 -5.76508608920892 -0.57663344734473  0.08270543744374
 6 -0.15665358465847  4.01018926872687  0.34760657255726
 6 -1.12865796439644  5.13338087178718  0.45890435593559
 6 -2.31150062376238  4.65610711211121  0.23650955695570
 6  3.03035961796180 -4.04514718491849 -0.01010332113211
 6 -5.46599030853085  0.49988527712771 -0.85344680948095
 6  6.80613049204921 -0.64894036363636  0.86617751595159
 6 -3.77125466836684  5.18273933243324  0.24938944964496
 6 -2.15829538113811  3.13338829982998 -0.03886965676568
 6 -0.72265285638564  6.61164683468347  0.87994704630463
 6 -4.15214477707771  5.59182513921392 -1.24120321182118
 1 -0.24262584748475  0.27884475027503  0.03955421572157
 1  3.21139850085008 -1.15443358455846 -1.24251433883388
 1  2.61542142344234 -2.98489008560856 -2.54456100320032
 1  1.09958096429643 -3.97023113401340 -3.00197855795580
 1 -5.21978370567057 -2.59763838853885  2.50465100500050
 1  5.24802731523152  0.29936931833183 -1.26835718301830
 1  5.85889445684568  1.43389291739174 -0.49123269786979
 1 -2.81471768946895  0.18505629592959 -0.52347274477448
 1  0.41654888548855  1.82003184708471 -0.35412285778578
 1 -1.48458319411941 -4.47556212671267 -0.95426493629363
 1 -2.46727683868387 -3.44488507490749 -2.03458159125913
 1 -0.90517569746975 -4.08625569436944 -2.65554114341434
 1 -2.30287267356736 -3.34522425312531  0.85555822102210
 1  1.26215704500450 -4.85948864716472 -0.67097248714872
 1  2.55483158755876 -5.34804891179118 -1.61980736263626
 1  4.90670590359036 -1.16071723512351  0.93139287538754
 1  5.45851019641964  0.38864490319032  1.85508331143114
 1  4.57163768936894  4.70171058745875 -0.47860923272327
 1  5.64566765846585  3.58584611781178  0.50766655625563
 1  4.36468350095010  4.31414688678868  1.45786150305031
 1  1.66855763436344  5.08797797519752  0.70595167036704
 1 -7.47368893719372 -2.75327041054105  1.33753502310231
 1 -7.03067713161316 -4.42958934103410  1.48948478887889
 1 -6.96683238023802 -3.52816023212321 -0.09829774137414
 1 -6.83982850515051 -0.74865577407741  0.22237023812381
 1 -5.09970894299430  1.37771259215922 -0.27069433073307
 1 -6.32651102850285  0.96909598459846 -1.37451176727673
 1 -4.49066837883788  0.30083024522452 -1.52068883368337
 1 -3.81473345884588  6.09877428252825  0.91902877937794
 1 -4.27162860106011  4.29128146004601  0.62418844514451
 1 -0.00813995849585  6.48566913231323  1.79585942754275
 1 -1.76346245654565  7.11667512221222  1.03661301300130
 1 -0.17712854485449  7.33806609230923  0.12105306240624
 1 -3.34673258025803  6.31392901860186 -1.67674187668767
 1 -5.27479018621862  6.09845296139614 -1.28117799499950
 1 -4.50534401130113  4.68354852515252 -1.71463097109711
 1  3.58470687118712 -4.44460067256726  1.75511629402940
 1  7.83178120272027 -1.73984337333733  1.44402178517852

