%nproc=4
%Mem=2GB
# td=(NStates=1) B3LYP/SVP 

TD

0 1
 8 -4.28893040384038 -4.91607597879788  1.90682471087109
 8  2.92455648434843 -4.96520782758276  0.92956709400940
 8  6.99214551885189 -1.40403767346735  1.88636131563156
 8  3.85263032053205 -3.26693471847185 -0.08820215961596
 8  7.60629016561656 -0.63521341644164 -0.02927896059606
 8 -3.03768935503550  2.41740979177918 -0.38836039743974
 7 -0.29466646134613 -0.44071826492649 -0.53205021792179
 7  1.60020851355136  1.89544997749775 -0.44619619721972
 7 -3.19865185418542 -3.19589070207021  0.69387570617062
 7 -0.75110360606061  2.92342349174917 -0.00971481728173
 6  0.65872813711371 -2.43602156055606 -1.36322861796180
 6  0.96605950825083 -1.07445467716772 -0.93477232613261
 6 -0.71316544524452 -2.57979634183418 -1.23497556025603
 6 -1.25028545054505 -1.38040835223522 -0.69878900890089
 6  3.78292675347535  1.55307847434743 -0.22296656345635
 6  2.52314442024202  0.96742856835684 -0.56218040304030
 6  2.28386363656366 -0.43443070097010 -0.87112658725873
 6  3.51769240934093  2.85692549474947  0.27921591189119
 6  1.50924232933293 -3.37238894019402 -2.17213455905591
 6 -5.47204611131113 -2.77308292319232  1.41496876117612
 6 -3.56994085338534 -1.92233720962096  0.25292122392239
 6  2.05518983108311  2.99307930213021 -0.02589496609661
 6 -4.95472816911691 -1.69053801770177  0.48136218011801
 6  5.11194645654566  0.87235215211521 -0.27634659335934
 6 -2.56321113681368 -1.02931148654866 -0.32880935473547
 6 -1.55745540764076 -3.79351910501050 -1.65656597339734
 6 -4.34340400880088 -3.72743697549755  1.45144026962696
 6  2.02562369606961 -4.45900492419242 -1.27621684848485
 6  5.35174397679768 -0.07378550205021  0.81908445564556
 6  4.44340040134013  3.92389523882388  0.66795899619962
 6  1.28338701710171  4.10078462876288  0.38670039063906
 6 -6.82341699229923 -3.30829560936094  1.15965502760276
 6 -5.75910549114912 -0.68120390439044 -0.09706253935394
 6 -0.14557247654765  4.06060431023102  0.33057486938694
 6 -1.14355945454545  5.27218475217522  0.44424288978898
 6 -2.32401187488749  4.69931143254325  0.20721662766277
 6  2.94910149214921 -4.16092876307631 -0.15180749154915
 6 -5.27878158765877  0.51516680528053 -0.86389785458546
 6  6.68753863286329 -0.74324979457946  0.83174407260726
 6 -3.71033857675768  5.24861592009201  0.20772528322832
 6 -2.07239679127913  3.22805776677668 -0.16572234203420
 6 -0.67306789788979  6.70143581358136  0.85809486108611
 6 -4.31964152675268  5.35740169686969 -1.23728281978198
 1 -0.42522410731073  0.44462132793279 -0.30471021072107
 1  3.10077743874387 -1.00276841804180 -1.10388047544754
 1  2.28633851515152 -2.81474307090709 -2.32241878897890
 1  1.05289629582958 -3.63330744164416 -2.96230459055906
 1 -5.36668839613961 -2.42856148084808  2.42509304920492
 1  5.22087459996000  0.21654103550355 -1.35977632493249
 1  6.03934250165017  1.51996152425243 -0.21687526212621
 1 -2.74511072877288 -0.00636284598460 -0.40557095459546
 1  0.47827505810581  1.98536838073807 -0.51839928542854
 1 -1.83505824162416 -4.64948951945195 -0.88921843164316
 1 -2.63624373537354 -3.54592517891789 -1.80582871597160
 1 -1.12652783268327 -4.30506757555755 -2.68344393369337
 1 -2.16190857715772 -3.57746747744774  0.64195686088609
 1  1.31129195849585 -5.07219991829183 -0.69857524742474
 1  2.78250435483548 -5.07788189508951 -1.95689107100710
 1  4.72007724072407 -0.93621478487849  0.87240697679768
 1  5.06755110051005  0.29814585328533  1.92086989008901
 1  4.39554007960796  4.67904832123212 -0.07734910671067
 1  5.31979507120712  3.38303583678368  0.55580136973697
 1  4.45719275187519  4.12080755285529  1.73001871877188
 1  1.58708948754876  5.09232841024102  0.64793586878688
 1 -7.65407697599760 -2.59145422892289  1.11708297789779
 1 -7.14800886478648 -4.28951533363336  1.68287412781278
 1 -6.83768946594659 -3.89111652775278  0.01360344874487
 1 -6.70623514581458 -0.68102901140114  0.15181318241824
 1 -5.10425939803980  1.64378919981998 -0.38300556185619
 1 -6.30596897429743  0.94804387938794 -1.47535185128513
 1 -4.34872418441844  0.25719588178818 -1.47451421622162
 1 -3.82763474897490  6.05261966706671  0.82921979847985
 1 -4.33043448164817  4.67567989988999  0.92912893919392
 1 -0.30494963946395  6.62629319471947  1.70751059265927
 1 -1.61904801510151  7.18490194489449  1.14345369706971
 1 -0.07041787378738  7.16033831953195  0.21800275737574
 1 -3.75413332033203  6.24751237693769 -1.78109231173117
 1 -5.46816952415242  5.77677079317932 -1.17734761196120
 1 -4.24702817971797  4.47071724202420 -1.70526003400340
 1  3.75327372787279 -4.62103831633163  1.30118090049005
 1  7.81732975757576 -1.86697608660866  1.61072845584558

