%nproc=4
%Mem=2GB
# td=(NStates=1) B3LYP/SVP 

TD

0 1
 8 -4.33018452925293 -4.86261063226323  1.65773980238024
 8  2.96028005670567 -4.95424673147315  1.03041717901790
 8  6.94103040734073 -1.40764803450345  2.01052373187319
 8  3.80711576907691 -3.17795582058206  0.05757241784178
 8  7.51263079967997 -0.66954684978498 -0.10436646934693
 8 -3.03189877597760  2.32609065986599 -0.19648120952095
 7 -0.18116511121112 -0.53371756485649 -0.55095210811081
 7  1.54659315201520  1.88090852335234 -0.36617819541954
 7 -3.29245123412341 -3.22484359735974  0.69213553215322
 7 -0.82099059475948  2.95227637703770  0.03264941914191
 6  0.68987125142514 -2.35177313571357 -1.45373766886689
 6  0.95074797709771 -1.08153538523852 -0.92298114701470
 6 -0.71813594229423 -2.59623798599860 -1.26179824252425
 6 -1.22826324832483 -1.40113042444244 -0.73609273927393
 6  3.79469793059306  1.55581874837484 -0.40038430523052
 6  2.53509561536154  0.88508033353335 -0.59921410641064
 6  2.17574282448245 -0.37228448634863 -0.89089856445645
 6  3.51005164526453  2.79177898009801 -0.00908291799180
 6  1.78882028712871 -3.23981568286829 -2.09631697729773
 6 -5.43455236193619 -2.80024563946395  1.42266953125313
 6 -3.64924878417842 -1.90072504840484  0.21426735853585
 6  2.12443675577558  3.02036203040304  0.01971959535954
 6 -4.98513120942094 -1.60271923582358  0.45417946184618
 6  5.05102036393639  0.76022093899390 -0.49246820552055
 6 -2.65214002970297 -1.01356991239124 -0.39921639543954
 6 -1.44023368546855 -3.88735848894890 -1.69578989578958
 6 -4.40094976337634 -3.82533676547655  1.18981410701070
 6  2.17276841054105 -4.47830685438544 -1.14861408820882
 6  5.33479228162816 -0.04378250175017  0.86018856605661
 6  4.60917697899790  3.84937778707871  0.43862606290629
 6  1.34489316771677  4.18236278657866  0.39574129472947
 6 -6.84254890549055 -3.29697447724772  1.12507156925693
 6 -5.85168474907491 -0.65886167016702  0.08204537143714
 6 -0.12240015931593  4.01454970477048  0.31701351325133
 6 -1.05274037263726  5.09531706540654  0.45039350485049
 6 -2.35301477517752  4.67948945034504  0.18180408640864
 6  3.09297587958796 -4.09767243744374 -0.00860317111711
 6 -5.57289099859986  0.59952524112411 -0.81006247104710
 6  6.69965984498450 -0.64643011261126  0.92419331753175
 6 -3.68563610651065  5.31106216471647  0.23072758345835
 6 -2.16784633623362  3.19231419241924 -0.00863663346335
 6 -0.72538312941294  6.51672734273427  0.97425647724772
 6 -4.29169873247325  5.55254121082108 -1.15025411691169
 1 -0.40316190109011  0.35656252205220 -0.16107584728473
 1  3.15376273727373 -0.92745088628863 -0.98261834923492
 1  2.60451033233323 -2.74313591019102 -2.44291083818382
 1  1.30982198839884 -3.76882099299930 -3.02846120622062
 1 -5.26669839713971 -2.35178380308031  2.31560210011001
 1  4.90121263376338 -0.13831445004500 -1.18974932223222
 1  5.72089065646565  1.47119664776478 -0.74091766636664
 1 -2.85944216191619  0.12423021332133 -0.44815521302130
 1  0.43132036263626  1.92505234913491 -0.47025447094709
 1 -1.37777251305131 -4.66743131363136 -0.93038254805481
 1 -2.51237134813481 -3.43346393279328 -1.77256538963896
 1 -1.16380156005601 -4.42660972977298 -2.65653124242424
 1 -2.26653904020402 -3.44495422612261  1.12229489468947
 1  1.12369319861986 -5.08107080538054 -0.90500589048905
 1  2.69232533693369 -5.41551565846585 -1.69891527342734
 1  4.49826505950595 -0.73232439583958  0.97860759685969
 1  5.25048939433943  0.66885292399240  1.72375017811781
 1  4.37456798239824  4.88039845624562 -0.14040541234123
 1  5.55687877957796  3.61116865006501  0.34476026562656
 1  4.58417545014501  4.10685615771577  1.49499521642164
 1  1.72696347494749  5.11330050745075  0.26045712091209
 1 -7.64101566986699 -2.57997308080808  1.14595586518652
 1 -7.00082414631463 -4.23758014011401  1.84508034843484
 1 -6.66359205620562 -3.75482289838984  0.08110019841984
 1 -6.90522504480448 -0.77172808130813  0.39048704980498
 1 -5.22001097319732  1.46626144704470 -0.16243350465046
 1 -6.41503988138814  0.95329440444044 -1.37644196029603
 1 -4.63241255325533  0.40289045124512 -1.56182294709471
 1 -3.62868485398540  6.34566897199720  0.84345122162216
 1 -4.24429586778678  4.49909224112411  0.75595162146215
 1  0.23688454395440  6.53267383278328  1.64435427702770
 1 -1.61827793809381  7.08929238393839  1.11679103080308
 1 -0.21463229522952  6.87247953365337 -0.06299534243424
 1 -3.50688859585959  5.97838546424642 -1.90256445894589
 1 -5.26187889508951  6.15047816391639 -1.26982685988599
 1 -4.84915839273927  4.56837700800080 -1.60867037503750
 1  3.44120252075208 -4.58583479597960  1.79917069946995
 1  7.79983800840084 -1.84867425642564  1.71311869486949

