%nproc=4
%Mem=2GB
# td=(NStates=1) B3LYP/SVP 

TD

0 1
 8 -4.17582909370937 -4.84634900610061  1.84729875827583
 8  3.34010803950395 -4.79891119791979  1.00853499079908
 8  6.78884518881888 -1.81874914461446  1.90784346384638
 8  3.83525858335834 -3.03160118511851 -0.25204854425443
 8  7.59223876047605 -0.72490238533853 -0.00059609230923
 8 -3.04157974407441  2.43881193199320 -0.37909947134713
 7 -0.29283627832783 -0.39786397949795 -0.56560357325733
 7  1.61421991469147  1.87610804330433 -0.41047262486249
 7 -3.34711670067007 -3.18910002300230  0.71372769136914
 7 -0.77116561226123  2.92852400180018 -0.16138998479848
 6  0.57407967226723 -2.28403636203620 -1.47297959305931
 6  0.86769967226723 -0.97942517421742 -0.96654550345035
 6 -0.72782691139114 -2.56557491969197 -1.24455651835184
 6 -1.33130355235524 -1.34731504290429 -0.70945007500750
 6  3.79982844364436  1.48270143664366 -0.26436070287029
 6  2.53630573637364  0.87471929742974 -0.47525171017102
 6  2.18681393159316 -0.35680293819382 -0.89018849344935
 6  3.60730137023702  2.87512731493149  0.09230722102210
 6  1.55378678377838 -3.33632533383338 -2.10006735233523
 6 -5.54346325302530 -2.86347196209621  1.38344560886089
 6 -3.64719857915792 -1.88103307920792  0.19033496529653
 6  2.14824913701370  3.07116711091109  0.08147577097710
 6 -4.97008970527053 -1.67931689558956  0.48509255315532
 6  5.05583084498450  0.73825874277428 -0.21053001170117
 6 -2.64011882758276 -0.92712126752675 -0.42817929172917
 6 -1.48001766386639 -3.79868962206221 -1.74171448824882
 6 -4.30487015541554 -3.71707593939394  1.46116124172417
 6  2.20365149884988 -4.44730375407541 -1.00436966376638
 6  5.37149595199520 -0.23315143864386  0.85160770797080
 6  4.51348741004100  3.97025987528753  0.65697789808981
 6  1.19606828522852  4.16861141144114  0.33572529312931
 6 -6.83840849144914 -3.60797557735774  0.99148821092109
 6 -5.83728330893089 -0.66573235723572  0.17705487238724
 6 -0.15972389168917  4.08218646844684  0.17464927682768
 6 -1.14716981558156  5.10029756345635  0.45109357485749
 6 -2.35404487818782  4.68422992439244  0.16683258925893
 6  3.17310389238924 -4.04471714191419 -0.08922123292329
 6 -5.53568727822782  0.54492978157816 -0.62722418721872
 6  6.72069194819482 -0.83796926652665  0.83614451265127
 6 -3.66394393729373  5.34588564706471  0.14057856855686
 6 -2.18843839543954  3.17091205220522 -0.09566533633363
 6 -0.72303289438944  6.53457912791279  0.88813786538654
 6 -4.28859842244224  5.59399535623562 -1.23984307580758
 1 -0.30621220612061  0.39109597539754  0.07931819211921
 1  3.14862222322232 -0.94109225042504 -1.17505759315932
 1  2.50788066936694 -2.99031062766277 -2.74884143124312
 1  0.92914392059206 -4.18248235913591 -2.82528088818882
 1 -5.75721744904490 -2.60140876557656  2.56390693059306
 1  5.21287379987999  0.10060944234423 -1.14754510181018
 1  5.93279184658466  1.38908843694369 -0.21738531313131
 1 -2.88155437313731  0.20615840614061 -0.47955835333533
 1  0.54759198979898  1.93969381328133 -0.52983042854285
 1 -1.51421615741574 -4.63269784028403 -0.92352186198620
 1 -2.47143725472547 -3.55785637203720 -1.95504363746375
 1 -1.04273945384538 -4.27304437323732 -2.60044563386339
 1 -2.40612299859986 -3.58126785748575  0.76258892409241
 1  1.42250307960796 -5.03627632593259 -0.35679106900690
 1  2.77419352375238 -5.10069417631763 -1.69817519941994
 1  4.66154138713871 -1.11348251165116  0.83703343944394
 1  5.43342768816882  0.50976701540154  1.65917372047205
 1  4.33748427402740  5.05729614601460  0.20103873207321
 1  5.57843093479348  3.88223575677568  0.34755054465447
 1  4.42464949754975  4.17315278737874  1.76116183308331
 1  1.56252703130313  5.18931810921092  0.57548862406241
 1 -7.85943751205120 -2.86106118961896  1.28935020462046
 1 -6.93249731363136 -4.49991637373737  1.65850169056906
 1 -6.84138983598360 -3.87611502760276  0.03271535993599
 1 -6.94602912521252 -0.90077098559856  0.54263226432643
 1 -5.07493646574657  1.19692451335134 -0.17569483078308
 1 -6.62121049844985  1.01849092409241 -1.03418773487349
 1 -4.79995930793079  0.54220438263826 -1.53931069586959
 1 -3.70917290279028  6.30120452555256  0.75470234673467
 1 -4.30019145734574  4.55917824972497  0.43009903620362
 1 -0.29893903840384  6.60190075547555  1.72371221282128
 1 -1.48448455875588  7.49073252795280  0.82008135983598
 1  0.10156932493249  6.80750303600360  0.12840379747975
 1 -3.46563447044704  6.21522914861486 -1.92155635813581
 1 -5.26318902610261  6.21009412551255 -1.06110598779878
 1 -4.48203168006801  4.67416758705871 -1.77505701370137
 1  4.17208560906091 -4.61763797629763  1.64279506190619
 1  7.67535556015602 -2.14015340434043  1.82465984898490

