%nproc=4
%Mem=2GB
# td=(NStates=1) B3LYP/SVP 

TD

0 1
 8 -4.21551306210621 -4.85912028322832  1.89633366176618
 8  3.16848087678768 -4.89757106390639  1.06495063236324
 8  6.90564686898690 -1.57514478417842  1.80807348684868
 8  3.83071812931293 -3.17726575157516 -0.13459679907991
 8  7.58998853545355 -0.58704859996000 -0.04772080478048
 8 -3.00804639073907  2.48230628142814 -0.41437299869987
 7 -0.31668866356636 -0.53591778487849 -0.66675368826883
 7  1.47857635033503  1.87614804730473 -0.33177475507551
 7 -3.34888687768777 -3.06740785378538  0.66686300490049
 7 -0.72804129982998  2.96968811821182 -0.05491933773377
 6  0.56655892019202 -2.45585354375438 -1.42302459755976
 6  0.95772867516752 -1.02754998669867 -0.91638048694869
 6 -0.71698582728273 -2.70338870107011 -1.21485354805481
 6 -1.31093151515152 -1.34073438483848 -0.71840097009701
 6  3.76790525132513  1.49492265876588 -0.17636190299030
 6  2.46672877867787  0.86747857335734 -0.54317850285029
 6  2.16416166636664 -0.47516477437744 -0.89377885248525
 6  3.53879451955196  2.81542134433443  0.08240623092309
 6  1.54271567666767 -3.43349505080508 -1.98632597819782
 6 -5.53028193489349 -2.82031764666467  1.32766003030303
 6 -3.56673053235324 -1.81364634053405  0.22195812761276
 6  2.09315362746275  3.02300229442944 -0.00332270887089
 6 -4.98949164546455 -1.58473743764376  0.58624266816682
 6  5.06000126202620  0.81846676357636 -0.36010496919692
 6 -2.69387420312031 -1.02836139153915 -0.39175564936494
 6 -1.55728539063906 -3.84597435053505 -1.65399571637164
 6 -4.30992066046605 -3.75349958175818  1.35843096869687
 6  2.07907904160416 -4.53066208990899 -0.95275450225023
 6  5.43783258565857  0.01105298179818  0.86464901210121
 6  4.54252031333133  3.89133198249825  0.42349454975498
 6  1.29478815721572  4.18302285258526  0.32921464206421
 6 -6.70197484808481 -3.61568634843484  0.61398046014602
 6 -5.78086766736674 -0.50887667166717  0.11349851675168
 6 -0.14902282158216  4.12628087788779  0.24960677257726
 6 -1.09543464206421  5.22980051375138  0.53053151865187
 6 -2.37217669136914  4.68477997939794  0.25756166216622
 6  3.05276185818582 -4.11885455565557  0.06397408660866
 6 -5.42168587808781  0.59405469406941 -0.73724518931893
 6  6.76024590359036 -0.66417188678868  0.82460335853585
 6 -3.70216775967597  5.27030808930893  0.32518702940294
 6 -2.12216176777678  3.29906486748675 -0.14468023782378
 6 -0.55945653675368  6.53361903190319  0.91744079567957
 6 -4.41360092269227  5.44455041174117 -1.09169826132613
 1 -0.50897248214821  0.46325319111911 -0.23021276097610
 1  3.03284064506451 -1.25093323452345 -0.95247533493349
 1  2.48418830013001 -2.85095669226923 -2.57689423652365
 1  1.10257126332633 -3.78445255615562 -2.92976133623362
 1 -5.60456218351835 -2.59954857955796  2.28899943984398
 1  5.39114162666267  0.40077945934593 -1.39252960026003
 1  5.81354992239224  1.71947147524752 -0.46935050965096
 1 -2.77765398309831 -0.01866407610761 -0.64777517501750
 1  0.52862009260926  1.85517536143614 -0.47409485498550
 1 -1.26705144094409 -4.78748331883188 -0.90487999779978
 1 -2.68709882088209 -3.87298788518852 -1.72079021212121
 1 -1.06652183208321 -4.34023109190919 -2.63699928922892
 1 -2.45742812911291 -3.64893462416242  0.57666033123312
 1  1.20213104240424 -5.03331602990299 -0.34331972187219
 1  2.65898200260026 -5.39833394029403 -1.49472485438544
 1  4.80377561056106 -1.01323248664866  0.95458519461946
 1  5.53418776417642  0.40932697139714  1.89332713581358
 1  4.38349887548755  5.00893130953095 -0.00647201900190
 1  5.59489258095810  3.77899543274327 -0.12964717511751
 1  4.43244027662766  3.79305477757776  1.55800151705170
 1  1.72210298889889  5.13552272967297  0.38444952015202
 1 -7.68904047234723 -2.84131921542154  0.33440471007101
 1 -7.18488255215522 -4.42614899699970  1.16862270267027
 1 -6.24250994799480 -3.97073448954896 -0.33060097169717
 1 -6.94905942824282 -0.51942285078508  0.35701370247025
 1 -5.11073004510451  1.43469829072907 -0.13640090139014
 1 -6.37162553995400  0.91073014801480 -1.37649196529653
 1 -4.62837214921492  0.62931309350935 -1.61198796359636
 1 -3.66129811531153  5.98872327742774  0.99661653815382
 1 -4.44857629582958  4.62335466736674  0.97821384768477
 1  0.14381523702370  6.52322288768877  1.82727256885689
 1 -1.48278438873887  7.10147360206021  1.35755510721072
 1 -0.08193902590259  6.88642092779278  0.06902785988599
 1 -3.65084299129913  5.94970259595960 -1.79126332883288
 1 -5.33650635783578  5.96203932003200 -0.99016889408941
 1 -4.50678415531553  4.26384655495550 -1.49102861086109
 1  3.94559295979598 -4.53877008950895  1.51174195659566
 1  7.79029705430543 -2.20257964696470  1.76304368736874

