%nproc=4
%Mem=2GB
# td=(NStates=1) B3LYP/SVP 

TD

0 1
 8 -4.17707921872187 -4.81203557475748  1.93105713411341
 8  2.91483551225123 -4.86633794059406  1.04636877417742
 8  6.99009531383138 -1.37363463316332  2.12690537003700
 8  3.77802285978598 -3.16217424242424 -0.13909724912491
 8  7.66067560416042 -0.53060295539554  0.08787275457546
 8 -3.08794438053805  2.32351040184018 -0.13079464086409
 7 -0.31859885458546 -0.47229142224222 -0.65685269816982
 7  1.53594208690869  1.83842427492749 -0.48425000260026
 7 -3.19929191819182 -3.10950206320632  0.68957527612761
 7 -0.76729522522252  2.84134528392839 -0.14321816761676
 6  0.53540580488049 -2.33672163056306 -1.35223751885189
 6  0.89571247354735 -1.06422365406541 -1.00938978787879
 6 -0.74864899359936 -2.55237359955996 -1.32224428712871
 6 -1.33103352535254 -1.36170648204820 -0.86294542454245
 6  3.80716917771777  1.50046321282128 -0.44161842864286
 6  2.48365047084708  0.84929675517552 -0.60838502350235
 6  2.17250250045005 -0.53899115701570 -0.83472294689469
 6  3.53735437553755  2.80233003520352 -0.03631564126413
 6  1.59543094819482 -3.30369207050705 -2.01663900950095
 6 -5.41752065876588 -2.72923853875388  1.32024928922892
 6 -3.56196005530553 -1.83046802270227  0.23297922972297
 6  2.17419173127313  2.93529352355235 -0.11915429202920
 6 -5.01501419771977 -1.62429139303930  0.53984802870287
 6  5.15856111801180  0.69542445934593 -0.33606256495650
 6 -2.64291910761076 -0.95290384578458 -0.39194566836684
 6 -1.52426208830883 -3.68047780088009 -1.89906022282228
 6 -4.22382205060506 -3.72767699949995  1.39113423902390
 6  1.96097723142314 -4.43125214891489 -1.10802002880288
 6  5.45232403480348  0.01414329082908  0.94224677187719
 6  4.54927098839884  3.83440628992899  0.36287848814881
 6  1.28316699509951  4.03238778907891  0.31761348194819
 6 -6.87429207980798 -3.32462724252425  0.98440750285028
 6 -5.84622420302030 -0.58708449244925  0.07588475537554
 6 -0.10302822212221  3.98488673847385  0.26324813671367
 6 -1.05126022462246  5.00740827452745  0.42095056055606
 6 -2.33952342604260  4.60753225462546  0.26738264426443
 6  3.03072965496550 -4.03905657585759 -0.07308961976198
 6 -5.44002771227123  0.49275456405641 -0.89810127492749
 6  6.81920179917992 -0.64031950155015  0.98156905510551
 6 -3.63090063296330  5.28131919041904  0.36282079277928
 6 -2.13310286188619  3.15805076607661 -0.04729049884988
 6 -0.64818540964096  6.45961163116312  1.02001105270527
 6 -4.45448501110111  5.36311226792679 -1.04551364286429
 1 -0.34610619551955  0.36973383918392  0.01040130043004
 1  3.07957531853185 -1.21148929012901 -0.87206729412941
 1  2.56704658595860 -2.68664026062606 -2.39988653575357
 1  1.38122912911291 -3.60230434133413 -3.14714307440744
 1 -5.23939566686669 -2.25014363906391  2.36833737363736
 1  5.24203671617162 -0.08515913451345 -1.12226257355736
 1  5.98778734613461  1.38609813791379 -0.64955853045304
 1 -2.80494671237124  0.10543833413341 -0.41105150265027
 1  0.49682691329133  2.02622246614661 -0.74132157765777
 1 -1.69663439923992 -4.58265283578358 -1.32151166096610
 1 -2.54225433643364 -3.35845643204320 -2.30666879998000
 1 -1.05759093899390 -4.02504957375738 -2.79557514681468
 1 -2.23852623892389 -3.59205893659366  0.65684835003500
 1  1.02628345764576 -4.91942464076408 -0.56993238313831
 1  2.41980808520852 -5.31313542044204 -1.75117049894989
 1  4.70528576157616 -0.92883404680468  1.11308104420442
 1  5.12851719711971  0.50467650635064  1.84527233033303
 1  4.23250377597760  4.73943435983598 -0.22419379117912
 1  5.50176326802680  3.68122565576558  0.26525231483148
 1  4.14439147174717  4.19137460956096  1.32819853675368
 1  1.79825060366037  4.95339451685169  0.63374444964496
 1 -7.58375994429443 -2.60699578307831  1.29826109570957
 1 -6.99244330823082 -4.32454883698370  1.42017785818582
 1 -6.87278297529753 -3.47176459255926 -0.26714462606261
 1 -6.91962648494849 -0.77179808830883  0.21321932303230
 1 -5.11632060416042  1.31380620152015 -0.28203546484648
 1 -6.30544892229223  0.79528860386039 -1.54963928002800
 1 -4.81153046504650  0.20027018921892 -1.57175394019402
 1 -3.45923790929093  6.30525493059306  0.87021389788979
 1 -4.26074751295130  4.62018435033503  0.99843586988699
 1  0.17948880438044  6.14111467686769  1.81542138373837
 1 -1.59743585388539  6.97227068176818  1.20899025072507
 1  0.06206537453745  6.88426071177118  0.29947090419042
 1 -3.96260416741674  6.17647527322732 -1.82853705620562
 1 -5.53131583878388  5.73823693979398 -0.95779565676568
 1 -4.26629010591059  4.48336850715072 -1.62810231823182
 1  3.53720212071207 -4.23477969046905  1.58081886428643
 1  8.02985100970097 -1.81025041404140  2.28063544654465

