%nproc=4
%Mem=2GB
# td=(NStates=1) B3LYP/SVP 

TD

0 1
 8 -3.96150766156616 -4.76282065326533  2.05192922132213
 8  3.00496452515251 -4.73373468026803  1.02165630293029
 8  6.66652295659566 -1.82199946964696  1.89779245874587
 8  3.88077313481348 -3.14025205020502 -0.20549388878888
 8  7.46643618021802 -0.50015991109111  0.19028299559956
 8 -3.10252583868387  2.36418446924692 -0.41233279467947
 7 -0.29412640734073 -0.41234542764276 -0.76516352925293
 7  1.57337583028303  1.86773720622062 -0.51040261786179
 7 -3.20156214521452 -3.07875898889889  0.67899421802180
 7 -0.73855235093509  2.92062321172117 -0.25211905770577
 6  0.58447071137114 -2.35413337173717 -1.47675997109711
 6  0.85506840914091 -0.95858309000900 -1.18400724962496
 6 -0.80310443914391 -2.56453481568157 -1.33110517321732
 6 -1.32572299429943 -1.39474978637864 -0.73262239223922
 6  3.73466192699270  1.52680584708471 -0.25630989778978
 6  2.46234834063406  0.87228905440544 -0.65639982498250
 6  2.21938718891889 -0.45328258615862 -1.04977445204520
 6  3.54745538563856  2.88199800200020  0.15269325962596
 6  1.58455986108611 -3.36600830213021 -2.01121846744674
 6 -5.37176608330833 -2.84688030293029  1.42454971927193
 6 -3.57322118141814 -1.80114509040904  0.22838877067707
 6  2.09995430753075  3.03517351155116 -0.00497287388739
 6 -4.94426712301230 -1.65366433033303  0.57534157805781
 6  5.04935019691969  0.80366528342834 -0.26918587728773
 6 -2.59302411811181 -0.94097265266527 -0.34466093989399
 6 -1.50657031913191 -3.76863661676168 -1.71935225202520
 6 -4.20356002440244 -3.68085231703170  1.43986911251125
 6  2.17453858755876 -4.40227925162516 -1.15742496929693
 6  5.25752455485549 -0.19680780428043  0.94170671787179
 6  4.51273733503350  3.83217606690669  0.65976817711771
 6  1.24476315471547  4.03112766306631  0.49260098069807
 6 -6.63207785838584 -3.57949272907291  1.00338940104010
 6 -5.73814339493949 -0.61642742674267  0.27179434633463
 6 -0.10039795909591  4.01044929472947  0.22868468036804
 6 -1.07425252385239  5.13343087678768  0.39373783928393
 6 -2.31508098179818  4.61394289568957  0.14267017301730
 6  3.15265184718472 -4.07020969116912 -0.10381269206921
 6 -5.44727843734373  0.50402569116912 -0.68224968976898
 6  6.54422430143014 -0.83159862946295  0.98228912711271
 6 -3.68226576947695  5.20719177767777  0.21330584128413
 6 -2.11292084368437  3.19233419441944 -0.32188795859586
 6 -0.76831742284228  6.44491016101610  0.93627267886789
 6 -4.25974553715372  5.75083103980398 -1.15966505800580
 1 -0.28082966786679  0.44641150695070 -0.22094183388339
 1  2.99282664366437 -1.12731087228723 -1.18400848824882
 1  2.27549743104310 -2.77424902150215 -2.52321886898690
 1  1.00863186938694 -3.82995710661066 -2.81090945104510
 1 -5.75682741004101 -2.48764738943894  2.46737727762776
 1  5.26576908940894  0.29774915631563 -1.04965531283128
 1  5.71270983838384  1.59316884498450 -0.13153672827283
 1 -2.89568578627863  0.00341813211321 -0.28864926242624
 1  0.60182741334133  1.86774661856186 -0.66943438893889
 1 -1.63742847864787 -4.70629520002000 -1.05567507730773
 1 -2.53491360236024 -3.46059664606461 -1.97249538263826
 1 -1.14876005590559 -4.19794686348635 -2.43413900320032
 1 -2.27173956025603 -3.49406913761376  0.62640530573057
 1  1.49004983428343 -5.27327002530253 -0.64632002190219
 1  2.60370647504750 -5.08014212111211 -1.83026840874087
 1  4.51225645864586 -0.91373253665367  1.11325106120612
 1  5.09633397879788  0.39202524122412  1.73325112821282
 1  4.22453297889789  4.77242765916592  0.33511213941394
 1  5.69181227292729  3.69182671587159  0.45894168376838
 1  4.20698773137314  4.03400887298730  1.59884560146015
 1  1.68847962656266  4.87610678807881  0.99845092029203
 1 -7.60229179747975 -2.93584866836684  1.05713698329833
 1 -6.65998006190619 -4.47312369446945  1.47418325872587
 1 -6.66723242024202 -3.59492690879088 -0.24059197079708
 1 -6.78296281858186 -0.71867277577758  0.49752775387539
 1 -4.72209118121812  1.36044086498650 -0.11789905120512
 1 -6.29229760716072  0.90916999199920 -1.29394371047105
 1 -4.86001531353135  0.32815297749775 -1.45043180798080
 1 -3.50745273077308  6.15882028712871  0.97303417991799
 1 -4.10900233843384  4.44285661756176  0.87786381268127
 1 -0.13145228972897  6.48878944434443  1.83525336693669
 1 -1.62847895819582  7.03867732243224  1.16284563626363
 1 -0.06177700970097  6.92814510021002  0.13841479857986
 1 -3.53920182718272  6.39063668936894 -1.57595179767977
 1 -5.20469317651765  6.45279839593959 -0.97369724692469
 1 -4.38989246614662  4.84699486978698 -1.69651915991599
 1  3.62923132363236 -4.29701591409141  1.75287607000700
 1  7.48400642524252 -2.17555694469447  1.66759414241424

