%nproc=4
%Mem=2GB
# td=(NStates=1) B3LYP/SVP 

TD

0 1
 8 -4.23432494329433 -4.74921929312931  1.99820384878488
 8  3.03975800450045 -4.88738004480448  0.96993113041304
 8  7.00575687998800 -1.49657692739274  1.87310999049905
 8  3.73971902940294 -3.03935196019602 -0.04395773517352
 8  7.62036157275728 -0.22233212831283  0.03385735303530
 8 -2.98038362446245  2.35523357415742 -0.41380294169417
 7 -0.28176517121712 -0.53617781088109 -0.73097010991099
 7  1.44174266696670  1.76210664316432 -0.29874145174517
 7 -3.25990797979798 -3.03609472247225  0.78751507010701
 7 -0.85441393709371  2.88909005840584 -0.05976982278228
 6  0.61045330963096 -2.44644260266027 -1.47971026612661
 6  0.91801470377038 -1.18470570227023 -0.99253810271027
 6 -0.79662379107911 -2.68456681888189 -1.28283034573457
 6 -1.32951337333733 -1.39963027442744 -0.88739786978698
 6  3.75337379817982  1.40619378587859 -0.29832409920992
 6  2.43610571637164  0.84213603910391 -0.49159334433443
 6  2.21925717591759 -0.46002326022602 -0.96199567416742
 6  3.51941258135814  2.74513431563156  0.18692668296830
 6  1.60350175527553 -3.41961366266627 -2.04125147074708
 6 -5.44951385808581 -2.74338995389539  1.33636090039004
 6 -3.58207206650665 -1.82909788568857  0.18610454225423
 6  2.06668098019802  2.89661965616562  0.20178780218022
 6 -5.04502719901990 -1.60102906680668  0.48182222612261
 6  5.03453871577158  0.83554847174717 -0.43637259595960
 6 -2.66031084678468 -0.99312786818682 -0.53970044384438
 6 -1.46077573967397 -3.89523927702770 -1.72060237703770
 6 -4.18012768116812 -3.62110634243424  1.40560568616862
 6  2.07032816651665 -4.47855687938794 -1.10048927572757
 6  5.30922972537254 -0.15748387188719  0.80682322952295
 6  4.50132619391939  3.77652050135014  0.58982118241824
 6  1.30455913431343  4.13458800910091  0.44518623922392
 6 -6.69705435603560 -3.44003878367837  0.85851491359136
 6 -5.87062664326433 -0.58446423042304  0.10690785768577
 6 -0.07440535983598  4.02234048384838  0.28965077697770
 6 -1.02447754635464  5.15237277097710  0.43512197769777
 6 -2.27468694239424  4.66318782018202  0.24220012601260
 6  3.01636821882188 -4.03894656485649 -0.01200351115112
 6 -5.57873158265827  0.57311259985999 -0.74325579037904
 6  6.73871375037504 -0.65094056365637  0.80149104730473
 6 -3.62530007290729  5.31665272377238  0.27322183288329
 6 -2.11675122672267  3.20684564556456 -0.15798156795680
 6 -0.67922851395140  6.57164283428343  0.87216626822682
 6 -4.19350891349135  5.42055801250125 -1.09272836433643
 1 -0.26774835973597  0.28767563336334 -0.12590232993299
 1  3.02150951195120 -1.12796093729373 -0.98485857325733
 1  2.60147002830283 -3.15007660426043 -2.45226177327733
 1  1.25301630783078 -3.98184229512951 -2.90956931703170
 1 -5.61468319561956 -2.22101072577258  2.41037157705771
 1  5.07891040354035  0.21496087748775 -1.21204155145515
 1  5.85814438183818  1.46448597669767 -0.47322089668967
 1 -2.80511672937294  0.00459825012501 -0.66866726422642
 1  0.47204443504350  1.85308515241524 -0.69693713921392
 1 -1.14934967076708 -4.62155672617262 -0.83647315711571
 1 -2.48411852285229 -3.66459704610461 -1.66672480558056
 1 -1.32724790469047 -4.23470053885389 -2.65163075237524
 1 -2.32809519581958 -3.54141387208721  0.57903056825683
 1  1.32485331463146 -4.98611130943094 -0.42709809970997
 1  2.76769287368737 -5.23990809770977 -1.70233561546155
 1  4.80647588058806 -1.03896505990599  0.76871660776078
 1  5.03253759915992  0.53325936463646  1.65729353245325
 1  4.33840436603660  4.58225864226423 -0.06339771157116
 1  5.45899899159916  3.33988152135214  0.47475326492649
 1  4.49163619621962  3.94884035613561  1.77533325022502
 1  1.65074585318532  4.99823900130013  0.57177825302530
 1 -7.60029159745975 -2.76858194169417  0.77531880148015
 1 -6.81450551445145 -4.45364174627463  1.34411025142514
 1 -6.68484418141814 -3.52734015011501 -0.13270118171817
 1 -6.86616113841384 -0.79824073257326  0.37785578667867
 1 -4.81709068116812  1.43024784568457 -0.40828809010901
 1 -6.45405378277828  1.16656573157316 -0.99047336343634
 1 -4.94994430643064  0.40989115131513 -1.68969573437344
 1 -3.61390337583758  6.21416582168217  1.04282115861586
 1 -4.30887232543254  4.69124145604560  0.94381040734073
 1 -0.05974511901190  6.52042260766077  1.82259210081008
 1 -1.64846095639564  7.08485193989399  1.14857420912091
 1 -0.09131996399640  7.30673295899590  0.20503146024602
 1 -3.56383429042904  5.96016364206421 -1.82166636913691
 1 -5.25757846504650  5.87672078817882 -1.23936381358136
 1 -4.21318479537954  4.32246241654166 -1.52971247924792
 1  3.82141054155416 -4.62719893239324  1.57287807020702
 1  7.93760178477848 -1.79637902690269  1.83455083808381

