%nproc=4
%Mem=2GB
# td=(NStates=1) B3LYP/SVP 

TD

0 1
 8 -4.32840435123512 -4.89494386558656  1.81912594099410
 8  3.06286031473147 -5.17687899469947  0.99212334963496
 8  7.04177048134814 -1.28243551325133  1.95034771427143
 8  3.75550060756076 -3.10452847784778  0.14952161276128
 8  7.59443898049805 -0.77441733683368 -0.23381941464146
 8 -3.05407099319932  2.43056110691069 -0.57787934933493
 7 -0.27540453515352 -0.52316650975098 -0.69589660256026
 7  1.55424391709171  1.82954338683868 -0.34238581618162
 7 -3.33011500050005 -3.24620573357336  0.69347566616662
 7 -0.80994949064906  2.91269241864186 -0.13146699249925
 6  0.65821808610861 -2.33327128552855 -1.45055735083508
 6  0.92806570887089 -1.05821305300530 -1.00176902580258
 6 -0.68039216791679 -2.63520188238824 -1.37442950565057
 6 -1.32432285428543 -1.48919923132313 -0.84730386038604
 6  3.77220568136814  1.59966313281328 -0.21950621742174
 6  2.44998710451045  0.91912373787379 -0.49153333833383
 6  2.20434568476848 -0.47480473837384 -0.79627910251025
 6  3.54432507260726  2.83503330553055  0.19282727302730
 6  1.75214661976198 -3.24460616191619 -1.99427677327733
 6 -5.53298220492049 -2.74639025392539  1.44201146544654
 6 -3.59731359065907 -1.89699467536754  0.21362729452945
 6  2.08788310041004  3.05441543574357  0.14485210861086
 6 -5.00082277857786 -1.59482844674467  0.60721476537654
 6  5.14810007190719  0.81614653155316 -0.43522248094809
 6 -2.70545536123612 -1.18302685808581 -0.53961043484348
 6 -1.43680334243424 -3.79429918301830 -1.91191150795080
 6 -4.33588325672567 -3.77224145594559  1.38636376197620
 6  2.10297143084308 -4.49912893659366 -0.99945917271727
 6  5.44714351675167  0.08096997349735  0.83820636783678
 6  4.51495755705571  3.87567041634163  0.62300450075008
 6  1.20898957735774  4.13557810811081  0.42567428802880
 6 -6.75161981258126 -3.34228900870087  0.96529559165917
 6 -5.76282586318632 -0.42406819081908  0.33326049294929
 6 -0.22089000830083  4.04693294309431  0.24966677857786
 6 -1.20675577417742  5.16364389808981  0.51478994449445
 6 -2.36027550125013  4.60891239263926  0.15973187918792
 6  3.10323690569057 -4.07975064526453  0.08572626182618
 6 -5.55498920842084  0.65269055765577 -0.58032949774978
 6  6.79130900990099 -0.74031950155016  0.66969786798680
 6 -3.77718526142614  5.25160621912191  0.24313882458246
 6 -2.20508005960596  3.13326828782878 -0.24305007480748
 6 -0.63966455755576  6.48526419641964  0.96443549514951
 6 -4.15965552815282  5.57335329202920 -1.28793788528853
 1 -0.46845843074307  0.21382824862486 -0.13568330803080
 1  3.15835319631963 -0.91459960116012 -1.10694078147815
 1  2.60556043734373 -2.68136973357336 -2.33206975407541
 1  1.33711471767177 -3.72967707860786 -2.95542390249025
 1 -5.61727345464546 -2.51703032773277  2.51898243814381
 1  5.00861337383738 -0.00670128872887 -1.28768911621162
 1  5.89846841424142  1.42030155825583 -0.97355092969297
 1 -2.82815903360336 -0.14003621332133 -0.61859225672567
 1  0.36122335293529  1.93289313321332 -0.22637008250825
 1 -1.11750648644865 -4.74210878137814 -1.17229673947395
 1 -2.50624073507351 -3.64582516891689 -2.08222635573557
 1 -1.00633581348135 -4.13654072287229 -2.77859344864486
 1 -2.50420280658066 -3.72560229092909  0.54190685588559
 1  1.13919474877488 -4.97091979027903 -0.60861625152515
 1  2.50170627502750 -5.33474758165817 -1.57765314721472
 1  4.54817005000500 -0.71890305370537  1.02967270337034
 1  5.82061640704070  0.76913295199520  1.67073487658766
 1  4.53435396099610  4.76836725312531  0.18377700590059
 1  5.57266035773577  3.43644117731773  0.38070385998600
 1  4.38283531613161  3.83243871597160  1.81647736463646
 1  1.79958073667367  5.05473465086509  0.61892296749675
 1 -7.75543711201120 -2.74820990449045  1.04628589818982
 1 -7.07998206210621 -4.36943332543254  1.45521136153615
 1 -6.87030272727273 -3.58935635173517 -0.20219813141314
 1 -6.95763028532853 -0.43522443094309  0.73242124322432
 1 -4.91985095719572  1.53869869076908  0.00883362206221
 1 -6.30514889228923  1.23102217721772 -0.78962327842784
 1 -5.00870018201820  0.52301246344634 -1.63433019781978
 1 -3.83170515601560  6.10524492959296  1.10820769726973
 1 -4.52130356855686  4.36096842874287  0.52996902320232
 1 -0.42775191969197  6.44501506690669  2.13585342694269
 1 -1.42990910121012  7.27540099479948  0.90571992369237
 1  0.25921508950895  6.97902018771877  0.45942689978998
 1 -3.25232313931393  6.10978860456046 -1.76470067256726
 1 -5.02725543274327  6.22803591969197 -1.19539941714171
 1 -4.63978745564556  4.59949011931193 -1.68610811881188
 1  3.76505490599060 -4.98729494199420  1.83335411781178
 1  7.89016704130413 -1.65793518251825  1.80579796279628

