%nproc=4
%Mem=2GB
# td=(NStates=1) B3LYP/SVP 

TD

0 1
 8 -4.32328383918392 -4.92358672987299  1.73190721912191
 8  3.23730775947595 -5.08111941874187  1.03422756005601
 8  6.92400870517052 -1.49350662036204  2.02176485598560
 8  3.87216227372737 -3.13826185118512 -0.24982832223222
 8  7.54357389398940 -0.66309620472047  0.04671863916392
 8 -3.00540612671267  2.35967401820182 -0.35386694809481
 7 -0.27120411511151 -0.48158235133513 -0.61127814071407
 7  1.56889538223822  1.96291672417242 -0.43430500810081
 7 -3.31766375537554 -3.10744185718572  0.69417573617362
 7 -0.75014351005101  2.87190834023402 -0.00034388018802
 6  0.61237350165017 -2.36543450185019 -1.46210850595059
 6  0.94793769606961 -1.00316754845485 -1.01440028892889
 6 -0.75398952765277 -2.53433179537954 -1.26893895659566
 6 -1.33238366036604 -1.38626893829383 -0.63511264126413
 6  3.79673813461346  1.55889905640564 -0.29495376217622
 6  2.51108321412141  0.91026285178518 -0.63204738973897
 6  2.25644089428943 -0.34719197709771 -0.94500397499750
 6  3.53642428252825  2.92917271947195  0.09346733703370
 6  1.59119052415242 -3.36235793709371 -1.95601294689469
 6 -5.50590949764976 -2.81081669656966  1.45356262056206
 6 -3.59575343464346 -1.83487846374637  0.21166709850985
 6  2.14697901000100  3.07927792199220 -0.00995337193719
 6 -4.98786148244824 -1.59749871377138  0.62620666456646
 6  5.11538680058006  0.89276419331933 -0.34065302400240
 6 -2.64775959165917 -1.04576313171317 -0.26838331213121
 6 -1.47186684878488 -3.74179393249325 -1.92415273207321
 6 -4.34340400880088 -3.82813704550455  1.31169629522952
 6  1.92397353105311 -4.49508853255326 -0.89727895469547
 6  5.21036983938394 -0.20682880638064  0.78708125532553
 6  4.53117917921792  3.91151400070007  0.42848504880488
 6  1.30037871627163  4.10379492979298  0.44444616521652
 6 -6.75813046364636 -3.57694247404740  0.83974303640364
 6 -5.83640322092209 -0.61149693369337  0.20917808470847
 6 -0.12535045434543  4.01830007980798  0.29236104800480
 6 -1.08919401800180  5.18548608230823  0.38818728422842
 6 -2.32562203590359  4.64559606100610  0.13808971497150
 6  3.09196577857786 -4.13283595379538  0.02819050825083
 6 -5.50529423892389  0.58888417701770 -0.60207167196720
 6  6.71609148814882 -0.71256672627263  0.88284918311831
 6 -3.69592713561356  5.28962002050205  0.26858136883688
 6 -2.13710326192619  3.23010797179718 -0.10024579437944
 6 -0.66703729482948  6.55996166616662  0.78376742834283
 6 -4.26414597719772  5.54987094379438 -1.13028211971197
 1 -0.14194577947795  0.52849971577158  0.00725098539854
 1  3.03891125212521 -1.00181832303230 -1.17843793119312
 1  2.55696557785779 -3.05872746934694 -2.23755030213021
 1  1.38756976317632 -3.92607671857186 -3.04158251835183
 1 -5.65421714901490 -2.59173779847985  2.56007654755476
 1  4.84099661216122  0.19031841324132 -1.25922626992699
 1  6.00822939033903  1.51109063716372 -0.29984355895590
 1 -2.96181239893989  0.08357614791479 -0.10860125762576
 1  0.42599983058306  2.09963980788079 -0.34879232473247
 1 -1.54539927572757 -4.75216978747875 -1.30356986678668
 1 -2.62348245924592 -3.55692627902790 -1.99994812791279
 1 -1.00423560346035 -4.08608567736774 -2.96608219751975
 1 -2.36088847514751 -3.48833856455646  0.78806147134713
 1  1.05733656295630 -4.80429312761276 -0.25629101900190
 1  2.22955906030603 -5.48146225312531 -1.36140152205221
 1  4.71716694969497 -1.11766292969297  0.46964670077008
 1  4.64008835423542  0.19291533023302  1.74607241034103
 1  4.66271679727973  4.91942235863586 -0.46466783858386
 1  5.54658775047505  3.31449898309831  0.56972276187619
 1  4.24602163476348  4.30438591069107  1.39878559545955
 1  1.63741452005201  5.12746192359236  0.97518859405941
 1 -7.65601717001700 -3.11120620412041  1.20662193179318
 1 -6.86632069596960 -4.66288267036704  1.06080192059206
 1 -6.69168486548655 -3.52943035913591 -0.34237214881488
 1 -6.87669219151915 -0.65986689518952  0.51268927002700
 1 -4.74386335843584  1.48850367126713 -0.25788304960496
 1 -6.49684806220622  1.32762183718372 -1.02562687878788
 1 -4.97085639763976  0.28472863506351 -1.50883764856486
 1 -3.45321730723072  6.32113651875188  0.55207208370837
 1 -4.52529396759676  4.82406473837384  0.72499852615262
 1 -0.19327847234723  6.59238980438044  1.76087592919292
 1 -1.44717082738274  7.32051550625062  0.77436678837884
 1 -0.05598643064306  7.04307659335934 -0.16594563746375
 1 -3.72526043304330  6.15842346804681 -1.66068027052705
 1 -5.25212791999200  5.90604372047205 -0.91140101730173
 1 -4.30808428532853  4.66306647694770 -1.71264077207721
 1  4.10447884838484 -4.73505971847185  1.67420820322032
 1  7.81213923852385 -1.79307869686969  1.78052543554355

