%nproc=4
%Mem=2GB
# td=(NStates=1) B3LYP/SVP 

TD

0 1
 8 -4.20343185398540 -4.85667003820382  1.83640766916692
 8  3.09642367106711 -4.90971227802780  1.08982311961196
 8  6.65052135643564 -1.82776004570457  1.77987066656666
 8  3.96069112661266 -3.07966599159916 -0.01353469286929
 8  7.55038457505751 -0.58387828292829  0.11326529382938
 8 -3.11690727682768  2.44995304610461 -0.15604716611661
 7 -0.18449544424442 -0.54210840394039 -0.58552556545655
 7  1.53450194289429  1.87418785128513 -0.40013159075908
 7 -3.23603559255926 -3.04709582258226  0.65686200480048
 7 -0.82145064076408  2.88276942634263 -0.19733357915792
 6  0.66571883618362 -2.39619757815782 -1.41338363346335
 6  0.96779968226823 -1.07200443214321 -1.00168901780178
 6 -0.70620474917492 -2.57288565076508 -1.21571363406341
 6 -1.36160658265827 -1.30328063946395 -0.75594472447245
 6  3.80663912471247  1.47292045854585 -0.30075434223422
 6  2.47396950275028  0.85939776527653 -0.59525371037104
 6  2.34613986418642 -0.44304156205621 -0.82563203780378
 6  3.57755839593959  2.81643144534453  0.06178416871687
 6  1.70211161626163 -3.36956865816582 -2.00104745034503
 6 -5.45036394309431 -2.80885650055006  1.33262052635264
 6 -3.58879273857386 -1.90158513441344  0.13179911171117
 6  2.05932024412441  3.02905289948995 -0.04478685528553
 6 -4.94822751905191 -1.67819678357836  0.46706074997500
 6  5.01044630653065  0.76939185608561 -0.36998595729573
 6 -2.64958977467747 -0.93656221162116 -0.40980745454545
 6 -1.50579024112411 -3.75015476857686 -1.79879019581958
 6 -4.24533420182018 -3.76603083488349  1.33018814441444
 6  2.13495462916292 -4.53251227492749 -1.06535576237624
 6  5.26379518191819 -0.06702482598260  0.97458000520052
 6  4.52548861016102  3.90198304760476  0.40800300060006
 6  1.22506118451845  4.09583413371337  0.29821154175418
 6 -6.65104975557556 -3.47255203500350  0.72799186128613
 6 -5.77484706530653 -0.49882566656666  0.19822698959896
 6 -0.23924184348435  4.11062931273127  0.12335414731473
 6 -1.09105420402040  5.19709724342434  0.36041450695070
 6 -2.29734920862086  4.69887138853885  0.26870277627763
 6  3.20725730773077 -4.05869854005400  0.00047773697370
 6 -5.49521323082308  0.63880916951695 -0.56734819961996
 6  6.54202408140814 -0.82941841144114  0.85597649584959
 6 -3.65580312321232  5.29568062656266  0.38238274897490
 6 -2.20619017061706  3.21294625562556 -0.02969873967397
 6 -0.66734732583258  6.58774444444444  0.65435448704870
 6 -4.39688925152515  5.43665962266227 -0.91718080958096
 1 -0.27391897679768  0.32684955075508 -0.16149588928893
 1  3.11506886788679 -0.94428256945695 -1.04124421182118
 1  2.51711159245925 -2.78689028562856 -2.40110665776578
 1  1.28109911611161 -3.94849896079608 -2.80258861896190
 1 -5.76905863316332 -2.49484810951095  2.50523106300630
 1  4.84191670417042  0.21133051445145 -1.27485783308331
 1  6.03676224362436  1.51862139023902 -0.48268184278428
 1 -2.86291250895089  0.11869966026603 -0.45806620412041
 1  0.50697792839284  1.87716756065607 -0.66910435593559
 1 -1.83060779657966 -4.60596516701670 -0.95378488828883
 1 -2.55306541754175 -3.39326991339134 -1.93197133023302
 1 -1.15049022892289 -4.18832590139014 -2.67000258955896
 1 -2.30858324462446 -3.45150488118812  0.73712637783778
 1  1.41578240754075 -4.96291899019902 -0.45532092199220
 1  2.79034513891389 -5.13882798969897 -1.80540592249225
 1  4.45436066906691 -0.85121628502850  1.04964470057006
 1  5.42376672207221  0.73076911561156  1.86405420852085
 1  4.27600812641264  4.80455087148715 -0.47061843364336
 1  5.53584667636764  3.54645217841784  0.56022181178118
 1  4.20461749434943  4.26398187028703  1.36712242914291
 1  1.59900067866787  5.01491066846685  0.35123619881988
 1 -7.72001356965696 -2.93931901540154  0.69831110071007
 1 -6.76203026692669 -4.52414879697970  1.19909574997500
 1 -6.31302699969997 -3.95954337043704 -0.28543645524552
 1 -6.78786330863086 -0.80606151465147  0.61437943904390
 1 -5.03012198429843  1.37734255515552  0.00325306400640
 1 -6.36117449484949  1.25134420942094 -1.05605992209221
 1 -4.73887319931993  0.54654481668167 -1.32505927072707
 1 -3.57310929642964  6.16311071617162  0.89181605810581
 1 -4.17123856205621  4.63718605050505  1.19849587588759
 1 -0.34320346484648  6.84094465986599  1.73019286088609
 1 -1.50574668496850  7.25997945264526  0.40133948564857
 1  0.13210237823782  6.92239452515252 -0.13764280718072
 1 -4.09969787678768  6.20041766746675 -1.60516471897190
 1 -5.51086379357936  5.87564068016802 -0.67154703190319
 1 -4.43401687858786  4.46250642094209 -1.44945445344534
 1  3.88706710721072 -4.44669088158816  1.64174495689569
 1  7.62372039663966 -2.12506189518952  1.77265464846485

