%nproc=4
%Mem=2GB
# td=(NStates=1) B3LYP/SVP 

TD

0 1
 8 -4.18613012381238 -4.86788115931593  1.88273230163016
 8  3.01391542024202 -5.03820512731273  1.03855799309931
 8  6.89254555885589 -1.64239150885089  1.79283196269627
 8  3.68686374387439 -3.19751777677768 -0.01732507190719
 8  7.52598213481348 -0.47764765986599 -0.00669670237024
 8 -3.09155474157416  2.47052510331033 -0.32101366276628
 7 -0.22720971567157 -0.45555974907491 -0.59666667956796
 7  1.53564205690569  1.91433186568657 -0.47755933353335
 7 -3.20861285028503 -3.12065317831783  0.68818513711371
 7 -0.84984348004801  2.93456460586059 -0.06476032183218
 6  0.75279754405441 -2.42900085848585 -1.49374166926693
 6  0.99767266956696 -1.02584981668167 -0.93098194709471
 6 -0.69114324302430 -2.60843920612061 -1.33163522622262
 6 -1.19206962896290 -1.38862917431743 -0.70841997199720
 6  3.74435289608961  1.52831599809981 -0.21015528232823
 6  2.50252235803580  0.87822964846485 -0.66191037603760
 6  2.19505475567557 -0.44432169006901 -0.95827530213021
 6  3.45209584968497  2.85585538773877  0.12861085138514
 6  1.64422582768277 -3.36476817811781 -2.00435778137814
 6 -5.50056896359636 -2.82377799269927  1.34421168546855
 6 -3.53952781208121 -1.80946592249225  0.15743167496750
 6  2.01783609570957  3.06863685788579 -0.03481585818582
 6 -4.96743944024402 -1.62341130503050  0.56709075297530
 6  5.11787704960496  0.88255317221722 -0.27019597829783
 6 -2.62916773247325 -0.97922647804780 -0.42117859165917
 6 -1.43428309040904 -3.74408416151615 -1.77577789458946
 6 -4.28703837223722 -3.79084331613161  1.41778690429043
 6  2.06276741044104 -4.56791581528153 -1.10105933273327
 6  5.28066686908691 -0.16389451295130  0.87887043424342
 6  4.41516757805781  3.89371222052205  0.63922612291229
 6  1.30621930033003  4.13303785408541  0.29257097769777
 6 -6.70557520812081 -3.54038881868187  0.74590365246525
 6 -5.76045562616262 -0.59534531853185  0.24069123602360
 6 -0.10344826412641  4.08357660746075  0.24797660956096
 6 -0.99799489808981  5.21675920962096  0.38778724422442
 6 -2.34680415411541  4.69208070947095  0.28136404240424
 6  3.08584516651665 -4.12491516171617  0.09553724292429
 6 -5.53745745524552  0.59334462306231 -0.59399086388639
 6  6.62740261926193 -0.79067453705371  0.81713261146115
 6 -3.68454599749975  5.32634369286929  0.32137664836484
 6 -2.19470902250225  3.28915387638764 -0.05888165796580
 6 -0.58889948104810  6.60922659265927  0.66158521012101
 6 -4.29400896349635  5.37494345104510 -1.04712380388039
 1 -0.37040862576258  0.37418428422842 -0.12326206590659
 1  3.08902626362636 -1.09022716391639 -1.23392347974798
 1  2.44519440074007 -3.04031562816282 -2.51702824992499
 1  1.29322032823282 -3.85911002190219 -2.93991235133513
 1 -5.82844457175718 -2.46871549624962  2.36071661156116
 1  5.13802631513151  0.43002238363836 -1.11176152345235
 1  5.88875744314431  1.49406893499350 -0.23382695729573
 1 -2.89635585328533  0.03455124542454 -0.44933533103310
 1  0.48508573917392  1.95582542644264 -0.73420086558656
 1 -1.63651838763876 -4.42617718821882 -0.92747225702570
 1 -2.40143025402540 -3.43447403380338 -2.04835296839684
 1 -0.89764494439444 -4.08794586338634 -2.71914750405040
 1 -2.27804019031903 -3.64043377407741  0.39453211841184
 1  1.14323515281528 -5.24597729602960 -0.68595398529853
 1  2.45427153155316 -5.47580168706871 -1.60044542644264
 1  4.48161339433943 -1.07076824022402  0.88228796489649
 1  5.22151649704970  0.56130216891689  1.75430323342334
 1  4.32141266686669  4.94411482788279  0.33636226442644
 1  5.45381847354736  3.59948748194820  0.58929471907191
 1  4.13724075667567  4.15173064516452  1.64707042394239
 1  1.86176695529553  5.14696387378738  0.53102417761776
 1 -7.82487405570557 -3.11684676817682  0.96392766236624
 1 -6.69998406230623 -4.47287366946695  1.23764960536054
 1 -6.46677237423742 -3.82569998609861 -0.28643655525553
 1 -6.68255277757776 -0.57045795429543  0.67143514461446
 1 -5.07593656575658  1.57788260916092  0.00743348204821
 1 -6.40030840824082  0.78821789678968 -1.08136245234523
 1 -4.65252456445645  0.45703586578658 -1.42084884968497
 1 -3.61585357085709  6.38916332143214  0.52505938243824
 1 -4.18270970917092  4.63100543244324  1.18282430873087
 1 -0.17069621412141  6.82042260766077  1.72728256985698
 1 -1.33614972527253  7.38772222692269  0.49411876357636
 1  0.28074724272427  6.79762204790479 -0.13372241514151
 1 -3.78795670267027  5.95428305400540 -1.91762596509651
 1 -5.31295400260026  5.86951006710671 -1.07973785098510
 1 -4.42124560146015  4.30710088038804 -1.36717622562256
 1  3.68239664016402 -4.83421963446345  1.77172795519552
 1  7.75606363096310 -2.02532192119212  1.89526690969097

