%nproc=4
%Mem=2GB
# td=(NStates=1) B3LYP/SVP 

TD

0 1
 8 -4.27904941574157 -4.80334470567057  1.87854188258826
 8  2.95555958465847 -4.83103441024102  1.26026016331633
 8  6.98447475177518 -1.52557982768277  1.81761444094409
 8  3.80994605210521 -3.16653467846785 -0.08422176157616
 8  7.57517705430543 -0.53343323842384 -0.16035206790679
 8 -3.09441502760276  2.34726277707771 -0.54546610801080
 7 -0.32028902360236 -0.49962415551555 -0.56119313221322
 7  1.56255474817482  1.83284371687169 -0.41881345894589
 7 -3.26011800080008 -3.06948806180618  0.70419673827383
 7 -0.84734323002300  2.85070622002200 -0.03621746754675
 6  0.62816508080808 -2.36944490289029 -1.38584087918792
 6  0.92422532483248 -1.06361359305931 -1.07449629852985
 6 -0.76697082578258 -2.52632099429943 -1.20517257995800
 6 -1.26279670167017 -1.36005631703170 -0.69443857385739
 6  3.76321478227823  1.60125329182918 -0.25591985878588
 6  2.50647275307531  0.89752157765777 -0.59423360836084
 6  2.27566281648165 -0.47014427232723 -0.90475995059506
 6  3.44948558865887  2.81486128832883  0.15902389268927
 6  1.63095450055006 -3.32130383168317 -1.99615696129613
 6 -5.54580348704870 -2.76482209710971  1.35139240354035
 6 -3.54071793109311 -1.79432440834083  0.24528045984598
 6  2.09369368146815  3.02654264846485  0.14106172957296
 6 -5.01494419071907 -1.63831279517952  0.40106415031503
 6  5.10229549144915  0.86887180408041 -0.41333029172917
 6 -2.62121693739374 -1.02203075847585 -0.42227870167017
 6 -1.37951761386139 -3.73668342144214 -1.62766308310831
 6 -4.33057272567257 -3.77307153895390  1.27465259085909
 6  2.03912504620462 -4.46981600530053 -1.06467569436944
 6  5.37105590799080 -0.18449657315732  0.77855040224022
 6  4.58778483978398  3.81935478477848  0.51824402470247
 6  1.22480115851585  4.11814636493649  0.39182090269027
 6 -6.79967461806181 -3.45224000380038  0.86975603770377
 6 -5.78918849944995 -0.58886467046705  0.00776794369437
 6 -0.15789370867087  4.00066831663166  0.40929274117412
 6 -1.07999309790979  5.12409994369437  0.52973143864386
 6 -2.38722819651965  4.58771027242724  0.33282918891889
 6  3.09125570757076 -4.08465113531353  0.08931662086209
 6 -5.37739144864486  0.54933022162216 -0.68924038883888
 6  6.72531241024102 -0.71902737233723  0.68649954815482
 6 -3.67134467736774  5.15672673117312  0.31702621332133
 6 -2.24665421702170  3.18652361336134 -0.14621039083908
 6 -0.70118070917092  6.51414708470847  0.89775882748275
 6 -4.17498706130613  5.51895785248525 -1.17401649314931
 1 -0.26864844974497  0.49330619641964 -0.11627136683668
 1  3.06823418441844 -1.14655279647965 -1.07037712511251
 1  2.65082496379638 -2.86120771737174 -2.37505405250525
 1  1.23971497769777 -3.92625673657366 -2.85946430653065
 1 -5.81201292859286 -2.60127875257526  2.28088862876288
 1  4.98445095759576  0.24906428782878 -1.42427277457746
 1  6.05637420482048  1.42147167526753 -0.62483605820582
 1 -2.70899711741174 -0.01420363006301 -0.57166756425643
 1  0.52670990159016  1.69292913681368 -0.63199064456446
 1 -1.23534827062706 -4.64547911841184 -1.04777428722872
 1 -2.32564267526753 -3.61990257665767 -1.76823495659566
 1 -0.96672185208521 -4.08012508130813 -2.58679426872687
 1 -2.43345573187319 -3.43029275997600  0.61387405260526
 1  1.20384121342134 -5.07830052835284 -0.69095448534854
 1  2.72247835223522 -5.15505961286129 -1.61184656655666
 1  4.68608384138414 -1.03308447184718  0.70362009810981
 1  5.04226857225723  0.21131717041704  1.73491129422942
 1  4.44001452705271  4.52191260766077 -0.08801017281728
 1  5.60648374007401  3.57727526072607  0.44793058265827
 1  4.57160419301930  4.26603207530753  1.56730244714471
 1  1.73721450005000  4.98024720212021  0.79744081928193
 1 -7.82421398969897 -2.79258434193419  0.79270053965396
 1 -6.84932899679968 -4.25156153825383  1.55125096549655
 1 -6.86672236923692 -3.80889830593059 -0.12897080868087
 1 -6.73427795009501 -0.65035594409441  0.33139114021402
 1 -4.91028000010001  1.47046186708671 -0.03057031833183
 1 -6.23627200460046  0.97854692969297 -1.26617093319332
 1 -4.68522783478348  0.62821298349835 -1.59413617841784
 1 -3.57935992149215  5.92069647474748  0.93694057055706
 1 -4.13189462766277  4.35010734263426  0.74982100840084
 1 -0.11509065356536  6.60918148354835  1.83823366496650
 1 -1.62368847914791  7.21494494919492  1.10957030873087
 1 -0.08735956795680  6.91283356905691  0.01070202730273
 1 -3.32045995299530  6.04017164286429 -1.71582578507851
 1 -5.05760846804680  6.20225334143414 -1.28354823202320
 1 -4.28119159605961  4.61108127842784 -1.63702321032103
 1  3.63285168566857 -4.20696690919092  1.81849263166317
 1  7.95134315891589 -1.58237762676268  1.53577096009601

