%nproc=4
%Mem=2GB
# td=(NStates=1) B3LYP/SVP 

TD

0 1
 8 -4.31376288708871 -4.89827419861986  1.65967999639964
 8  3.17454148284828 -4.74798610541054  1.19656379367937
 8  7.09659596389639 -1.54847211691169  1.77724040354035
 8  3.79627468496850 -3.08366639163916 -0.02616595599560
 8  7.58250778737874 -0.49920981608161 -0.17542357505751
 8 -3.05167075317532  2.48993704450445 -0.36181774317432
 7 -0.28298529322932 -0.52832702580258 -0.63152016491649
 7  1.51107960066007  1.87675810831083 -0.27521909950995
 7 -3.39071106010601 -3.15589670267027  0.68728504710471
 7 -0.80025852155216  2.91937308670867 -0.02416626242624
 6  0.64405666996700 -2.45753371177118 -1.29780207530753
 6  0.88377127942794 -1.05093232493249 -1.07011586048605
 6 -0.77534166286629 -2.68563692589259 -1.20742280498050
 6 -1.33272369436944 -1.47893820522052 -0.72502163216322
 6  3.82542100290029  1.52067523402340 -0.24959922672267
 6  2.48964106990699  0.89054087958796 -0.49657384238424
 6  2.21899714991499 -0.44594185208521 -1.02388186278628
 6  3.51818245834583  2.77345714791479  0.09966795709571
 6  1.56709811491149 -3.46014771607161 -1.87778512411241
 6 -5.56917582428243 -2.75217083198320  1.28782604690469
 6 -3.65065892519252 -1.89273424932493  0.15272120392039
 6  2.03281759385939  2.99560955515552  0.12168979237924
 6 -5.03382607890789 -1.67481644554455  0.34263830773077
 6  5.12110737263726  0.79972488938894 -0.39640859955996
 6 -2.61136595229523 -1.07059561496150 -0.36977345114511
 6 -1.46340600270027 -3.87207696079608 -1.69676999379938
 6 -4.36411608000800 -3.77578180998100  1.23211833743374
 6  2.08218935263526 -4.48659768346835 -0.90568979577958
 6  5.40015881828183 -0.07444556805681  0.77988053525353
 6  4.50279634093409  3.86519936923692  0.49266146644664
 6  1.27455613401340  4.17853240354035  0.37782950355035
 6 -6.86414106470647 -3.47634241404140  0.92237129922992
 6 -5.76088566916692 -0.55468125212521  0.07657482438244
 6 -0.11494941424142  4.03904215401540  0.34646645854585
 6 -1.11270636923692  5.15136266996700  0.54236270177018
 6 -2.37589706340634  4.66910841224122  0.25493139913991
 6  3.10716729872987 -4.01188385858586  0.11472916211621
 6 -5.38787249674967  0.54464975357536 -0.79900136493649
 6  6.78838871787179 -0.77963343294329  0.67485838403840
 6 -3.68718626152615  5.27688874737474  0.32703721442144
 6 -2.17351690329033  3.24126908790879 -0.08681445124512
 6 -0.58700929202920  6.57831350135014  0.80109916151615
 6 -4.30950051265127  5.57614357105711 -1.09053814531453
 1 -0.28977056195620  0.24919178497850  0.00321058135814
 1  3.09271663266327 -1.02441058225823 -1.15842592999300
 1  2.47165704700470 -2.96628822542254 -2.33570011711171
 1  1.15622662886289 -4.09208331923192 -2.85328368846885
 1 -5.67461918921892 -2.13692231693169  2.28031857175718
 1  5.15128764126413  0.17061644304430 -1.27629797709771
 1  5.92321088848885  1.35818534663466 -0.42738631323132
 1 -2.80325654335434  0.00942873317332 -0.74137453495350
 1  0.27626485708571  1.87848769266927 -0.07103454895490
 1 -1.72615735153515 -4.65469003950395 -0.87341685148515
 1 -2.50068017901790 -3.57973856025603 -1.97041517461746
 1 -0.99608478837884 -4.41033810261026 -2.47691328062806
 1 -2.51624401070107 -3.62466219691969  0.51156382158216
 1  1.17714854415442 -5.24753745204520 -0.38900429032903
 1  2.56348245264526 -5.15056916381638 -1.32912829472947
 1  4.80532576557656 -1.00040120352035  0.83835357145715
 1  5.57033137853785  0.55257129582958  1.56498430153015
 1  4.42546307190719  4.76034645104510 -0.35090646244625
 1  5.56213930563056  3.41851938513851  0.39363515311531
 1  4.37509454205421  4.51966743884388  1.52163788068807
 1  1.78903968256826  5.17577675507551  0.56764783998400
 1 -7.56453802210221 -2.72549763326333  0.69782105170517
 1 -7.20421448534854 -4.27813419551955  1.68431427182718
 1 -6.90869656665667 -3.98471588768877 -0.09892780438044
 1 -6.75457998029803 -0.56340724922492  0.43398139923992
 1 -4.84298327042704  1.52115693659366 -0.33784104540454
 1 -6.37418579597960  0.99194826982698 -1.20124444054405
 1 -4.51099041104110 -0.02962280008001 -1.38391515631563
 1 -3.41893387888789  6.30248465356536  0.88486536303630
 1 -4.33663510171017  4.98834116601660  1.16620264656466
 1 -0.20523966846685  6.52484304970497  1.75725556715672
 1 -1.43790990129013  7.23003645834583  1.23189254095409
 1  0.01690085808581  7.27317960366037  0.05906686378638
 1 -3.70741864886489  6.14846247194720 -1.68419262176218
 1 -5.24261696889689  6.05023813991399 -0.93311318851885
 1 -4.16030950785079  4.54026419671967 -1.57072658065807
 1  4.10746914741474 -4.35498171067107  1.63921470387039
 1  8.07132515711571 -1.93569295829583  1.62076945994599

