%nproc=4
%Mem=2GB
# td=(NStates=1) B3LYP/SVP 

TD

0 1
 8 -4.19741125192519 -4.89641401260126  1.82298632703270
 8  2.79543357205721 -4.91784309110911  1.00934507180718
 8  7.01293759805981 -1.29989725942594  2.07318999849985
 8  3.89062411991199 -3.29862788778878 -0.06573991339134
 8  7.60189972657266 -0.67010690579058 -0.09013504620462
 8 -3.05211079717972  2.43475152595260 -0.27068863026303
 7 -0.32977997269727 -0.44983917701770 -0.59633664656466
 7  1.52971146384638  1.88457889038904 -0.29730130773077
 7 -3.30139212821282 -3.19478059105911  0.55918223682368
 7 -0.80673916961696  3.00778192759276 -0.13880772657266
 6  0.69328159245925 -2.29912787118712 -1.42980527562756
 6  0.90516341864186 -1.03344057575758 -0.95308415731573
 6 -0.65364949364937 -2.58699706190619 -1.27981004370437
 6 -1.35671609360936 -1.44450476187619 -0.74142327232723
 6  3.76655511631163  1.51496466296630 -0.33968823562356
 6  2.53056516231623  0.97469929542954 -0.54275846084608
 6  2.24767001720172 -0.30943820172017 -0.92876235083508
 6  3.48868950905091  2.82472227442744  0.11885987628763
 6  1.68803020812081 -3.30375207650765 -2.05199254485449
 6 -5.49393830053005 -2.93375899079908  1.33020028432843
 6 -3.61569542884288 -1.98905388128813  0.22476840864086
 6  2.14442875497550  3.06178617281728  0.05292291569157
 6 -4.99140183648365 -1.74878384228423  0.51893593749375
 6  5.08923418531853  0.79545446234623 -0.36658561726173
 6 -2.66133094879488 -1.14771332673267 -0.40393686748675
 6 -1.54724438653865 -3.76858661176118 -1.70250056685669
 6 -4.31868153655366 -3.84020825262526  1.28746387198720
 6  1.99583071677168 -4.47304632833283 -1.16414564136414
 6  5.37277608000800 -0.16399452295230  0.88296084328433
 6  4.59804586588659  3.90745359465947  0.42284448474847
 6  1.31939061746175  4.16101065136514  0.34340606120612
 6 -6.88668331893189 -3.49387416721672  0.92609167126713
 6 -5.78229781038104 -0.66772255625563  0.22625979287929
 6 -0.13717163646365  4.13101135093509  0.23889570147015
 6 -1.02418751735174  5.20329786348635  0.40701916741674
 6 -2.32780225392539  4.73984548594860  0.34897080308031
 6  2.97082366436644 -4.08098076827683  0.03759144834483
 6 -5.59465317481748  0.60821611021102 -0.65947741254125
 6  6.81342122112211 -0.73890936053605  0.82709360756076
 6 -3.70815835873587  5.21364242274227  0.31041555225523
 6 -2.11395094669467  3.26812177317732 -0.02793856365637
 6 -0.61584217531753  6.62022769276928  0.74296334793479
 6 -4.11497105970597  5.48258421512151 -1.17710680218022
 1 -0.60151173607361  0.47160402620262 -0.15200494019402
 1  3.01638899989999 -0.94270241144114 -1.16557664506451
 1  2.55271515281528 -2.55002659925993 -2.20038658575858
 1  1.12569357555756 -3.78408251915191 -2.88121648174817
 1 -5.47249897719772 -2.65355398009801  2.46233677357736
 1  5.10225273777378  0.03144252565256 -1.24835518281828
 1  5.77009557695770  1.54607413551355 -0.43883745834583
 1 -2.85307152485248 -0.08158036773677 -0.58481887938794
 1  0.39399663026303  1.90693053695370 -0.43496094159416
 1 -1.45540027582758 -4.50596516701670 -0.95668517831783
 1 -2.43845395639564 -3.62644323072307 -1.88886701980198
 1 -0.70619579947995 -4.07201427022702 -2.50313590289029
 1 -2.38364075037504 -3.58867859855986  0.40400306550655
 1  1.13906473577358 -4.87971066936694 -0.46036142604260
 1  2.64259036343634 -5.26725083198320 -1.77954333623362
 1  4.51856708970897 -0.99216037943794  0.69651938803880
 1  5.30967531293129  0.25456149484948  1.84565236833683
 1  4.48286881248125  4.73347376377638 -0.18813018481848
 1  5.61588468016802  3.31459899309931  0.27459324892489
 1  4.42615964856486  4.38430390249025  1.51672738963896
 1  1.89338011661166  5.09717889528953  0.46056713191319
 1 -7.85467703600360 -2.76611169466947  1.08339960956096
 1 -7.06623068696870 -4.43858024012401  1.27903374377438
 1 -6.66991268826883 -3.73020043614361 -0.24023193479348
 1 -6.84378890119012 -0.49569047754775  0.77287528862886
 1 -5.18323729582958  1.54870969186919  0.00315305400540
 1 -6.49703808120812  0.86799587458746 -1.03380769686969
 1 -4.89521883388339  0.39890005220522 -1.45652241704170
 1 -3.69623160866087  6.09383378847885  0.82900977747775
 1 -4.51923336153615  4.46257858975898  0.73902992929293
 1  0.06132698819882  6.52691325672567  1.63014285588559
 1 -1.66934304460446  7.20954440914091  1.01073042474247
 1 -0.06767759975998  7.06914920062006 -0.15597464036404
 1 -3.78266617361736  6.38842646834684 -1.72289649214922
 1 -5.19301200840084  5.63441655775577 -1.21594147134714
 1 -4.07487096399640  4.43625379567957 -1.85488499649965
 1  3.25226362686269 -4.71305751825182  1.87697848024802
 1  7.92800082468247 -1.56740612961296  2.02819020202020

