%nproc=4
%Mem=2GB
# td=(NStates=1) B3LYP/SVP 

TD

0 1
 8 -4.22253376417642 -4.84765913711371  1.87811183958396
 8  2.89594362306231 -4.87662896969697  1.21661579887989
 8  7.11715802010201 -1.48531580128013  1.83779645914591
 8  3.80981603910391 -3.20674869986999 -0.11770510991099
 8  7.66330586718672 -0.22040193529353 -0.01453748644864
 8 -3.08580416651665  2.45663371417142 -0.47805936733673
 7 -0.21875887058706 -0.47741193429343 -0.59898691159116
 7  1.57701619431943  1.75515594809481 -0.48195977357736
 7 -3.28414040304030 -3.09244035703570  0.63378969756976
 7 -0.80934943064306  2.85349649904990 -0.02225607140714
 6  0.71949421372137 -2.41809976837684 -1.44127642274227
 6  0.94933783608361 -1.06487371907191 -0.94826367526753
 6 -0.73071720042004 -2.61654001620162 -1.33891595429543
 6 -1.25847626962696 -1.42774308570857 -0.76970610061006
 6  3.77089555035504  1.43952711921192 -0.32605687248725
 6  2.51931403720372  0.76519834533453 -0.63803798879888
 6  2.24488973917392 -0.57366462436244 -0.94174364896490
 6  3.50787142724272  2.73310311251125  0.26184417471747
 6  1.51520292539254 -3.52431413271327 -2.05256260186019
 6 -5.50638954565457 -2.78076369126913  1.40859812411241
 6 -3.60656451575158 -1.77601257715772  0.23396932873287
 6  2.11484579667967  3.02269226342634  0.05654327772777
 6 -5.05712840914091 -1.52452141604160  0.56331037493749
 6  5.06232149404941  0.82482739963996 -0.27823678237824
 6 -2.64840965666567 -0.99350790619062 -0.41704817861786
 6 -1.46978664076408 -3.83161291439144 -1.79395971277128
 6 -4.28997866626663 -3.71520575237524  1.37710283588359
 6  1.89638077177718 -4.49808883258326 -0.99312853965397
 6  5.31028983138314 -0.13889201270127  0.75983853105311
 6  4.49924598589859  3.93213606290629  0.44130633093309
 6  1.31401007940794  4.13211776207621  0.33070479107911
 6 -6.75543019361936 -3.48497327712771  0.86497555965597
 6 -5.78624820542054 -0.54003978797880  0.14916208310831
 6 -0.15395331463146  3.94003225302530  0.30300211211121
 6 -1.13884898349835  5.06372390609061  0.50138860436044
 6 -2.34874434813481  4.64271577297730  0.28492439843984
 6  2.96173275527553 -4.10368303850385  0.05403309250925
 6 -5.35693940344034  0.59287457605761 -0.87600906570657
 6  6.86653653265327 -0.56634210381038  0.81334223242324
 6 -3.69185672857286  5.35029608810881  0.29635414611461
 6 -2.17840739233923  3.14852981398140 -0.09671544134413
 6 -0.69085967706771  6.43905957595760  1.07534658625863
 6 -4.35431499409941  5.55261121782178 -1.16325541704170
 1 -0.29246083098310  0.31425829162916 -0.04769450915092
 1  3.07845520652065 -1.30650879207921 -0.93308339573957
 1  2.28003788508851 -2.80147174377438 -2.68650519761976
 1  1.28835984218422 -3.84890900180018 -3.07854621472147
 1 -5.59465119241924 -2.60296892159216  2.59255979587959
 1  5.13690620312031  0.41781116251625 -1.38358870617062
 1  5.84612317971797  1.51743127122712 -0.40443401800180
 1 -2.99046526422642 -0.06433864356436 -0.41415181268127
 1  0.60919815041504  1.75551539543954 -0.50490793629363
 1 -1.41396613241324 -4.50753532403240 -0.99348885868587
 1 -2.52109222022202 -3.52765335173517 -1.72846097919792
 1 -1.30471565146515 -3.90949801860186 -2.93115870517052
 1 -2.47093948024802 -3.54748447914791  0.52749541474147
 1  1.02970379967997 -4.74612731103110 -0.40263565346535
 1  2.39085518991899 -5.50187429432943 -1.53730911281128
 1  4.71799703270327 -1.11084224762476  0.64907464356436
 1  5.09183352875287  0.50229626832683  1.70575837893789
 1  4.02047257285728  5.03826424282428  0.18212684088409
 1  5.61928502020202  3.71116865006501  0.04564035363536
 1  4.75337236983698  4.17019249134914  1.53399911681168
 1  1.66037681628163  5.19399857725773  0.58440951615162
 1 -7.58912048034803 -2.75900098359836  1.07571884148415
 1 -7.09626369026903 -4.29923630573057  1.33403924432443
 1 -6.62325802280228 -3.51330874697470 -0.29185709730973
 1 -6.70362488478848 -0.40934184268427  0.48502650375037
 1 -4.88815778787879  1.33766858775878 -0.44273153445345
 1 -6.24408278567857  1.24786386138614 -1.22444676077608
 1 -4.62272158415842  0.22211237343734 -1.79847661246125
 1 -3.52527451295130  6.21764616971697  0.86580345684568
 1 -4.30059149734973  4.66099843174317  0.91016704300430
 1 -0.17916706120612  6.34217478287829  2.19235907750775
 1 -1.39435554585459  7.38719217391739  0.98565791749175
 1  0.05336450445045  6.90306259195920  0.38823978107811
 1 -3.58102600960096  6.09684731043104 -1.75709991249125
 1 -5.41975468266827  5.93380649674968 -0.99065894309431
 1 -4.37648112501250  4.70738090839084 -1.66435594359436
 1  3.63538193869387 -4.48648486098610  1.83848463086309
 1  8.26664468906891 -1.64679406840684  1.90393777677768

