%nproc=4
%Mem=2GB
# td=(NStates=1) B3LYP/SVP 

TD

0 1
 8 -4.20696220702070 -4.92445681688169  1.91178520692069
 8  2.89140316901690 -4.94733604040404  0.94143828112811
 8  6.83989029332933 -1.53377064676468  2.00716339583958
 8  3.80157521502150 -3.22121014601460 -0.11266460586059
 8  7.42818235483548 -0.52988288338834  0.08537250455045
 8 -3.11237682378238  2.43694174497450 -0.54976653805381
 7 -0.24297129182918 -0.46513070617062 -0.69230624352435
 7  1.56352484518452  1.90879131163116 -0.33303488108811
 7 -3.20510249924993 -3.17666877987799  0.82763908250825
 7 -0.75805430113011  2.92273342274227 -0.18390223602360
 6  0.71757402170217 -2.41310926932693 -1.41788408350835
 6  0.98556145844584 -1.08434566626663 -0.95636448534853
 6 -0.69675380408041 -2.65443380558056 -1.14318638133813
 6 -1.26440686268627 -1.41528183958396 -0.66098522852285
 6  3.79249771057106  1.54569773627363 -0.36683094989499
 6  2.48126023182318  0.88415024052405 -0.61236542154215
 6  2.29944519471947 -0.41592885078508 -0.88397787238724
 6  3.56301694179418  2.89554935713571  0.09425741604160
 6  1.64151555665567 -3.26193789508951 -2.11043838943894
 6 -5.47538644534453 -2.89223483838384  1.38680594489449
 6 -3.46904076337634 -1.94902987888789  0.29313524532453
 6  2.15073938603860  3.07820781498150  0.03050067346735
 6 -4.90973366966697 -1.70000896479648  0.52149619351935
 6  5.05360062196220  0.81655657255726 -0.32381133983398
 6 -2.60661547724772 -1.09504806020602 -0.30801727552755
 6 -1.52789245134513 -3.81066081918192 -1.61595191199120
 6 -4.28463813221322 -3.75275950775077  1.45006013161316
 6  2.01361249494949 -4.54322334603460 -1.33030225702570
 6  5.25933473587359 -0.09645776927693  0.96386893409341
 6  4.58283434473447  3.93843669296930  0.51775397569757
 6  1.30127880628063  4.15109966026603  0.17305902650265
 6 -6.71730638123812 -3.52008678847885  0.84477353945395
 6 -5.71920150075008 -0.63529931393139  0.24046121302130
 6 -0.16496441574157  4.07172542234223  0.13943575547555
 6 -1.13514861346135  5.26229376307631  0.44991345684568
 6 -2.29971944564456  4.67227872927293  0.15378128412841
 6  2.98504508650865 -4.15585825602560 -0.10891320212021
 6 -5.44578828832883  0.47625291389139 -0.76720818561856
 6  6.65875575457546 -0.73853932353235  0.91797269546955
 6 -3.73826136903690  5.25714677317732  0.27691220192019
 6 -2.18588814041404  3.22466742774277 -0.22377814761476
 6 -0.63951454255426  6.59145481548155  0.96274532613261
 6 -4.28146770937094  5.85410136683668 -1.04324341584158
 1 -0.34775636053605  0.34328119391939 -0.40005974567457
 1  3.01230859185919 -1.12828096929693 -0.90307039443944
 1  2.63942382368237 -2.69391098769877 -2.52651919901990
 1  1.18299930613061 -3.50449456035604 -3.06106446654665
 1 -5.73446517381738 -2.43988261296130  2.36187672757276
 1  4.90446295879588  0.15620500190019 -1.28454880218022
 1  6.09543811121112  1.28333786188619 -0.36200977557756
 1 -2.92996921462146  0.07331512181218 -0.36453685118512
 1  0.53338056865687  1.79901974587459 -0.27870531603160
 1 -1.77931266706671 -4.70676524702470 -0.91755126492649
 1 -2.60065017601760 -3.40560114651465 -1.79010714381438
 1 -1.15374055395540 -4.17466453525353 -2.68055364466447
 1 -2.17585997229723 -3.52834256495650  0.78434109930993
 1  1.12271310061006 -5.12010470877088 -0.90300569046905
 1  2.53367947234723 -5.34190829772977 -2.01762714461446
 1  4.60334556755676 -1.03129429282928  0.85892562866287
 1  5.11462580798080  0.37671371007101  1.83924172727273
 1  4.38415894149415  4.82280269666967 -0.05400677247725
 1  5.57067015871587  3.66476400960096  0.33496928652865
 1  4.40026705930593  4.05698117021702  1.62135785268527
 1  2.01195197379738  5.10948012541254  0.44794586978698
 1 -7.39365093339334 -2.77526260976098  0.81860312991299
 1 -7.10618468236824 -4.34990137223722  1.53442928332833
 1 -6.68834453145314 -3.82497991409141 -0.15135304690469
 1 -6.90765528782878 -0.73259416791679  0.50147814891489
 1 -4.69117808990899  1.23047786868687 -0.19334659595960
 1 -6.42477085448545  1.10067914291429 -0.98607292339234
 1 -4.87448676067607  0.03568373057306 -1.60323708850885
 1 -3.62043402890289  6.03987839293930  0.96336321282128
 1 -4.41400283848385  4.55233756565657  0.83802982928293
 1 -0.13730287478748  6.57553811921192  2.08063790539054
 1 -1.63620973127313  7.11769522422242  1.24155350705070
 1  0.06974614261426  7.14996728242824  0.31414237133713
 1 -3.61523943094309  6.74964258995900 -1.47559176167617
 1 -5.25620832803280  6.22071518761876 -0.75003488068807
 1 -4.22624610151015  4.84479464976498 -1.65663517151715
 1  3.45921432193219 -4.63285949844984  1.74836561896190
 1  7.61770979557956 -2.02395178417842  1.75683306630663

