%nproc=4
%Mem=2GB
# td=(NStates=1) B3LYP/SVP 

TD

0 1
 8 -4.13800531133113 -4.97937230843084  1.72180620902090
 8  2.79179320802080 -4.92451375817582  1.11881601890189
 8  6.96503280758076 -1.63437070677068  1.75762844234423
 8  3.76115117261726 -3.15635366036604  0.09957661826183
 8  7.61274081068107 -0.57834772987299 -0.09127516021602
 8 -3.11894748084809  2.44298234903490 -0.37655921732173
 7 -0.33912090679068 -0.46356054915492 -0.64303131603160
 7  1.53082157485749  1.93880431293129 -0.36458803640364
 7 -3.31427341634163 -3.15279639263926  0.77894421302130
 7 -0.83504199989999  2.92113326272627 -0.10913475927593
 6  0.73757602190219 -2.37249520792079 -1.37838013311331
 6  0.91147404970497 -0.98483571527153 -0.93779262816282
 6 -0.63647777647765 -2.61972033423342 -1.13316537923792
 6 -1.34943536553655 -1.44263457485749 -0.72901203120312
 6  3.84003246404640  1.57136030253025 -0.27385165196520
 6  2.51027313311331  0.97056888238824 -0.52311649664966
 6  2.20570582078208 -0.40217747564756 -0.88449792439244
 6  3.56264690479048  2.88219802200220  0.06681467176718
 6  1.65821722682268 -3.30681238253825 -1.99505685128513
 6 -5.47637654435444 -2.85979159405941  1.31059832413241
 6 -3.54074793409341 -1.88563353925393  0.24155008680868
 6  2.16646095819582  3.07662765696570 -0.02353473007301
 6 -4.96484918121812 -1.72259122302230  0.50438448234824
 6  5.18046330823082  0.83088800570057 -0.33758271697170
 6 -2.61617643334333 -1.04206276167617 -0.30651712551255
 6 -1.36386604870487 -3.85134488758876 -1.68242855965597
 6 -4.34939460786079 -3.86917114891489  1.35809093469347
 6  2.04461559525953 -4.42963198689869 -1.06923615041504
 6  5.36480528292829 -0.18246637013701  0.83402594979498
 6  4.53686974827483  3.91968481778178  0.40665286558656
 6  1.32115079347935  4.16820137043704  0.35248696929693
 6 -6.83384803540354 -3.42904768456846  0.81880094219422
 6 -5.79630921152115 -0.67474325832583  0.10774794169417
 6 -0.12026994629463  4.03128137793779  0.25565737763776
 6 -1.04817991659166  5.19073660736074  0.49036750225022
 6 -2.33582305600560  4.71375287668767  0.33065897189719
 6  2.89106568856886 -4.00248291849185  0.05001269046905
 6 -5.44602831233123  0.51412670127013 -0.78135960076008
 6  6.77915779477948 -0.74975044464446  0.70393129132913
 6 -3.70214775767577  5.26793785228523  0.29714422512251
 6 -2.25007455905591  3.22475743674367 -0.06446221602160
 6 -0.64425501660166  6.57210288028803  0.88233728532853
 6 -4.20702026462646  5.51409736643664 -1.16977606910691
 1 -0.68733031793179  0.40454732053205 -0.24023376307631
 1  3.07956531753175 -1.08196633783378 -1.08024811221122
 1  2.42991287258726 -2.71687328392839 -2.22212875997600
 1  1.22599360556056 -3.67084119501950 -2.90854921502150
 1 -5.46002773007301 -2.47489611431143  2.38834937483748
 1  5.16202871537154  0.31037041844184 -1.39245959325933
 1  5.90549911731173  1.56420594869487 -0.23646722132213
 1 -2.88143436113611  0.07350514081408 -0.32127252475248
 1  0.53370060066007  1.86430627452745 -0.34131157665767
 1 -1.59726446224622 -4.77473204370437 -1.06465597539754
 1 -2.53352346334633 -3.50791137753775 -1.85596372947295
 1 -0.98252343224322 -4.21012808160816 -2.61561715101510
 1 -2.52125451175118 -3.67998772947295  0.62066473167317
 1  1.08408923822382 -4.90562326062606 -0.73096848674867
 1  2.43711981638164 -5.22660676757676 -1.62296767866787
 1  4.58106333933393 -0.99463062646265  0.80732046814682
 1  5.27601194659466  0.46607264596460  1.74129193229323
 1  4.42045257085709  4.91959237563756  0.00300892909291
 1  5.39666275797580  3.70802833603360  0.38651444104410
 1  4.34282131473147  4.14705017711771  1.62545826272627
 1  1.69801057965797  5.10628980638064  0.48701977717772
 1 -7.58291986028603 -2.48667375087509  0.78910017961796
 1 -7.08920298419842 -4.33576995909591  1.44373021342134
 1 -6.58727442444244 -3.66530394649465 -0.22124003560356
 1 -6.81501602390239 -0.67614852335234  0.41848985008501
 1 -5.00926989908991  1.22438725962596 -0.25145240654065
 1 -6.33235161256126  0.88354742974297 -1.20374469056906
 1 -4.70515982798280  0.43869403160316 -1.55211197599760
 1 -4.02728471397140  6.32277668276828  0.77438431493149
 1 -4.30122156035604  4.68763109500950  0.96867289358936
 1 -0.14637378187819  6.67849841524152  1.86326616821682
 1 -1.59179528982898  7.29454290899090  0.83249260096010
 1  0.15053422142214  6.93951623732373  0.24989594669467
 1 -3.43022092909291  6.12236986268627 -1.91731593409341
 1 -5.25200790799080  5.99763287938794 -1.12994287148715
 1 -4.14926840374037  4.53729389968997 -1.89154866286629
 1  3.56784518501850 -4.76058227072707  1.57670845324532
 1  7.68848687328733 -2.11390077907791  1.66113349634964

