%nproc=4
%Mem=2GB
# td=(NStates=1) B3LYP/SVP 

TD

0 1
 8 -4.23204471527153 -4.87657202840284  1.86692072047205
 8  3.08215224392439 -5.09724103090309  1.04310844814481
 8  7.00085638993899 -1.71213848354835  1.75380806030603
 8  3.75545060256026 -3.14010203520352 -0.03606694609461
 8  7.59540907750775 -0.45848574367437  0.05914988228823
 8 -3.08646423252325  2.43545159595960 -0.51175273667367
 7 -0.31352834753475 -0.43274746784678 -0.65325233813381
 7  1.51879037173717  1.79175960846085 -0.53004458205821
 7 -3.25687767676768 -3.15334644764476  0.72237855645565
 7 -0.78952744844484  2.91365251465146 -0.12535638143814
 6  0.73970623492349 -2.33430138853885 -1.46691898699870
 6  0.94319722202220 -0.98583581528153 -0.99945879477948
 6 -0.68233236193619 -2.64736309850985 -1.20866292899290
 6 -1.33482390439044 -1.45320563196320 -0.71429055905591
 6  3.70515897669767  1.50296346284628 -0.16274054085409
 6  2.49506161196120  0.87001882738274 -0.58010219521952
 6  2.18629387958796 -0.47953521142114 -0.86455593019302
 6  3.41573221332133  2.83845364756476  0.14691268156816
 6  1.75264666976698 -3.30832253355336 -1.99408675427543
 6 -5.47493640034003 -2.88552416731673  1.35157242154215
 6 -3.50083394269427 -1.84900987688769  0.30856678847885
 6  2.07899221132113  3.07814780898090  0.02721034443444
 6 -4.98269096539654 -1.66600556445645  0.56109015291529
 6  5.08077333923392  0.87990290719072 -0.31298025672567
 6 -2.59980479617962 -1.07077563296330 -0.34167064086409
 6 -1.35742540464046 -3.85997575067507 -1.78597891469147
 6 -4.27487715611561 -3.83601783358336  1.23528865446545
 6  1.98159929362936 -4.47718674237424 -1.06355558235824
 6  5.31717051945195 -0.29487761126113  0.84843739093909
 6  4.47626368766877  3.86475932523252  0.51732393269327
 6  1.21485016341634  4.23110766106611  0.37763948454845
 6 -6.80948559915992 -3.54651943174317  0.77393645574557
 6 -5.67462704330433 -0.45964174817482  0.33255042194219
 6 -0.21441936123612  4.10385863566357  0.18209002090209
 6 -1.15791088968897  5.25568310201020  0.43316178167817
 6 -2.40106958065807  4.68846034743474  0.15425133113311
 6  3.04699128112811 -4.09496216641664  0.05762345154515
 6 -5.38756246574657  0.71533682228223 -0.55751721652165
 6  6.75328520752075 -0.77306277587759  0.80852175037504
 6 -3.69836737963796  5.39518057655766  0.23385789648965
 6 -2.17648720032003  3.26520148114811 -0.14136990679068
 6 -0.62235282638264  6.67387305730573  0.81737078867887
 6 -4.36221578417842  5.56060201690169 -1.11097018851885
 1 -0.68908049294929  0.49464633043304 -0.09871961166117
 1  3.12433979497950 -1.07981612281228 -0.89876996439644
 1  2.65998587988799 -2.82820441704170 -2.16954350145014
 1  1.38874988118812 -3.75570968186819 -2.92944130423042
 1 -5.52679440674067 -2.59519814451445  2.47220776067607
 1  5.31589410191019  0.17984736613661 -1.23326367366737
 1  5.77964653205321  1.58712824092409 -0.16256983158316
 1 -2.97946416411641 -0.10834304400440 -0.54534493199320
 1  0.56815404600460  1.74968481238124 -0.57482492799280
 1 -1.43003773957396 -4.51265583608361 -1.13325283508351
 1 -2.35388549954995 -3.53906449284929 -2.15867400050005
 1 -1.07840302020202 -4.21893896269627 -2.85620120942094
 1 -2.41377376367637 -3.62054178487849  0.43652631783178
 1  1.18539936923692 -4.94802750105011 -0.66504189408941
 1  2.57068317271727 -5.17948205510551 -1.44355973787379
 1  4.72867810081008 -1.25823698709871  0.69945968206821
 1  5.32499684508451 -0.15812977427743  1.94317212031203
 1  4.29334986058606  4.68972938933893 -0.09180055185519
 1  5.48145123682368  3.52659019221922  0.57801359095910
 1  4.20869790239024  4.29142461456146  1.61463718061806
 1  1.66838761736174  5.09421859925993  0.89058013321332
 1 -7.79263083138314 -2.89684476797680  0.98388965856586
 1 -6.99754381828183 -4.33726010811081  1.36112195259526
 1 -6.65791148814882 -3.97047446354635 -0.21340925252525
 1 -6.64535905820582 -0.29147005550555  0.86916491759176
 1 -4.67319629172917  1.33225804670467  0.01948468716872
 1 -6.53732210961096  1.23681275627563 -0.67998231433143
 1 -4.89877918991899  0.51245140734073 -1.37919468426843
 1 -3.42952493799380  6.18942334743474  0.81741861836184
 1 -4.42556399459946  4.88746107800780  1.05053107940794
 1  0.10240109560956  6.59900046544654  1.73339318091809
 1 -1.39654576487649  7.43044649934993  0.96034538623862
 1 -0.10005083708371  7.20433271897190  0.14944590169017
 1 -3.61203911091109  5.93493111881188 -1.87980218271827
 1 -5.31214392159216  6.12194531063106 -1.14419429662966
 1 -4.68663214011401  4.55848601890189 -1.45093460146015
 1  3.56961536203620 -4.70031624412441  1.88229901230123
 1  7.75972399699970 -2.07192658165817  1.36942432543254

