%nproc=4
%Mem=2GB
# td=(NStates=1) B3LYP/SVP 

TD

0 1
 8 -4.19271078187819 -4.72036640784078  1.91680570897090
 8  3.01218524722472 -4.86169747654765  1.07577171447145
 8  6.96422272657266 -1.62801007070707  1.88775145464546
 8  3.83999905740574 -3.14632265726573 -0.25068840824082
 8  7.55118465506551 -0.43644353945395  0.07267123442344
 8 -3.01913749984999  2.27216526732673 -0.43476503790379
 7 -0.24029102380238 -0.51189538263826 -0.55537255015502
 7  1.56803529622962  1.74394482698270 -0.33613519111911
 7 -3.24720670967097 -3.02208332133213  0.76335265386539
 7 -0.81390988668867  2.80355150455045 -0.16915076087609
 6  0.64517678197820 -2.28312627102710 -1.39294158925893
 6  1.07525042734273 -1.04407163886389 -0.91555040394039
 6 -0.78012214091409 -2.56975533773377 -1.27576963966397
 6 -1.28971939393939 -1.33078338973897 -0.78093722372237
 6  3.77495595639564  1.47508067456746 -0.27911217801780
 6  2.54705681148115  0.82839466496650 -0.51779596459646
 6  2.30449569976998 -0.47095435333533 -0.98750822542254
 6  3.54338497859786  2.79438924112411  0.04263225352535
 6  1.57492889798980 -3.31200290159016 -2.03457080268027
 6 -5.45502440914091 -2.75182079697970  1.33153041734173
 6 -3.58179203850385 -1.81108608450845  0.12853878567857
 6  2.11417572967297  2.92377237143714  0.04289191259126
 6 -4.95497819411941 -1.61871083498350  0.52616666056606
 6  5.09042430433043  0.76444136103610 -0.39419837853785
 6 -2.62994781048105 -0.94399295469547 -0.35707218101810
 6 -1.37206686878688 -3.80748050115012 -1.90174049084908
 6 -4.29715938433843 -3.68273250505050  1.49905503110311
 6  1.94033516721672 -4.45273429712971 -1.06133536033603
 6  5.36623542594259 -0.09016714021402  0.94109665686569
 6  4.50359642094209  3.86764961426143  0.52131433173317
 6  1.24948362676268  4.05652020232023  0.42328404900490
 6 -6.64881953255326 -3.61050583038304  0.72981204330433
 6 -5.78467804840484 -0.59566535053505  0.14490165706571
 6 -0.22900081938194  3.97524577437744  0.26003781568157
 6 -1.13636873547355  5.15435296899690  0.45586405190519
 6 -2.38954842854285  4.70632213361336  0.19056496249625
 6  2.89964654665467 -4.03519618981898 -0.00104241504150
 6 -5.60803451295129  0.59305459405941 -0.58116958175818
 6  6.73083296229623 -0.67782325192519  0.88079897809781
 6 -3.77743528642864  5.33178423692369  0.28673318401840
 6 -2.17187673927393  3.14045900690069 -0.19416518631863
 6 -0.54330492159216  6.47422309230923  0.84570362196220
 6 -4.37065662826283  5.53427938463846 -1.14751384288429
 1 -0.44004558945895  0.51518838463846 -0.25904564426443
 1  3.00237759875988 -1.28804694589459 -1.22378246564656
 1  2.43567344864486 -2.82711430803080 -2.47148369546955
 1  0.92160316651665 -3.65902001290129 -2.84098245834583
 1 -5.87296902420242 -2.29533815851585  2.47766830673067
 1  5.00281279377938  0.30019940134013 -1.36482682998300
 1  5.93247181458146  1.35790531863186 -0.37712128672867
 1 -3.01866808450845  0.05755354565457 -0.55905630313031
 1  0.65527275787579  1.84682452635264 -0.55639308480848
 1 -1.02221695749575 -4.71262583308331 -1.18911842164216
 1 -2.60754086508651 -3.76258684508451 -1.62910104320432
 1 -1.22056723662366 -3.93554062286229 -2.94023961326133
 1 -2.28217060336034 -3.25340507120712  1.19038170337034
 1  0.96145697499750 -5.02616531483148 -0.53774916481648
 1  2.46566267066707 -5.12325643254325 -1.73511889378938
 1  4.68909414241424 -0.99680084348435  0.95126486258626
 1  5.16738108350835  0.42596863556356  1.83093089618962
 1  4.63562408800880  4.65049546594660 -0.38530990279028
 1  5.64166725842584  3.47560509370937  0.64920070967097
 1  4.19769680228023  4.35171064316432  1.50204592149215
 1  1.65299607820782  4.92056123352335  0.97363843904390
 1 -7.56822839113911 -2.89566464996500  0.68758002760276
 1 -6.80175423932393 -4.59208559065906  1.41079692009201
 1 -6.67031272827283 -4.19446686278628 -0.26092400400040
 1 -6.81883640594059 -0.61723263176318  0.74375237633763
 1 -5.00345931803180  1.27641246214621 -0.08756601790179
 1 -6.48258663606361  1.20944001900190 -1.01798611471147
 1 -4.94667397939794  0.33466362856286 -1.39139590439044
 1 -3.78696068156816  6.37845225032503  0.78869574607461
 1 -4.33339477767777  4.74412674457446  1.10114614091409
 1  0.17528838433843  6.32376294169417  1.82223206480648
 1 -1.51743785408541  7.21192464716472  1.08157750945094
 1  0.04459362736274  6.89271155685569  0.05347630473047
 1 -3.49238714571457  6.37694532023202 -1.43181738423842
 1 -5.30864357155716  5.92363547964796 -1.00310018721872
 1 -4.46969044594459  4.54448461876188 -1.63487299529953
 1  3.88130653115312 -4.61619783228323  1.44240502290229
 1  7.97888591319132 -1.90323971297130  1.85288267126713

