%nproc=4
%Mem=2GB
# td=(NStates=1) B3LYP/SVP 

TD

0 1
 8 -4.45268677947795 -4.84248862006201  1.67203123152315
 8  3.07597162586259 -4.95150645744574  1.07526166346635
 8  6.88150445474547 -1.72306957665767  1.77020970047005
 8  3.88671372887289 -3.25892391739174 -0.07502084148415
 8  7.79975951255125 -0.32459235433543  0.13025699299930
 8 -2.96560214631463  2.45235328612861 -0.51435299669967
 7 -0.29811680638064 -0.60642483558356 -0.46999401230123
 7  1.51666015871587  1.90580101260126 -0.31809338693869
 7 -3.28101009000900 -3.18046915991599  0.70669698829883
 7 -0.73946244194419  2.91050219961996 -0.15908975477548
 6  0.72938520282028 -2.40764872327233 -1.37349964506451
 6  1.00714361666167 -1.05579281098110 -0.88031688058806
 6 -0.67721184988499 -2.64979334153415 -1.25238730143014
 6 -1.23129355135514 -1.41089140054005 -0.71427055705571
 6  3.75930439123912  1.52857602410241 -0.33559782658266
 6  2.50206231203120  0.89161098659866 -0.49773395839584
 6  2.26772202240224 -0.37683494139414 -0.89841931653165
 6  3.56055669576958  2.79583938613861 -0.05116712641264
 6  1.67533893899390 -3.43301500280028 -1.94875222082208
 6 -5.49458836553655 -2.68972458735874  1.41442870717072
 6 -3.56741060036004 -1.79316429232923  0.21764769656966
 6  2.04099841194119  2.96476647084708  0.08908653205321
 6 -4.92340503680368 -1.49556852075208  0.49215325922592
 6  4.96751201310131  0.78824374127413 -0.33855281398140
 6 -2.55827064276428 -1.00855941134113 -0.29448592239224
 6 -1.54623428552855 -3.79810956405641 -1.76739705650565
 6 -4.35215488388839 -3.76175040684068  1.31145627122712
 6  2.18483961766177 -4.54297332103210 -1.04979420622062
 6  5.31998080048005 -0.07992611611161  0.81224377157716
 6  4.47795385668567  3.87335018431843  0.31026322662266
 6  1.25766444484448  4.14971952225223  0.31620334093409
 6 -6.88056270687069 -3.47409218901890  0.92428149024902
 6 -5.78983856445645 -0.50952673667367  0.20769793669367
 6 -0.22893081238124  4.03180142994299  0.26230804270427
 6 -1.25830092869287  5.11299883358336  0.54472293779378
 6 -2.45012448614861  4.66428793019302  0.22625853185319
 6  3.11344792679268 -4.14642731293129  0.03419110831083
 6 -5.45972968246825  0.65893118171817 -0.73639510431043
 6  6.75729560856086 -0.70470594019402  0.78026892509251
 6 -3.71556909980998  5.23908496699670  0.31390590129013
 6 -2.09802935453545  3.18578353935394 -0.12378814861486
 6 -0.75163575467547  6.43552922292229  0.89045809740974
 6 -4.38542810541054  5.65320127682768 -1.08441753325333
 1 -0.59249083398340  0.33835070087009 -0.17161690139014
 1  3.17891525252525 -1.03662180338034 -1.11927201460146
 1  2.51202108340834 -2.80760235683568 -2.26482302940294
 1  1.16302730893089 -3.81555566646665 -2.84459281938194
 1 -5.63198492579258 -2.44364298899890  2.29535007490749
 1  4.78808132063206  0.29125850725073 -1.29099944724472
 1  5.68347691509151  1.55676520462046 -0.40646422102210
 1 -2.56785300300030  0.13832162246225 -0.40778117561756
 1  0.42737996859686  1.84954479837984 -0.53470091559156
 1 -1.18400313611361 -4.66662123262326 -1.11912142194219
 1 -2.66439655065507 -3.74774536093609 -1.91024915801580
 1 -1.06814199409941 -3.98981605040504 -2.86653224252425
 1 -2.31505389168917 -3.51354108480848  0.66134880008001
 1  1.19882071137114 -5.03500619891989 -0.52624801470147
 1  2.73373947834783 -5.33849795669567 -1.64177955985599
 1  4.68774400740074 -1.12336349974998  0.80304004010401
 1  5.31576592199220  0.45531156985699  1.75715351845184
 1  4.18376890249025  4.88145856225623 -0.23139451125113
 1  5.59062215391539  3.63190072327233 -0.21705591599160
 1  4.71270830343034  3.88577404950495  1.35911162806281
 1  1.65695647424742  5.13233241064106  0.42437351255126
 1 -7.71861342964296 -2.91777686118612  1.13656492609261
 1 -6.90190425432543 -4.62084846694669  1.18648448884889
 1 -6.87673337033703 -3.55229264536454 -0.24241215281528
 1 -6.74606912921292 -0.54380528902890  0.83818181928193
 1 -4.92959193129313  1.69334415531553 -0.17447470877088
 1 -6.36851522892289  1.18078715371537 -1.20681499759976
 1 -4.81534084608461  0.52963312551255 -1.45146191099110
 1 -3.64167615311531  6.12561696679668  0.95310218671867
 1 -4.39618105630563  4.63765609750975  0.84373039933993
 1 -0.04475361986199  6.50423098849885  1.83055289688969
 1 -1.57220333063306  7.20394384908491  1.18220757245724
 1 -0.30384121612161  6.76557884358436  0.11909286638664
 1 -3.92038994599460  6.66602422812281 -1.46310051255126
 1 -5.38760146734673  5.79405252135214 -1.01629150635064
 1 -4.22386586348635  4.85982615291529 -1.82354186218622
 1  4.01327972847285 -4.82474868736874  1.50723150555056
 1  7.96760478507851 -1.83713310231023  1.79640702370237

