%nproc=4
%Mem=2GB
# td=(NStates=1) B3LYP/SVP 

TD

0 1
 8 -4.17673918471847 -4.79175354655466  1.78690271867187
 8  2.94931896059606 -4.63509481628163  1.11345548284828
 8  6.83017932223222 -1.53281055075508  2.03538621812181
 8  3.78827388488849 -3.05189321432143 -0.14443778317832
 8  7.39247878447845 -0.87247714281428 -0.15752178487849
 8 -3.05857144324432  2.21586963776378 -0.25622718411841
 7 -0.17777477217722 -0.50243443654365 -0.60591760466047
 7  1.60255874857486  1.84430486298630 -0.26822840044004
 7 -3.25090707970797 -3.04085519851985  0.61383770237024
 7 -0.87877637333733  2.78395954535454 -0.13313715951595
 6  0.72920518481848 -2.40027798619862 -1.34300659575958
 6  0.99649255155516 -1.24039127082708 -0.88467731663166
 6 -0.72956708540854 -2.52386074827483 -1.22811487418742
 6 -1.19290971297130 -1.33560387178718 -0.70256938693869
 6  3.82910137093709  1.50899406590659 -0.24109837663766
 6  2.48554065986599  0.87105893139314 -0.50200438543854
 6  2.24368961916192 -0.41886914481448 -0.90743021762176
 6  3.58675931603160  2.83983378557856  0.02160015031503
 6  1.68452985808581 -3.28996069736974 -2.02394974057406
 6 -5.42854176087609 -2.74498011291129  1.27786505080508
 6 -3.60030388968897 -1.74690966686669  0.21698763056306
 6  2.15494980708071  3.04118411261126  0.05508313171317
 6 -5.02176487278728 -1.44902386628663  0.50534457835784
 6  5.12241750365037  0.77958287518752 -0.29436839553955
 6 -2.55298011371137 -0.97473602900290 -0.30591706550655
 6 -1.50914057615762 -3.74544429752975 -1.83647396419642
 6 -4.22754242264226 -3.68245247704770  1.19417454305431
 6  2.22165329902990 -4.47095611931193 -1.15593482028203
 6  5.36533533593359 -0.08353647714771  0.89674222142214
 6  4.46898295959596  3.97376022532253  0.36371857215722
 6  1.22039071747175  4.09380393069307  0.24085580618062
 6 -6.74532918351835 -3.36048082788279  0.94177323942394
 6 -5.77198677927793 -0.52746853085309  0.13686085298530
 6 -0.11793971327133  3.91710996079608  0.19941175307531
 6 -1.12939803840384  5.07779531323132  0.39868833433343
 6 -2.30814028772877  4.49437093849385  0.24428033403340
 6  3.07062364436444 -3.85375804600460  0.02781047024702
 6 -5.53141685118512  0.55833112171217 -0.76040750555055
 6  6.64648452745275 -0.86819228882888  0.81727262546255
 6 -3.68900644354435  5.14671573007301  0.36834134483448
 6 -2.17767731933193  3.10782574357436 -0.08110388018802
 6 -0.77732832393239  6.40850652065207  0.73238228982898
 6 -4.42268183078308  5.45195115181518 -0.97922701420142
 1 -0.27831941684168  0.39428629442944  0.00214047434743
 1  3.15510287128713 -1.03990213141314 -1.24020410781078
 1  2.40292017331733 -2.63235483208321 -2.54462100920092
 1  1.31041204740474 -3.76113022392239 -2.99243760386039
 1 -5.43788551585159 -2.41585020972097  2.38330887078708
 1  5.09116162866287  0.14945432683268 -1.17693804110411
 1  5.90406897429743  1.51754128222822 -0.44945852045204
 1 -2.96690290799080 -0.00930314001400 -0.22400279777978
 1  0.56728395899590  1.93646349024903 -0.58288573407341
 1 -1.47686242204220 -4.60822539303930 -0.98887839763976
 1 -2.62179229022902 -3.56789737613761 -1.91495962906291
 1 -1.23610879077908 -3.95935300410041 -2.98000358965897
 1 -2.25733812011201 -3.36183591429143  0.77089975517552
 1  1.36396722602260 -5.13447614591459 -0.52453784368437
 1  2.93947005140514 -5.28081218811881 -1.70424580648065
 1  4.51192642564256 -0.86119728312831  0.99698943504350
 1  5.21040538593859  0.47684372307231  2.06089389248925
 1  4.40530105570557  4.90192060846085 -0.34481585338534
 1  5.61093418511851  3.54720225342534  0.60170596019602
 1  4.21499853245325  4.26317178927893  1.38350406730673
 1  1.76287706630663  5.16910608800880  0.50194126932693
 1 -7.76307787608761 -2.71596668016802  1.03460473007301
 1 -7.14823888778878 -4.15740212231223  1.71942778317832
 1 -6.78306400340034 -3.93380079617962  0.07632972137214
 1 -6.63287781008101 -0.61368227672767  0.69448744984498
 1 -4.88319729182918  1.50567538843884 -0.38177543884388
 1 -6.39945832323232  1.02878195319532 -1.12425674177418
 1 -4.71039035103510  0.31023118531853 -1.59223598839884
 1 -3.70939292479248  6.07041144624463  1.07908478497850
 1 -4.19779121732173  4.30132246414642  1.08105413171317
 1 -0.32889203370337  6.46825739113911  1.89575941754175
 1 -1.42955906620662  7.16584003870387  0.65952530423042
 1 -0.10898173017302  6.95525781148115  0.10910186728673
 1 -3.88872677967797  6.31173879957996 -1.45283948644864
 1 -5.39926263346335  5.87797091319132 -0.74974485168517
 1 -4.58763224012401  4.56141631193119 -1.49352886088609
 1  3.47183558405841 -4.30796700920092  1.80117089948995
 1  7.60917894249425 -2.11595098409841  1.82527991099110

