%nproc=4
%Mem=2GB
# td=(NStates=1) B3LYP/SVP 

TD

0 1
 8 -4.21682319311931 -4.95054942614262  1.76184021242124
 8  2.72589661836184 -4.85327663446345  1.10130426772677
 8  6.90502680698070 -1.62817008670867  1.76961964146415
 8  3.74065912341234 -3.17238526352635  0.00426708730873
 8  7.63422295889589 -0.45714560966097 -0.00743677637764
 8 -3.10601618771877  2.30800885168517 -0.39824138553855
 7 -0.25004199889989 -0.43631782488249 -0.79354636753675
 7  1.60738923162316  1.87510794329433 -0.52780435803580
 7 -3.22946493549355 -3.09505061806181  0.71162748134814
 7 -0.76063455915592  2.91164231363136 -0.09527337313731
 6  0.66563882818282 -2.35285324372437 -1.37085938103810
 6  1.00996389868987 -1.06835406710671 -0.99583843274327
 6 -0.70003413211321 -2.54294265646565 -1.10195225792579
 6 -1.26645706770677 -1.36935724712471 -0.76168529852985
 6  3.78009647044704  1.53103627012701 -0.25419968676868
 6  2.61039314511451  0.95267709320932 -0.58611279627963
 6  2.26069131933193 -0.41061831973197 -1.00972044664466
 6  3.54291493159316  2.84329413161316  0.08004599489949
 6  1.59301070617062 -3.42577427872787 -2.01331867746775
 6 -5.50025893259326 -2.77388300320032  1.34348161246125
 6 -3.44148800810081 -1.88041301720172  0.22068800060006
 6  2.10055436753675  3.06644663886389 -0.04677705430543
 6 -4.90781347764776 -1.64740370427043  0.45714975887589
 6  5.10964622652265  0.83578849574957 -0.24828378707871
 6 -2.53434825052505 -0.97829638503850 -0.33584005780578
 6 -1.50339000110011 -3.75833558665867 -1.51006132293229
 6 -4.29495916431643 -3.81340557235724  1.28808393399340
 6  2.08736987068707 -4.44144316801680 -1.07969719651965
 6  5.33831263366337 -0.23015113861386  0.88514106130613
 6  4.54597065836584  3.95456830613061  0.50686288658866
 6  1.26186486488649  4.07939248954895  0.26662838343834
 6 -6.79610426102610 -3.40016479627963  0.85385444754475
 6 -5.75707528812881 -0.61780756475648  0.09099626652665
 6 -0.21164908420842  4.02025027482748  0.19295110701070
 6 -1.09631473007301  5.14119165286529  0.52143060856086
 6 -2.32442191589159  4.54854635603560  0.32723862986299
 6  2.88807538953895 -4.05686835703570  0.03246093529353
 6 -5.51002471197120  0.50634592319232 -0.70884234903490
 6  6.77854773377338 -0.63156862646265  0.86348724692469
 6 -3.72233977687769  5.33849490799080  0.39088359905991
 6 -2.20574012561256  3.06127108810881 -0.10098586838684
 6 -0.69712030313031  6.48485415541554  0.80329938153815
 6 -4.32776233883388  5.53382933963396 -0.99400849234924
 1 -0.33976556145615  0.60222708850885 -0.49017875757576
 1  3.20280764176418 -1.07393553475348 -1.20827091449145
 1  2.59870975227523 -2.90657225382538 -2.39036558365837
 1  1.26095710191019 -3.90172428332833 -2.88524688478848
 1 -5.57630935823582 -2.34825345004500  2.47094763466347
 1  5.34627714021402  0.37200658205821 -1.31626197349735
 1  6.07742631003100  1.50076960506051 -0.23242681728173
 1 -2.72060827852785  0.15572336263626 -0.53941433893389
 1  0.59473670427043  1.94991483538354 -0.65624306980698
 1 -1.58438317411741 -4.54971954245425 -0.71280078987899
 1 -2.73449356035604 -3.63393397979798 -1.64966309940994
 1 -0.97924310421042 -4.46583365216522 -2.33898948824883
 1 -2.21122350865086 -3.39372910361036  0.74458712391239
 1  1.02115294459446 -4.96860955925593 -0.81275666556656
 1  2.79621572597260 -5.21732583948395 -1.58802418431843
 1  4.86334156715672 -1.11195235863586  0.67649738583858
 1  4.89517386278628  0.28629466816682  1.77500530363036
 1  4.34840536613661  4.93008342474247  0.06456508470847
 1  5.53939703140314  3.62698023122312  0.43925971557156
 1  4.22445947854786  4.23135860796080  1.60437615451545
 1  1.79177995659566  5.04899407680768  0.35625670087009
 1 -7.59222079037904 -2.97748283178318  0.94856612621262
 1 -6.88920298419842 -4.47369375147515  1.12247808820882
 1 -6.57369306630663 -3.48404582068207 -0.27211512311231
 1 -6.61456597889789 -0.42774368286829  0.66067406850685
 1 -4.90972994509451  1.28503332423242 -0.13181044234423
 1 -6.28752713011301  1.42561163616362 -0.93147746384638
 1 -4.91669098109811  0.48091825402540 -1.63236000080008
 1 -3.63819580508051  6.28543294839484  1.00872774927493
 1 -4.18964040224022  4.68572090399040  1.14565059135914
 1  0.23531438693869  6.45091565696570  1.50182002360236
 1 -1.50193630393039  7.13533698839884  1.04168352005201
 1 -0.15427625962596  6.78263054875488 -0.13840288318832
 1 -3.54211211821182  5.86545417111711 -1.54345854835484
 1 -5.17419012621262  6.30459357545755 -0.83835371257126
 1 -4.71141461836184  4.50278044834483 -1.42589209720972
 1  3.31531993249325 -4.29141535403540  1.77166794919492
 1  7.73055107970797 -2.19743913291329  1.65543292629263

