%nproc=4
%Mem=2GB
# td=(NStates=1) B3LYP/SVP 

TD

0 1
 8 -4.32677418821882 -4.86767113831383  1.83232726112611
 8  3.10938496719672 -4.93090439723972  0.98694283158316
 8  7.08782508680868 -1.29505677537754  2.00610328982898
 8  3.76109116661666 -3.06070409540954 -0.11542488188819
 8  7.60825036163616 -0.46782667776778 -0.00832686538654
 8 -3.00568615471547  2.38712676347635 -0.72175373677368
 7 -0.36357335203520 -0.48929312241224 -0.57601461436144
 7  1.50461895459546  1.82530296279628 -0.47517909550955
 7 -3.28079006800680 -3.17117823082308  0.67333365196520
 7 -0.79587808350835  2.82876402580258 -0.02370621642164
 6  0.62777504180418 -2.35183314171417 -1.39142143724372
 6  0.98412131443144 -1.11407863956396 -0.87285613451345
 6 -0.74359848854885 -2.64130249244924 -1.29020108280828
 6 -1.31461188318832 -1.40035034643464 -0.69672880288029
 6  3.81296975777578  1.49834300080008 -0.26493075987599
 6  2.55351745754575  0.81195302080208 -0.55556974197420
 6  2.31133638383838 -0.49526678457846 -0.88229770437044
 6  3.49743038313831  2.79393919611961  0.11811980228023
 6  1.56900830593059 -3.35941764306431 -2.05609295489549
 6 -5.46370527722772 -2.71811742664266  1.38594585888589
 6 -3.57370122942294 -1.87048202410241  0.23717964976498
 6  2.04890920302030  2.98756875107511  0.04173179657966
 6 -5.03247594389439 -1.55862482638264  0.67017106100610
 6  5.04761002290229  0.83151806870687 -0.49165812451245
 6 -2.65397021272127 -1.01534008940894 -0.38097457125713
 6 -1.60427008910891 -3.74397415051505 -1.82572288908891
 6 -4.24418408680868 -3.72224645644564  1.36254137973797
 6  2.04194532823282 -4.57493651735173 -1.10863008980898
 6  5.38735753815382 -0.14680280378038  0.91362390959096
 6  4.45289135043504  3.82980582988299  0.65359756005601
 6  1.21385006340634  4.01237578787879  0.40925264586459
 6 -6.80495514611461 -3.35119989978998  1.03720278237824
 6 -5.71489106970697 -0.54933071707171  0.14658182508251
 6 -0.15272319161916  3.93800205000500  0.38408021992199
 6 -1.11804690329033  5.11445897959796  0.55419388488849
 6 -2.29833930763076  4.59376087748775  0.24651055705571
 6  3.12142872487249 -4.15944861506151 -0.13990630143014
 6 -5.48404211371137  0.51060634923492 -0.86304776957696
 6  6.76208608760876 -0.68964443404340  0.81992289048905
 6 -3.66452399529953  5.31350240874087  0.32840735143514
 6 -2.12723227482748  3.21896685768577 -0.17702347214721
 6 -0.79608019911991  6.53508917891789  0.83229228082808
 6 -4.20815037763776  5.71914787148715 -1.13970306180618
 1 -0.55991757665767  0.27124399019902  0.02448270857086
 1  3.07219458045805 -1.23938207940794 -1.01811189858986
 1  2.37265714701470 -2.84904650125013 -2.68425497259726
 1  1.02450345654565 -3.86126023692369 -2.93189154925492
 1 -5.38098982628263 -2.50269889458946  2.48053859375938
 1  5.05732824532453  0.27730711211121 -1.42224257155716
 1  5.80624919231923  1.46271579967997 -0.78060163476348
 1 -3.11862808050805 -0.03030524022402 -0.57867826532653
 1  0.50250748134813  1.55697554145415 -0.44442188768877
 1 -1.68291302710271 -4.29505407590759 -0.87883739353935
 1 -2.52052216321632 -3.29466005240524 -2.22234036713671
 1 -1.02481766166617 -4.49198626742674 -2.63594918421842
 1 -2.32101448774877 -3.58928865956596  0.56891955715572
 1  1.17727855715572 -5.05179787808781 -0.48875426532653
 1  2.45801190559056 -5.55647975487549 -1.58664404630463
 1  4.71687692069207 -0.97975913931393  1.28371810791079
 1  5.59885423082308  0.55468150685068  1.88360616371637
 1  4.24780530613061  4.67947836423642 -0.07482885468547
 1  5.43335642734274  3.38403593679368  0.49315510511051
 1  4.36798383098310  3.99879535163516  1.89904562146215
 1  1.78239901850185  5.00154933233323  0.59621069626963
 1 -7.74252582088209 -2.62815789928993  1.06381765136514
 1 -6.78130219411941 -4.41855823792379  1.63198903930393
 1 -6.72725842284228 -3.69628704480448  0.02822491089109
 1 -6.72781730403040 -0.40510141864186  0.63940194129413
 1 -4.68005697779778  1.40387520842084 -0.58896615791579
 1 -6.39776815421542  1.10922999799980 -1.05700001610161
 1 -4.80650996299630  0.35234539673967 -1.71271803660366
 1 -3.29643162866287  6.39705411051105  0.59620649714972
 1 -4.45546698489849  4.62661499339934  0.72406843314331
 1 -0.06858600310031  6.67986855225523  1.61423126472647
 1 -1.88250436073607  6.98491194589459  1.17050640234023
 1 -0.57671850385038  7.25625791149115 -0.02237128002800
 1 -3.50430833783378  6.40770839653965 -1.43204740724072
 1 -5.31788449564956  6.00957407350735 -1.02010188738874
 1 -4.06333981088109  4.61882205250525 -1.67056656465647
 1  3.74631303180318 -4.65261147364736  1.71918270067007
 1  7.91225925052505 -1.61297068606861  1.92873025602560

