%nproc=4
%Mem=2GB
# td=(NStates=1) B3LYP/SVP 

TD

0 1
 8 -3.96808831963196 -4.88333270447045  1.85416944534453
 8  3.13608763746375 -4.86300760756076  1.06499063636364
 8  6.75578188248825 -1.69183645334533  1.94295697519752
 8  3.81352641014101 -3.11222924792479 -0.11379471887189
 8  7.68069760636064 -0.53165306040604  0.14520848814882
 8 -3.08420400650065  2.45880393119312 -0.48922048344834
 7 -0.28271526622662 -0.47449164226423 -0.76688370127013
 7  1.51554004670467  1.82832326482648 -0.51381295889589
 7 -3.23590557955796 -3.03314442744274  0.64543086168617
 7 -0.74973346904690  2.91479262866287 -0.18647249304930
 6  0.58921118541854 -2.36890484888489 -1.49089138423842
 6  0.94622752505251 -1.09983721542154 -1.05906475537554
 6 -0.80814494319432 -2.53212157435744 -1.37842990569057
 6 -1.35797621962196 -1.28743905530553 -0.81619074907491
 6  3.73260172097210  1.56952011851185 -0.29445371217122
 6  2.49278138393839  0.90669249474947 -0.55194937993799
 6  2.21736698689869 -0.44395165306531 -1.01348082268227
 6  3.51636227632763  2.85897569976998  0.16862485278528
 6  1.58936034113411 -3.37547924922492 -2.03194053965397
 6 -5.33126203290329 -2.82504811971197  1.43928119241924
 6 -3.61867572687269 -1.76031100700070  0.13296922872287
 6  2.11556586868687  3.02903289748975 -0.01882425902590
 6 -4.94092678897890 -1.62414137803780  0.62720676457646
 6  5.11829709160916  0.80952586948695 -0.27661662036204
 6 -2.63755857155716 -1.00361891729173 -0.49385585938594
 6 -1.52919258135814 -3.82419217231723 -1.86261657845785
 6 -4.16891656005601 -3.74889912171217  1.33640876647665
 6  1.91202233593359 -4.55844486818682 -0.99084831163116
 6  5.31898070047005 -0.11478960246025  0.92784533173317
 6  4.47942400370037  3.79687253655365  0.64635683598360
 6  1.31618029642964  4.17724227452745  0.23273499409941
 6 -6.74794944554455 -3.49649442924292  1.09883894599460
 6 -5.84796437703770 -0.60269605360536  0.23095026192619
 6 -0.15706362566257  4.01791004080408  0.13832564446445
 6 -1.05549064766477  5.13461099479948  0.41772023752375
 6 -2.37398687238724  4.61891339273927  0.33845975197520
 6  3.04738132013201 -4.09371204140414 -0.03395570637064
 6 -5.56259996949695  0.49872516111611 -0.65691715651565
 6  6.73209308830883 -0.76337180678068  0.93569446764676
 6 -3.70016755965597  5.19568062656266  0.29393390409041
 6 -2.16153570517052  3.19666462746275 -0.13740951075107
 6 -0.63149374047405  6.59668533853385  0.91488053965397
 6 -4.38258782138214  5.56001195789579 -1.05053414491449
 1 -0.31292287718772  0.10786765256526  0.23621388168817
 1  3.07611497249725 -1.27679582078208 -0.93834392179218
 1  2.69232911421142 -2.95757735433543 -2.19349589668967
 1  1.43849485568557 -3.72460657155716 -3.05403376347635
 1 -5.60213194049405 -2.30466909160916  2.40635117501750
 1  5.17783029552955  0.16080546194619 -1.15265561286129
 1  5.86039460686069  1.48250777887789 -0.31624519911991
 1 -2.97934415211521  0.05324311461146 -0.81826222372237
 1  0.47626485708571  1.94037388128813 -0.39865731123112
 1 -1.03364810061006 -4.75297986848685 -1.18395790559056
 1 -2.66843695469547 -3.52533311971197 -2.04100223332333
 1 -1.00610579047905 -4.09202627142714 -2.73248883818382
 1 -2.32477486378638 -3.68846857755776  0.47814047924793
 1  1.04374520382038 -4.71550424872487 -0.22680807070707
 1  2.07638374277428 -5.67765187208721 -1.16885226712671
 1  4.59960519351935 -0.77403856725673  1.18666840294029
 1  5.29224356975698  0.56924296299630  1.91933973707371
 1  4.49998052365237  4.63746416281628  0.03669229742974
 1  5.45446853855386  3.20788832203220  0.38121391099110
 1  4.51428846144614  4.15403087518752  1.43703942084208
 1  1.81160193879388  5.21588076547655  0.51505258045805
 1 -7.41987355565557 -2.58731381488149  0.97889915951595
 1 -7.13394745864586 -4.15849223132313  1.56772261266127
 1 -6.82907860486049 -3.67495491159116  0.07797988638864
 1 -6.84728925122512 -0.57510841934193  0.67167516861686
 1 -5.09145811791179  1.37920274117412 -0.24165142644264
 1 -6.54392276967697  0.92976205120512 -1.13508782488249
 1 -5.05602491449145  0.38505866806681 -1.46600336513651
 1 -3.50621260676068  6.23506791189119  0.87215409190919
 1 -4.53348478667867  4.63879621152115  0.80549657595760
 1  0.20305116061606  6.39836040144014  1.68242808440844
 1 -1.49409551985198  7.15591904660466  1.29205855755576
 1  0.03230239823982  6.98605089078908  0.08174913201320
 1 -3.79922782978298  6.25398302400240 -1.74327853035304
 1 -5.19577228442844  6.30372348844884 -0.88294817201720
 1 -4.77020049694969  4.65868603890389 -1.53188269626963
 1  3.94154255475548 -4.72972918541854  1.61601238363836
 1  7.78669669426943 -1.90473986298630  1.85010239323932

