%nproc=4
%Mem=2GB
# td=(NStates=1) B3LYP/SVP 

TD

0 1
 8 -4.12673418421842 -4.81829620082008  1.82917694609461
 8  2.97322135083508 -4.78100940774077  1.09718385568557
 8  6.73748005230523 -1.80430770047005  1.86098877837784
 8  3.70573563106311 -3.00404842984298 -0.02252559195920
 8  7.35993553015301 -0.93600349544954 -0.13114914761476
 8 -2.95843142924292  2.34626267706771 -0.42136369776978
 7 -0.27564455915592 -0.47460165326533 -0.68283529642964
 7  1.62679117181718  1.95607604010401 -0.44947652525253
 7 -3.15631762076208 -3.04976608960896  0.74555087368737
 7 -0.76976547224722  2.85277642704270 -0.10365421122112
 6  0.67771003530353 -2.31513947234723 -1.47208950405041
 6  0.96128903120312 -0.99811704340434 -0.93241209010901
 6 -0.68414254295430 -2.48883724592459 -1.26275833853385
 6 -1.25813623562356 -1.33455376677668 -0.78350748074807
 6  3.78718717951795  1.57441060756076 -0.10281454825483
 6  2.53075518131813  0.97156898239824 -0.52939712471247
 6  2.26337158735874 -0.36341359925993 -0.95284475907591
 6  3.55691633173317  2.92137193939394  0.17496548684868
 6  1.60944234933493 -3.24790649194920 -2.08122546814681
 6 -5.44773368006801 -2.83765938083808  1.41287855215522
 6 -3.53776763606361 -1.79473444934493  0.27804373617362
 6  2.14314862696270  3.16039603380338  0.06742436583658
 6 -4.95014771107111 -1.65813477737774  0.64703874777478
 6  5.13035829772977  0.87007192409241 -0.25826478517852
 6 -2.63875869156916 -0.99858841424142 -0.37351382518252
 6 -1.50090975307531 -3.60482023512351 -1.81533184998500
 6 -4.13284295269527 -3.74911914371437  1.44688981458146
 6  2.06954808850885 -4.42219124282428 -1.11064029082908
 6  5.23438224062406 -0.18428655215522  0.93548609580958
 6  4.59180524182418  3.96733958325833  0.62560476077608
 6  1.21605028342834  4.26260081038104  0.31030275087509
 6 -6.73135778637864 -3.66783156295630  1.03061212331233
 6 -5.78237781838184 -0.75276106010601  0.21472863976398
 6 -0.09716763606361  3.96128437823782  0.20235204710471
 6 -1.11842694129413  5.14394192789279  0.44112257775778
 6 -2.37810728442844  4.49632113351335  0.19311521752175
 6  3.00179676167617 -3.98244091429143 -0.04682699349935
 6 -5.45350906040604  0.35488077667767 -0.81731319611961
 6  6.53866374537454 -0.90357582718272  0.76865776397640
 6 -3.75927347024702  5.19059011751175  0.22193670437044
 6 -2.10216976857686  3.19153411441144 -0.16732250205020
 6 -0.66503709480948  6.53586925692569  0.80608966056606
 6 -4.21281084368437  5.67318327502750 -1.17745683718372
 1 -0.21752333723372  0.50178704450445 -0.12457219691969
 1  3.07601496249625 -1.11571971317132 -1.01642172957296
 1  2.72647252855285 -2.68249984658466 -2.44527107420742
 1  1.16772777897790 -3.69450356125613 -2.86752511261126
 1 -5.59837156445645 -2.40487911261126  2.41859239913991
 1  5.24875738823882  0.29435881728173 -1.38709905720572
 1  5.86704527192719  1.52188171627163 -0.20764433903390
 1 -2.91251746944694  0.13369115941594 -0.45197559505951
 1  0.57414464506451  1.83572341624162 -0.87052449794980
 1 -1.40689542534253 -4.33140771127113 -1.14416392619262
 1 -2.66268637963796 -3.46575716211621 -2.06842497559756
 1 -1.16475165506551 -4.06988405720572 -2.77017260656066
 1 -2.04607699399940 -3.29834956565657  0.96790945614561
 1  1.28279910921092 -4.98718141644164 -0.52628801870187
 1  2.51624772917292 -5.06899100600060 -1.81708709060906
 1  4.53075830883088 -1.03510467386739  0.82438217431743
 1  5.23733807920792  0.39001504020402  1.79422722582258
 1  4.33261378697870  4.77686810321032 -0.09717108890889
 1  5.59528261996200  3.61473900710071  0.64116990659066
 1  4.21026805940594  4.27372284438444  1.69985570247025
 1  1.81528230683068  5.14393357075708  0.72028310351035
 1 -7.83966553485349 -3.25721080458046  1.15619688928893
 1 -6.94745880978098 -4.66027240934093  1.43511935233523
 1 -6.62754845184519 -3.86222363846385  0.02337442584258
 1 -6.86877139943994 -0.97480838933893  0.67852585368537
 1 -4.97092606470647  1.26197101800180 -0.48456571787179
 1 -6.43544192159216  0.46474554955496 -1.44202851895189
 1 -4.77227653965396  0.02910307250725 -1.71684844964496
 1 -3.83512549804981  6.04023842894289  0.95535241174117
 1 -4.55539697789779  4.41594392629263  0.68013403970397
 1 -0.27685683018302  6.48993955935594  1.71797163876388
 1 -1.56344245454545  7.10605406010601  1.07372672437244
 1 -0.29372020402040  6.87840012571257 -0.23510255315532
 1 -3.51909981698170  6.39839746544654 -1.71186538903890
 1 -5.31137384458446  6.04632774887489 -1.09890976817682
 1 -4.44453793069307  4.87025719601960 -1.89483899189919
 1  3.68218661916192 -4.31258747124712  1.74790557295730
 1  7.56112413701370 -2.32456184518452  1.79163654665467

