%nproc=4
%Mem=2GB
# td=(NStates=1) B3LYP/SVP 

TD

0 1
 8 -4.47224873567357 -5.07060143134313  1.80070409880988
 8  2.95852988168817 -4.72942424922492  1.18760289758976
 8  6.91151745604560 -1.50628789848985  1.79521220072007
 8  3.79904496199620 -3.04652267726773 -0.07908124752475
 8  7.61747128372837 -0.62716261136114 -0.05925195789579
 8 -3.01978756485649  2.54120217101710 -0.37276883828383
 7 -0.21365836053605 -0.59031322442244 -0.42789980288029
 7  1.56395488818882  1.85357579007901 -0.15898747634763
 7 -3.45644763376338 -3.34954606760676  0.58086440504050
 7 -0.80275877157716  2.85126627602760  0.16804295849585
 6  0.66782904720472 -2.37114507290729 -1.36997929302930
 6  0.90878378067807 -1.05970320202020 -0.80671952085209
 6 -0.71713584228423 -2.66573493569357 -1.29905196789679
 6 -1.34495491749175 -1.53535384678468 -0.73593272327233
 6  3.87923638443844  1.56274944144414 -0.32839710651065
 6  2.47041914771477  0.94418624412441 -0.53973815881588
 6  2.17935318551855 -0.37406466436644 -0.88579805440544
 6  3.58111875197520  2.89539934213421 -0.04360637033703
 6  1.71677308240824 -3.25925762706271 -1.94008135373537
 6 -5.61272017871787 -2.90392600750075  1.32836010031003
 6 -3.69546340564056 -2.04311928782878  0.21166709850985
 6  2.12492680478048  3.09117911211121  0.12888051145115
 6 -5.08793148944894 -1.71066002990299  0.52253629752975
 6  5.13972923482348  0.83518843574357 -0.49371833053305
 6 -2.71866668236824 -1.15466402180218 -0.30421689548955
 6 -1.36069573167317 -3.94125387848785 -1.84075439223922
 6 -4.51030069846985 -3.97773200500050  1.28742386798680
 6  2.10003113681368 -4.48471749544955 -1.00768999579958
 6  5.44401320372037  0.03940581708171  0.80370291749175
 6  4.52747880918092  4.00520336963696  0.25318751905190
 6  1.30708938733873  4.19778432873287  0.33453517411741
 6 -6.89800445104510 -3.55288006780678  0.61665072717272
 6 -5.74779436003600 -0.59614539853985  0.29206637353735
 6 -0.09222714201420  4.02584083388339  0.25289710161016
 6 -1.09281438003800  5.17092462616262  0.47604607010701
 6 -2.30245971967197  4.71885338673867  0.34126003200320
 6  2.96906348834883 -3.96332900310031  0.08202589178918
 6 -5.48314202370237  0.56290157875788 -0.56637810261026
 6  6.76363624262426 -0.72087755735574  0.73467436563656
 6 -3.57012455535554  5.41475253375338  0.30291480218022
 6 -2.17697724932493  3.26248120912091  0.00304453465347
 6 -0.52841343244324  6.54626029602960  0.66048510011001
 6 -4.05922548514851  5.70586654335434 -1.20368946044604
 1 -0.42444402930293  0.25764263006301  0.15915617591759
 1  2.89675703670367 -1.22466060726073 -1.19001908930893
 1  2.66747662896290 -2.83237483408341 -2.34826137323732
 1  1.34203520972097 -3.76373048394839 -2.89414777487749
 1 -5.72492421972197 -2.79033765846585  2.50360089999000
 1  4.99401191369137  0.05614499589959 -1.36736708400840
 1  5.98271683908391  1.50946047414741 -0.55864943954395
 1 -2.55903212091209 -0.00989319901990 -0.32147254475448
 1  0.57704493509351  1.88806865076508 -0.18488593409341
 1 -1.30736547234723 -4.78627319781978 -1.30062957275728
 1 -2.41489160016002 -3.70696128252825 -2.05200333343334
 1 -1.03461864176418 -4.21184825362536 -2.93249883918392
 1 -2.49690207650765 -3.83485321602160  0.34058672387239
 1  1.20479130843084 -5.09242194049405 -0.66896228612861
 1  2.69007511191119 -5.06012011891189 -1.60468585048505
 1  4.90993622662266 -0.84639580298030  0.99309904600460
 1  5.53175752115212  0.56342238093809  1.84662246534653
 1  4.20610113571357  4.62262267866787 -0.63449482128213
 1  5.61345443714371  3.74179171237124  0.25081087068707
 1  4.29119615221522  4.33902937503750  1.29439515641564
 1  1.67959873847385  5.35827500490049  0.46971804700470
 1 -7.66169773807381 -2.94662974647465  0.80741201080108
 1 -6.95055911981198 -4.36884326642664  1.24058989938994
 1 -6.90922661966197 -3.78047546364637 -0.29073698529853
 1 -6.84306882918292 -0.74095500400040  0.54560256135614
 1 -4.90063903600360  1.23342816371637  0.07766050475047
 1 -6.42722109950995  0.70078915391539 -1.12843715981598
 1 -4.92360167216722  0.19921008320832 -1.51689845464546
 1 -3.55882786828683  6.45913031813181  0.79667654415442
 1 -4.47104854305431  4.83133546544655  0.90433645994599
 1 -0.12217136163616  6.68258882428243  1.58799864146415
 1 -1.32765887618762  7.32885634033403  0.78861821352135
 1  0.19526869486949  7.08081036673667 -0.23479252215222
 1 -3.35717362436244  6.55919354505451 -1.66967116961696
 1 -5.23449615681568  6.15892900900090 -1.30448032523252
 1 -4.00205368226823  4.91142131243124 -1.82081158915892
 1  3.80633903440344 -4.21898811131113  1.61518230063006
 1  7.73677170177018 -2.01197058605861  1.75331271427143

