%nproc=4
%Mem=2GB
# td=(NStates=1) B3LYP/SVP 

TD

0 1
 8 -4.34805631643164 -4.91797616881688  1.77970199859986
 8  3.20193422212221 -5.01773308010801  1.17624176147615
 8  6.94581088538854 -1.57911518121812  1.81281396089609
 8  3.76863192069207 -3.16117414241424 -0.07858119751975
 8  7.57499703630363 -0.56390628572857 -0.03304933763376
 8 -3.05761134723472  2.46284433523352 -0.18462002340234
 7 -0.23486048074808 -0.46459065216522 -0.48553556645665
 7  1.56990548324832  1.90906133863386 -0.35130670827083
 7 -3.34729671867187 -3.13506461946195  0.64752107070707
 7 -0.75117361306131  2.92110325972597  0.08091424562456
 6  0.68204046834683 -2.36011396979698 -1.32742503760376
 6  0.92985588788879 -1.04255148684868 -0.70672952185219
 6 -0.69734386308631 -2.58426678887889 -1.20951301400140
 6 -1.32774319631963 -1.45914622602260 -0.66892602260226
 6  3.79794825562556  1.51407457395740 -0.36195046184618
 6  2.55741784758476  0.91658348384838 -0.54529871487149
 6  2.21093634383438 -0.38615587348735 -0.84689416401640
 6  3.59645028512851  2.87678748094809  0.01670966126613
 6  1.70205161026103 -3.30905260656066 -1.87449479507951
 6 -5.66978588528853 -2.94689030393039  1.27492475677568
 6 -3.59614347364736 -1.94353932983298  0.19316524832483
 6  2.13858817091709  3.05099509370937 -0.02510488708871
 6 -5.06332902920292 -1.72697166106611  0.46136017991799
 6  5.07527278917892  0.70421533843384 -0.47501646034603
 6 -2.64987980368037 -1.06648520392039 -0.35584205800580
 6 -1.52409207130713 -3.69064881798180 -1.84888520532053
 6 -4.35803547194720 -3.82079631143114  1.36853197879788
 6  2.01042217591759 -4.58491751545155 -0.99523875067507
 6  5.39838864126413 -0.11848997249725  0.81124367156716
 6  4.56940300160016  3.94682753205320  0.34098629892989
 6  1.33875255365537  4.20208475877588  0.25276699729973
 6 -6.80737538813881 -3.65755053485349  0.56091515361536
 6 -5.91823140374037 -0.61101688568857  0.15007217411741
 6 -0.06290420972097  4.13464171397140  0.16636844874487
 6 -1.07062216081608  5.25738327202720  0.36808527402740
 6 -2.30469994369437  4.69442094349435  0.28863476947695
 6  3.08372495449545 -4.19330200040004 -0.00564287508751
 6 -5.52154586408641  0.65526081468147 -0.66982844764476
 6  6.74530440944094 -0.68884435403540  0.79926082428243
 6 -3.60592813571357  5.30040109860986  0.32053656435644
 6 -2.14663421502150  3.28861382238224 -0.01042681248125
 6 -0.72543313441344  6.72134780478048  0.77441649324932
 6 -4.32436199879988  5.53001895859586 -1.04008309980998
 1 -0.29695128002800  0.29292615841584  0.10493075337534
 1  2.93762112311231 -1.03912205340534 -1.09612970037004
 1  2.55090497179718 -2.79402099869987 -2.34171071817182
 1  1.38448945514551 -3.58197230813081 -2.79668802890289
 1 -6.03618534583458 -2.39352797749775  2.37947848774877
 1  4.95640815331533  0.07783716511651 -1.39716006330633
 1  5.80666923432343  1.67590711881188 -0.44128770337034
 1 -2.96426264396440  0.17217500780078 -0.46975737323732
 1  0.42880011061106  1.94667451135113 -0.58874632013201
 1 -1.36436117191719 -4.62649722022202 -1.20325983578358
 1 -2.54908501950195 -3.55168575497550 -1.77743587668767
 1 -1.47132231213121 -4.09251632043204 -2.92005759505951
 1 -2.38851123742374 -3.57247697839784  0.99501216641664
 1  1.06463729302930 -5.05105780408041 -0.56269165906591
 1  2.57545364976498 -5.44405851275128 -1.53948933083308
 1  4.77419265226523 -0.77654881828183  0.79447918401840
 1  5.33730807620762  0.42029806850685  1.70440824392439
 1  4.64078460406041  4.77868828522852 -0.63679505130513
 1  5.56982007370737  3.54733226642664  0.66699248884889
 1  4.11446847944794  4.73353882598260  1.30594631153115
 1  1.72326310491049  5.18694787218722  0.24979605480548
 1 -7.82889445774577 -3.13237832133213  0.55133640324032
 1 -6.94553861776178 -4.57876425852585  0.93406924732473
 1 -6.36484218121812 -3.71099851595160 -0.61277918951895
 1 -6.94650917321732 -0.93402431093109  0.54958295939594
 1 -5.07134610671067  1.26181100200020  0.10884362306231
 1 -6.35075345274527  1.04528360336034 -1.17452176827683
 1 -4.81435074707471  0.27279744194419 -1.43477024182418
 1 -3.56874886038604  6.32560696579658  0.75361223772377
 1 -4.26394783298330  4.52667499939994  1.09379540584058
 1  0.15430628612861  6.66525709110911  1.51442128372837
 1 -1.58108421872187  7.22425588028803  1.20018937063706
 1 -0.31587241924192  7.27827011271127 -0.23880292319232
 1 -3.60977888488849  6.09975760146015 -1.88930313281328
 1 -5.44936764396440  5.92801591769177 -0.95908578577858
 1 -4.36683015991599  4.46946711701170 -1.34134364236424
 1  3.90091849234924 -4.50245645814581  1.74962574497450
 1  7.90152817741774 -1.85734512351235  1.86388377137714

