%nproc=4
%Mem=2GB
# td=(NStates=1) B3LYP/SVP 

TD

0 1
 8 -4.06538804960496 -4.83156752795280  1.99775380378038
 8  3.09714374307431 -4.99569087588759  0.99833397069707
 8  6.87955425972597 -1.58022529222922  1.92019469896990
 8  3.55588064556456 -2.96322434743474  0.10649731033103
 8  7.50711024762476 -0.66971686678668 -0.10197623032303
 8 -3.04964055015502  2.27562561336134 -0.33492505390539
 7 -0.30929792449245 -0.46885107820782 -0.56508352125213
 7  1.60555904860486  1.89154958745875 -0.31153273087309
 7 -3.19525151415142 -3.12263337633763  0.60895721432143
 7 -0.78240673637364  2.95728687808781 -0.08508235403540
 6  0.63815607990799 -2.27624558295830 -1.48376067116712
 6  0.95063796609661 -0.97931516321632 -1.04954380328033
 6 -0.78996312501250 -2.56685504770477 -1.30525258795880
 6 -1.32171259325933 -1.45817612901290 -0.76026515651565
 6  3.76433489428943  1.51374454095410 -0.16445071187119
 6  2.49305141094109  0.92675450095010 -0.49884406940694
 6  2.17710296049605 -0.42993025092509 -0.88089756435644
 6  3.50702134223422  2.83751355355536  0.05283327362736
 6  1.56132753785379 -3.33909561086109 -2.04248159375938
 6 -5.38601750845085 -2.84087970287029  1.34420168446845
 6 -3.53926778607861 -1.85829080498050  0.16996292809281
 6  2.10913522562256  3.06883687788779  0.14672229562956
 6 -4.88688138443844 -1.59686865076508  0.46172021592159
 6  5.01705696759676  0.76263118001800 -0.18277723642364
 6 -2.62798761446145 -1.02496105150515 -0.37928440224022
 6 -1.56099576167617 -3.81017077017702 -1.87055737253725
 6 -4.16197586598660 -3.70134436623662  1.48056318191819
 6  2.06066720042004 -4.48858788248825 -1.11494072087209
 6  5.33712251465147 -0.21024914841484  0.89028157535754
 6  4.52664872617262  3.93852670197020  0.41192339263926
 6  1.27131580998100  4.14648919921992  0.28540026062606
 6 -6.73299795039504 -3.61762654245425  0.86693575567557
 6 -5.75342492309231 -0.59250503450345  0.07948511541154
 6 -0.16236415571557  4.13249149894989  0.24498631053105
 6 -1.08832393099310  5.15537307100710  0.47917638313831
 6 -2.37333680738074  4.62599410081008  0.24122002800280
 6  3.02893947594759 -4.13412608280828 -0.02413472427243
 6 -5.47435114461446  0.68282357095710 -0.66912837763776
 6  6.68354823382338 -0.81021649124912  0.82923382158216
 6 -3.64353189608961  5.20673173167317  0.16931144184418
 6 -2.14318386998700  3.14209917091709 -0.02963873367337
 6 -0.71296188728873  6.56345201520152  0.78763781538154
 6 -4.32073163576358  5.60777673437344 -1.18666775827583
 1 -0.29077066196620  0.36034290009001  0.01076133643364
 1  2.85073243424342 -1.24571271247125 -1.09657974537454
 1  2.45103498479848 -2.88731032763276 -2.53227977507751
 1  1.10090109630963 -3.90927503840384 -3.04093245334533
 1 -5.52327405470547 -2.37254587928793  2.49395993589359
 1  5.07498001050105  0.21892127352735 -1.16678702600260
 1  6.08883745114511  1.38914844294429 -0.24259783438344
 1 -2.61309752745275  0.10184797509751 -0.47668806630663
 1  0.58612584318432  1.78931877577758 -0.68965641114111
 1 -1.44950968676868 -4.60959553005301 -1.22357186698670
 1 -2.60972108310831 -3.36840742714271 -2.12122025512551
 1 -1.09270445034503 -4.26844391319132 -2.92271786108611
 1 -2.11552393869387 -3.39073880458046  0.80907357255726
 1  1.07336816611661 -4.86366906520652 -0.71491688158816
 1  2.60193629802980 -5.22863697059706 -1.73062844474447
 1  4.55400063306331 -0.96024718811881  1.08287802390239
 1  5.36019036443644  0.43499953865387  1.73224102720272
 1  4.77784831043104  4.96317673407341 -0.03614498629863
 1  5.41223431513151  3.50352788598860  0.21006679627963
 1  4.52582961556156  4.12781825392539  1.42259797669767
 1  1.69279005760576  5.19482866026603  0.44294536973697
 1 -7.46216778507851 -2.75426050955095  0.90003127272727
 1 -6.77505156905691 -4.38034441654165  1.62483832423242
 1 -6.50519621662166 -4.00996841294129 -0.02891080268027
 1 -6.73879840214021 -0.83262417091709  0.38572657375738
 1 -4.52708168026803  1.31515633653365 -0.07428468976898
 1 -6.35695407280728  1.26902597759776 -0.79604392049205
 1 -5.02474178617862  0.58841900410041 -1.79845661046105
 1 -3.43025501100110  6.16447085218522  0.84241111761176
 1 -4.04607604580458  4.59532186408641  0.72374840114011
 1 -0.19233837833783  6.56124669006901  1.84092393399340
 1 -1.66460257055706  6.91790524522452  0.92064141584158
 1 -0.02479331133113  7.19632191789179  0.06601755885589
 1 -3.80727863486349  6.46993461916192 -1.74163836633663
 1 -5.37778048524852  5.97646076217622 -0.94643452065207
 1 -4.25467894479448  4.78000817111711 -1.92597210521052
 1  3.57292569306931 -4.49870608310831  1.72585336773677
 1  7.72997102170217 -1.84780416941694  1.73638102110211

