%nproc=4
%Mem=2GB
# td=(NStates=1) B3LYP/SVP 

TD

0 1
 8 -4.33597510831083 -4.79105347654765  1.91241526992699
 8  3.25788981768177 -4.87716902370237  1.14223836113611
 8  6.96179248354836 -1.79310658035804  1.55297797729773
 8  3.83373843134313 -3.03174119911991 -0.04764810421042
 8  7.61895143174317 -0.51841173627363 -0.07798383108311
 8 -3.05181076717672  2.39195724652465 -0.66753831523152
 7 -0.27783477817782 -0.48648284138414 -0.57596460936094
 7  1.52909140184018  1.86460689318932 -0.33255483308331
 7 -3.33978596759676 -3.16615772877288  0.68694501310131
 7 -0.82795129082908  2.86056720612061 -0.16936078187819
 6  0.68557082138214 -2.42258021642164 -1.39825212031203
 6  0.90548345064506 -1.03494072577258 -0.92021086998700
 6 -0.67076120482048 -2.56343470567057 -1.33760582328233
 6 -1.23903432543254 -1.40180049144915 -0.75369449944994
 6  3.78439690049005  1.57880104660466 -0.26467073387339
 6  2.49059116491649  0.86910873637364 -0.67137132213221
 6  2.30152540274027 -0.48124538243824 -0.93889336393639
 6  3.49735037513751  2.83243304550455  0.13740173047305
 6  1.71069247434743 -3.38297999929993 -1.83193053865387
 6 -5.51191009770977 -2.67498311321132  1.37815507980798
 6 -3.61622548184818 -1.83586856275628  0.13146907870787
 6  2.06041035313531  2.99110910511051  0.08671629502950
 6 -5.02654535083508 -1.58506747064706  0.46710075397540
 6  5.09358462036204  0.86117103400340 -0.25349430813081
 6 -2.58068288398840 -1.07100565596560 -0.40254672847285
 6 -1.49287894999500 -3.83823357645765 -1.61843216001600
 6 -4.32700236863686 -3.64788902070207  1.45069019461946
 6  2.09660079377938 -4.48761778547855 -0.86563579037904
 6  5.38789759215922 -0.09638776227623  0.77232978017802
 6  4.48714477577758  3.87037988728873  0.54926712701270
 6  1.22191086948695  4.05917046734673  0.34274599519952
 6 -6.72963761436144 -3.36978175797580  0.77396645874587
 6 -5.77478705930593 -0.46800258425843  0.06380354725473
 6 -0.16695461476148  4.03230147994799  0.30550236213621
 6 -1.18209330793079  5.13444097779778  0.58100656615662
 6 -2.39218869256926  4.56634813621362  0.15803170917092
 6  3.08531511351135 -4.00427309750975  0.09162685188519
 6 -5.43137684718472  0.69039432803280 -0.90616208100810
 6  6.71931181018102 -0.80101557115712  0.69251014921492
 6 -3.70300784368437  5.21034209270927  0.47252176287629
 6 -2.16021557315732  3.09353431443144 -0.22837860766077
 6 -0.75825641674167  6.48963463346335  1.03353240484048
 6 -4.34175373797380  5.39768572527253 -1.06322541404140
 1 -0.24165575047505  0.44268113391339 -0.20877061676168
 1  3.01945930693069 -1.16327446864686 -1.19611969936994
 1  2.55207508880888 -2.69720131673167 -2.29035558265827
 1  1.48500950715072 -3.92291640254025 -2.83183154325433
 1 -6.00977270457046 -2.17214583928393  2.45440598049805
 1  5.25625813831383  0.41231061246125 -0.94005435273527
 1  5.79765833323332  1.72921244934493 -0.26441001560156
 1 -3.00310652835284  0.05543333363336 -0.45737613511351
 1  0.49586681728173  2.02075191909191 -0.49792723822382
 1 -1.70061479727973 -4.34350892139214 -0.49693920372037
 1 -2.52778288928893 -3.60098068446845 -2.10573870697070
 1 -0.97133231313131 -4.69601667046705 -2.25034062336234
 1 -2.44864725102510 -3.52183191389139  0.78121078627863
 1  1.39860068936894 -4.99979267756776 -0.58411380128013
 1  2.59940604500450 -5.18446255315532 -1.52114749664967
 1  4.61212644564456 -1.01176233963396  0.96314605070507
 1  5.12164651005101  0.66668270697070  1.72450025312531
 1  4.39402992859286  4.72380279667967 -0.00863223502350
 1  5.44965805750575  3.52376991019102  0.54005979557956
 1  4.29693672627263  3.87181265336534  1.51971768866887
 1  1.64853563216322  5.07462664006401  0.75262633783378
 1 -7.61108267656766 -2.55237032053205  1.02393366296630
 1 -6.80392445634563 -4.17541392349235  1.32319816021602
 1 -6.55264096109611 -3.57970538663866 -0.18589650125013
 1 -6.84526904920492 -0.41743265176518  0.52727072817282
 1 -4.77753672577258  1.38721354225423 -0.41607886918692
 1 -6.31221959935994  1.29267834283428 -1.07721203730373
 1 -4.82469178117812  0.16403656585659 -1.72685945074507
 1 -3.47147913341334  6.10839524462446  0.86894377087709
 1 -4.36689812801280  4.66615894779478  0.92465849214921
 1 -0.29697884238424  6.30163072847285  2.06989683128313
 1 -1.65435154545455  7.05727918261826  1.20716006770677
 1  0.00998016601660  6.82516480218022  0.42017297439744
 1 -3.65625353235324  6.14567219291929 -1.49973417591759
 1 -5.27287999519952  6.06681979807981 -0.85226510371037
 1 -4.54119759665967  4.61999216951695 -1.57282679067907
 1  3.91172957345735 -4.38379459195920  1.65350613301330
 1  7.81942996759676 -2.08973836283628  1.47456483948395

