%nproc=4
%Mem=2GB
# td=(NStates=1) B3LYP/SVP 

TD

0 1
 8 -4.29960147094709 -4.81179555075508  1.83760778917892
 8  3.15179920862086 -4.79601090789079  1.17259139643964
 8  7.12333863816382 -1.58625589528953  1.78063074257426
 8  3.87346240374037 -3.09438746374637 -0.16222956235624
 8  7.48297783438344 -0.65336523162316 -0.20286631933193
 8 -3.01049663576358  2.37791584238424 -0.54234579597960
 7 -0.18891588628863 -0.49231342444244 -0.66753376627663
 7  1.50974946764676  1.82105253775378 -0.26891846944694
 7 -3.26264825382538 -3.11280239323932  0.60317663626363
 7 -0.86419491519152  2.92854400380038 -0.10021386718672
 6  0.66402866716672 -2.36434439283928 -1.35839813491349
 6  0.93963686598660 -1.09446667836784 -0.98866771567157
 6 -0.71795592429243 -2.66704506670667 -1.19023108580858
 6 -1.21936235823582 -1.38021833323332 -0.76938606860686
 6  3.72620108090809  1.52363553005301 -0.17879214601460
 6  2.47497960376038  0.81262308780878 -0.43913809880988
 6  2.23821907210721 -0.44766202410241 -0.94788426302630
 6  3.52002264236424  2.80654045624562  0.19327731803180
 6  1.60763216831683 -3.45783748504850 -1.94939228482848
 6 -5.56030493719372 -2.71654726962696  1.37455471977198
 6 -3.55007886718672 -1.81973694959496  0.11169710151015
 6  2.11052536463646  3.04711470567057  0.08966659005901
 6 -4.97047974427443 -1.55677464136414  0.56683072697270
 6  5.13327858975898  0.84200911781178 -0.28917787648765
 6 -2.62666748244824 -0.98075663106311 -0.55527200100010
 6 -1.51633129522952 -3.80503025612561 -1.69149946674667
 6 -4.34931459985999 -3.66431066286629  1.45583070867087
 6  2.06635776947695 -4.53201222492249 -0.98289751655165
 6  5.39857866026603 -0.16786490999100  0.85775832303230
 6  4.44957101840184  3.89606245554555  0.57565976627663
 6  1.24664334273427  4.11321587188719  0.35551727232723
 6 -6.72474712531253 -3.55553033283328  0.85649471157116
 6 -5.81318089868987 -0.51704748874887  0.16615378227823
 6 -0.22553047234723  4.08467671747175  0.28836064796480
 6 -1.13912901150115  5.12081961566157  0.50400886638664
 6 -2.36937641134113  4.60668216961696  0.21753765976598
 6  3.16578316031603 -4.09304197439744  0.00741843104310
 6 -5.43344705420542  0.67118240684068 -0.76462792759276
 6  6.73095297429743 -0.80849631923192  0.72053295149515
 6 -3.72690023292329  5.20750180868087  0.35818032873287
 6 -2.18230778237824  3.14573953495350 -0.06936270607061
 6 -0.79576016711671  6.58157382738274  0.84653370497050
 6 -4.31947150975098  5.65053100980098 -1.13809290079008
 1 -0.38177976287629  0.38266513231323 -0.37305704540454
 1  3.03663102410241 -1.16650479167917 -0.99779986738674
 1  2.53643352465247 -3.05143674027403 -2.34498104520452
 1  1.08041904810481 -4.03955806670667 -2.84106246634664
 1 -5.71207293459346 -2.53923254795479  2.41152169206921
 1  5.33349586208621  0.30639002040204 -1.29258960626063
 1  5.88904747214721  1.74326385448545 -0.19933350795079
 1 -3.04975119281928  0.06255404570457 -0.79368976647665
 1  0.63843107370737  1.97114695859586 -0.77733517901790
 1 -1.94325906170617 -4.84656922742274 -1.13903341314131
 1 -2.42886299729973 -3.34094468086809 -2.30820895399540
 1 -0.91265644554455 -4.19229629842984 -2.52442803210321
 1 -2.37790017631763 -3.49000873157316  0.85499816501650
 1  1.17157798709871 -4.91256395469547 -0.27536292619262
 1  2.57830393479348 -5.34866897379738 -1.58375375727573
 1  4.70050528352835 -0.90532169556956  1.04112384848485
 1  5.51497584298430  0.19587562626263  1.97224502760276
 1  4.26949747534753  4.63764418081808 -0.12594396619662
 1  5.44940803250325  3.42996052925293  0.82617840744074
 1  4.30144717731773  4.54352982508251  1.59205492239224
 1  1.85084586318632  4.96696587398740  0.56391746694669
 1 -7.57443901220122 -2.95558064156416  1.03139440904090
 1 -6.70978504240424 -4.46539292139214  1.47712355275528
 1 -6.40498619561956 -3.73570098619862 -0.29950786238624
 1 -6.85230975327533 -0.58024893339334  0.46201420252025
 1 -4.90704967706771  1.43469829072907 -0.26230349164917
 1 -6.26319469686969  1.28409748474847 -1.14015833193319
 1 -4.95066437843784  0.27839800200020 -1.66863362816282
 1 -3.72457444294429  6.09833423852385  0.99281615811581
 1 -4.63020445864586  4.42098443034303  0.85858188448845
 1 -0.46107525202520  6.62035260066007  1.70968080968097
 1 -1.54527063736374  7.15730918561856  0.96600595229523
 1 -0.07329816181618  7.04199648534853 -0.00774981788179
 1 -3.43820172717272  6.09629725542554 -1.69326352885289
 1 -5.17587029422942  6.37941105720572 -1.12077195439544
 1 -4.59581305820582  4.78019819011901 -1.65128463646365
 1  3.93220162066207 -4.46590280278028  1.63942472487249
 1  8.00782880748075 -2.00301969096910  1.60040742374237

