%nproc=4
%Mem=2GB
# td=(NStates=1) B3LYP/SVP 

TD

0 1
 8 -4.24530604140414 -4.90751512271227  1.65193922232223
 8  2.86943097179718 -5.00402170897090  1.19600373767377
 8  6.98181448574857 -1.41165843554355  1.89434211371137
 8  3.66775183268327 -3.10403842884288  0.10808746934693
 8  7.57553709030903 -0.56688658375838 -0.08848488118812
 8 -3.00618620472047  2.43011106190619 -0.44141570297030
 7 -0.26320331503150 -0.54231842494249 -0.60680769366937
 7  1.60189868256826  1.96903733623362 -0.49498107570757
 7 -3.23537552655266 -3.16742785578558  0.65236155475548
 7 -0.79551804750475  2.96031718111811  0.07134328852885
 6  0.69910217451745 -2.37864582298230 -1.45214750985098
 6  1.00492339463946 -1.01004823652365 -1.02171102000200
 6 -0.75426955565557 -2.62284064626463 -1.29414147684769
 6 -1.34707512951295 -1.44360467186719 -0.72974210421042
 6  3.81300976177618  1.58296146264626 -0.32472673947395
 6  2.55114722052205  0.87678950445045 -0.67359154415442
 6  2.18709395959596 -0.46526378427843 -0.90715018961896
 6  3.57129776987699  2.84199400160016  0.02092008230823
 6  1.78069947504750 -3.29372107340734 -1.96916426202620
 6 -5.49182808950895 -2.81066668156816  1.39785705000500
 6 -3.56669052835284 -1.92795777167717  0.24656058785879
 6  2.15533984608461  3.11869186338634 -0.08020039663966
 6 -4.97191988828883 -1.65966493039304  0.49781382528253
 6  5.15816107800780  0.78732364926493 -0.37120607930793
 6 -2.60328514421442 -1.06235479087909 -0.35026149995000
 6 -1.46623628572857 -3.94213396649665 -1.78138845564556
 6 -4.32417208560856 -3.87614184598460  1.30393551915192
 6  1.95696683038304 -4.50291931563156 -0.96706593339334
 6  5.32900170257026 -0.16712483598360  0.75661820902090
 6  4.59616567786779  3.92111496079608  0.33333553385339
 6  1.26857553595360  4.10466501680168  0.31355307590759
 6 -6.91156580718072 -3.41264604440444  0.91739080118012
 6 -5.66613619421942 -0.62915869986999  0.06177334423442
 6 -0.15272319161916  4.11151940174017  0.31165297719772
 6 -1.09842494109411  5.23394092779278  0.58304677017702
 6 -2.29370884458446  4.69296079747975  0.25698160416042
 6  2.98607518951895 -4.13966663686369  0.12747043624362
 6 -5.47808151765177  0.54526981558156 -0.73858532333233
 6  6.71965184418442 -0.74817028662866  0.78600949914992
 6 -3.70474801770177  5.26680773927393  0.33669818051805
 6 -2.12306185778578  3.22246720772077 -0.08211398119812
 6 -0.79295988708871  6.64774044404440  0.98774782638264
 6 -4.32065162776278  5.51461741844184 -0.99350844234423
 1 -0.37134871977198  0.40007687348735  0.02126238653865
 1  3.00135749674967 -1.17421556275628 -1.14284437183718
 1  2.79103898519852 -2.63888548514852 -2.09605615271527
 1  1.36466747294729 -3.79486359725973 -2.89265762586259
 1 -5.35741746904690 -2.51205983068307  2.31295183508351
 1  5.09526203870387  0.11541092249225 -1.12139248654866
 1  5.94507307470747  1.47812734083408 -0.51707528212821
 1 -2.74891110881088  0.17753554385439 -0.30361075857586
 1  0.53047027762776  1.81144098799880 -0.64106155165517
 1 -1.46329106490649 -4.72264683518352 -0.76070558035804
 1 -2.49343945494549 -3.74182476887689 -2.11484961806181
 1 -0.91086626652665 -4.56201327012701 -2.66253184248425
 1 -2.24587697399740 -3.53349308000800  0.58382104730473
 1  1.01595242454245 -4.68974167246725 -0.58740413031303
 1  2.35982208660866 -5.48430253715372 -1.49002438433843
 1  4.67409264226423 -0.93058422182218  0.62602233833383
 1  5.04106845224522  0.19040507920792  1.86068387148715
 1  4.25450597619762  4.80535095149515 -0.33813518531853
 1  5.63895698739874  3.66421395459546  0.22680847044704
 1  4.44369140174017  4.17854332643264  1.37769348624862
 1  1.87415819441944  4.92991216861686  0.84566564176418
 1 -7.71491305960596 -2.52435751925192  0.87765903550355
 1 -7.19751381528153 -4.13742012411241  1.74821066146615
 1 -6.94613031003100 -3.77662507860786  0.06127821622162
 1 -6.79894441674167 -0.89829073757376  0.22032003310331
 1 -4.62963193529353  1.35783060396040 -0.55877313861386
 1 -6.30058843624362  1.19472854785479 -1.24387870397040
 1 -5.07030634263426  0.15278544074408 -1.83627039183918
 1 -3.59539152465247  6.23198760386039  1.01447832433243
 1 -4.35001643984399  4.65277760966097  0.80213623992399
 1 -0.07255640014001  6.72469303470347  1.75481532313231
 1 -1.75214132443244  7.16654010871087  1.35137448914891
 1 -0.24353518551855  7.23448573427343  0.19238019511951
 1 -3.76549445644564  6.32447007270727 -1.65201940444044
 1 -5.31419412661266  5.89993310941094 -0.71920179737974
 1 -4.33634711161116  4.75190536083608 -1.56096560456046
 1  3.60129853035304 -4.71701791429143  1.90229101150115
 1  7.82883090769077 -1.92798218721872  1.77850523352335

