%nproc=4
%Mem=2GB
# td=(NStates=1) B3LYP/SVP 

TD

0 1
 8 -4.27735924672467 -4.80548491969197  1.81861588998900
 8  2.86324035273527 -4.75700700750075  1.21512564986499
 8  7.04825112941294 -1.50327759745975  1.67094977447745
 8  3.80651570907091 -3.13358138313831 -0.03579691909191
 8  7.61264080068007 -0.35722561766177 -0.13014904760476
 8 -2.99987557365737  2.49748779957996 -0.57621918331833
 7 -0.22666966166617 -0.55881007410741 -0.58355536843684
 7  1.54673316601660  1.77032746524652 -0.23995557315732
 7 -3.31140312931293 -3.08691980498050  0.68823514211421
 7 -0.88573706940694  2.94157530693069 -0.08397224302430
 6  0.71705396969697 -2.49324728312831 -1.40785308040804
 6  0.97140004230423 -1.12415964766477 -1.00210905980598
 6 -0.78803293199320 -2.66810517271727 -1.17436949964996
 6 -1.31804222622262 -1.43862417381738 -0.71648077807781
 6  3.75992445324532  1.43117628412841 -0.22754702150215
 6  2.46171827762776  0.82458428392839 -0.52191637663766
 6  2.17691294149415 -0.48748600650065 -0.99074854945495
 6  3.48181882198220  2.84586438863886  0.09972796309631
 6  1.69949135423542 -3.40111181248125 -1.98831617721772
 6 -5.46000490719072 -2.74947056195620  1.25164242854285
 6 -3.55960982028203 -1.79858483438344  0.18405433723372
 6  2.10991530363036  3.03906390059006  0.11769939333933
 6 -5.06127882418242 -1.56922588648865  0.54414845874587
 6  5.06797205910591  0.78619353625363 -0.40452941164116
 6 -2.55737055275528 -1.00107866326633 -0.39433590739074
 6 -1.41855151725173 -3.93928368146815 -1.68518883568357
 6 -4.30194986338634 -3.74799903170317  1.24461958755876
 6  2.07545867956796 -4.48611763546355 -1.07325655245525
 6  5.48297710011001 -0.09942806630663  0.93181572877288
 6  4.57812387368737  3.68043089238924  0.54236643694369
 6  1.22877155555556  4.05822037233723  0.40370209080908
 6 -6.81326597719772 -3.42821760156016  0.92871193329333
 6 -5.79257883848385 -0.50284606860686  0.01104827172717
 6 -0.16645456475648  4.06265451525153  0.26335814771477
 6 -1.08151324992499  5.15946348004801  0.38090655615562
 6 -2.34350382408241  4.67525902730273  0.27278318431843
 6  2.99193577557756 -4.03609627982798  0.07705539473947
 6 -5.38130183968397  0.63348863746375 -0.81696316111611
 6  6.79090896989699 -0.59257472707271  0.69368026622662
 6 -3.60734827772777  5.28730978947895  0.33954846554655
 6 -2.16003555515552  3.20278523952395 -0.10805657545755
 6 -0.67800839193919  6.55202087208721  0.94908395999600
 6 -4.44794435703570  5.30282623932393 -0.98979807130713
 1 -0.39144072897290  0.46782364816482 -0.16448618831883
 1  3.15421278227823 -1.02424056525653 -0.89929001640164
 1  2.74262414371437 -2.78587018361836 -2.63614016111611
 1  1.29574058025803 -3.77657176807681 -2.96186454655466
 1 -5.56467819511951 -2.34630325502550  2.19355989588959
 1  5.02880539303930  0.04243362476248 -1.23246359365937
 1  5.89653822122212  1.43240276837684 -0.62099567416742
 1 -2.87562378007801 -0.00609281898190 -0.43901429892989
 1  0.40847807840784  1.95689553345335 -0.59743718921892
 1 -1.55422015781578 -4.80213478397840 -0.99148865866587
 1 -2.50310042104210 -3.84101468786879 -1.82116024912491
 1 -1.14863004290429 -4.35483255205521 -2.69009459875988
 1 -2.34700708700870 -3.36919665036504  0.64145681088109
 1  1.34644547384738 -5.02257495579558 -0.58587397729773
 1  2.64854095849585 -5.38368247514751 -1.51176655855586
 1  4.64959019201920 -1.01776293969397  0.95081481758176
 1  5.20338468386839  0.53793983268327  1.97044484758476
 1  4.20472099769977  4.85046546294629  0.46997562576258
 1  5.55843893559356  3.40510804400440 -0.09496370677068
 1  4.82970000260026  3.57378285038504  1.76624234113411
 1  1.59807058565857  5.00411958935894  0.84318539373937
 1 -7.53135470377038 -2.63617870137014  1.13376464606461
 1 -6.75464952885289 -4.26791317341734  1.48982482288229
 1 -6.90054575157516 -3.70398781488149 -0.08887679927993
 1 -6.75299982228223 -0.67131804030403  0.35293329442944
 1 -4.81179015111511  1.33646846774677 -0.39249651095110
 1 -6.29594797219722  1.11397047204721 -1.14913923002300
 1 -4.99783909590959  0.37742790499050 -1.74548131293129
 1 -3.50539252475248  6.36866127122712  0.87176405290529
 1 -4.29989142734273  4.45533786568657  0.94216024232423
 1 -0.42293143764376  6.35595616101610  2.10537037863786
 1 -1.53608971927193  7.15355881058106  1.12614196589659
 1  0.12743191119112  6.95425771147115  0.35751670877088
 1 -3.90632853985399  5.99117674337434 -1.83196739923992
 1 -5.32804551175118  5.94474759085909 -0.96981685888589
 1 -4.74362783968397  4.27049722002200 -1.35526503450345
 1  3.39552795329533 -4.63355956845685  2.01379216161616
 1  7.94172219681968 -1.94487387638764  1.56523390639064

