%nproc=4
%Mem=2GB
# td=(NStates=1) B3LYP/SVP 

TD

0 1
 8 -4.39772128292829 -4.91317568876888  1.90063409180918
 8  3.02175620432043 -4.73367467426743  1.10620475777578
 8  6.86449275357536 -1.53101037073707  1.94751743124312
 8  3.81101615911591 -3.06537456245625 -0.11828516791679
 8  7.56106564316432 -0.58814870997100 -0.02553858655866
 8 -3.00178576467647  2.41020907170717 -0.48838039943994
 7 -0.21422841754175 -0.47178137123712 -0.67905491839184
 7  1.62249074177418  1.87818825132513 -0.43392497009701
 7 -3.27593958295830 -3.19185029802980  0.70947726632663
 7 -0.81693018871887  2.88289943934393 -0.07886173197320
 6  0.64162642694269 -2.41252921132113 -1.33311560666067
 6  1.01125402770277 -1.02481971367137 -0.93321217011701
 6 -0.66570069876988 -2.61628999119912 -1.25529759245925
 6 -1.24462488448845 -1.44139445084508 -0.61463059305931
 6  3.80000846164616  1.57440060656066 -0.35105937273727
 6  2.54807691349135  0.98361018651865 -0.63230741574157
 6  2.20798604880488 -0.36217347524752 -0.90652012661266
 6  3.51845248534854  2.76319612181218  0.16205419571957
 6  1.56790819591959 -3.26738844014401 -2.08862620822082
 6 -5.57147605430543 -2.87283289818982  1.26347361166117
 6 -3.56229008830883 -1.89720469636964  0.31287721952195
 6  2.13008732083208  3.06082607680768  0.02579020242024
 6 -5.01202389868987 -1.72380134403440  0.49883392729273
 6  5.15186044794479  0.84139905680568 -0.45732469116912
 6 -2.63347816351635 -1.14251280668067 -0.34009048284828
 6 -1.58821848394840 -3.77461721482148 -1.73636395319532
 6 -4.37441711011101 -3.84457868966897  1.39320444604460
 6  2.02375350905091 -4.41890091379138 -1.12513173997400
 6  5.40046884928493 -0.06244436793679  0.88617116431643
 6  4.57790385168517  3.79261211051105  0.47164936523652
 6  1.30761944034403  4.14201875217522  0.37975969656966
 6 -6.84423907450745 -3.53783856365637  0.78800786288629
 6 -5.84049362996300 -0.70340612461246  0.16908407530753
 6 -0.12822074137414  4.06046429622962  0.30843265516552
 6 -1.08015311391139  5.12464999869987  0.47790625612561
 6 -2.35019449314931  4.61874337573757  0.35475138113811
 6  3.00693727572757 -4.04030670087009 -0.01780409120912
 6 -5.44143785328533  0.44379966856686 -0.64408587338734
 6  6.70653053205321 -0.75764123372337  0.80626152435244
 6 -3.64398194109411  5.36334739323932  0.20695520622062
 6 -2.16002555415542  3.18156311731173 -0.11112688248825
 6 -0.65400599169917  6.61878754875488  0.85961501310131
 6 -4.22503206580658  5.71655761246125 -1.14437352885289
 1 -0.53583516841684  0.29655652145214  0.08593885418542
 1  2.96684404540454 -1.09055719691969 -0.98397848524853
 1  2.61599148044804 -2.72873447004700 -2.24979152625263
 1  1.15599660586059 -3.87840195109511 -3.00018837893789
 1 -5.51989371667167 -2.66108473317332  2.42528306820682
 1  5.32203471597160 -0.07611823042304 -1.31708205550555
 1  6.11211977937794  1.29174870297030 -0.42723629822982
 1 -2.99444566226623 -0.09446165586559 -0.40865126262626
 1  0.46333356395640  1.75530537443744 -0.49879732523252
 1 -1.54697943374337 -4.80607517801780 -1.08805831563156
 1 -2.65017512851285 -3.67855844224422 -1.98942707580758
 1 -0.92259743964396 -4.13405047384738 -2.46223181248125
 1 -2.33303568986899 -3.50947067776778  0.90750341554155
 1  1.15422625192519 -5.10257295559556 -0.69141453135313
 1  2.50335644004400 -5.12174628152815 -1.83793917581758
 1  4.77111234423442 -0.79966112951295  1.07291702780278
 1  5.27141148654865  0.45875191389139  1.68400620372037
 1  4.34058458405841  4.80304072047205 -0.13981535333533
 1  5.67900099179918  3.55302283548355  0.29678546814681
 1  4.60385741834183  4.14645011711171  1.54817053395340
 1  1.92235301390139  5.14942411981198  0.50771184638464
 1 -7.71092266056606 -2.96333141664166  0.95893716331633
 1 -7.05223928782878 -4.34139052115212  1.44412025242524
 1 -6.71936763376338 -3.77397481358136 -0.21637954955496
 1 -6.84010853315332 -0.74207511601160  0.47660566166617
 1 -4.82274124622462  1.02860768166817 -0.14197145844584
 1 -6.36234461186119  1.13748282328233 -0.94860917701770
 1 -4.82777208920892  0.06182634483448 -1.59804656945695
 1 -3.54964695019502  6.38549295439544  0.87322419891989
 1 -4.27005844404440  4.63571590349035  0.74870089638964
 1 -0.01865100960096  6.56743730913091  1.70439028062806
 1 -1.46349245954595  7.37518097279728  1.18863821552155
 1 -0.28372920492049  6.94617690339034 -0.01324036693669
 1 -3.36840474747475  6.41314894059406 -1.67781198369837
 1 -5.17382008920892  6.07591070717072 -0.91822169936994
 1 -4.23903738063806  4.89004917521752 -1.75365487348735
 1  3.54075247574757 -4.17695390789079  1.71141192359236
 1  7.74008203280328 -2.09688907790779  1.82663004600460

