%nproc=4
%Mem=2GB
# td=(NStates=1) B3LYP/SVP 

TD

0 1
 8 -4.19735124592459 -4.87687205840584  1.86268029642964
 8  3.00738476717672 -5.06486779357936  0.99810394769477
 8  7.08231453575358 -1.33699096879688  2.02536521602160
 8  3.81346640414041 -3.22469049404940 -0.02568590799080
 8  7.56391592819282 -0.57258715381538 -0.03639967266727
 8 -2.98065365146515  2.43117116791679 -0.35843740514051
 7 -0.23764075877588 -0.58364255735574 -0.54453146604660
 7  1.56817531023102  1.84958539103910 -0.39130070767077
 7 -3.33639562856286 -3.18927004000400  0.55208152675268
 7 -0.71887038273827  2.96873802320232 -0.12514636043604
 6  0.66774903920392 -2.36969492789279 -1.47999029412941
 6  0.92792569486949 -1.11244847654765 -1.01333018191819
 6 -0.73648777747775 -2.69994835703570 -1.31968403110311
 6 -1.32101252325233 -1.42575288668867 -0.76151528152815
 6  3.81547000780078  1.52385555205521 -0.23013728052805
 6  2.54190629642964  0.95598742424242 -0.57752193719372
 6  2.20564581478148 -0.37291454935494 -0.92780225482548
 6  3.47942858295830  2.85117491969197  0.10217820812081
 6  1.71368277337734 -3.36249795109511 -2.01097844344434
 6 -5.50865977267727 -2.81372698759876  1.41186845114511
 6 -3.64181804110411 -1.89097407330733  0.12583851565157
 6  2.10068438053805  2.98147814201420 -0.07258963556356
 6 -5.08623131943194 -1.58932789668967  0.51725576947695
 6  5.21917717961796  0.84926984388439 -0.29136809550955
 6 -2.65937075277528 -0.97623617901790 -0.53375984978498
 6 -1.48663832593259 -3.82378213131313 -1.97618793559356
 6 -4.37441711011101 -3.75531976377638  1.39115424102410
 6  2.04699583328333 -4.61893091679168 -1.05832505930593
 6  5.44059286168617 -0.08552667616762  0.91251379857986
 6  4.51426748804881  3.84532738203820  0.47263946424642
 6  1.28830750915091  4.08357290759076  0.34551627222722
 6 -6.85906055665567 -3.45288006780678  1.02905196729673
 6 -5.85154473507351 -0.57209299329933  0.30668783568357
 6 -0.13728164746475  4.12516076587659  0.25004681658166
 6 -1.11127622622262  5.23237077077708  0.46766523202320
 6 -2.29093856755676  4.63707520892089  0.22129803580358
 6  3.01778836083608 -4.09026169636964  0.02934062326233
 6 -5.54246795629563  0.59666495509551 -0.69818128292829
 6  6.77645752475248 -0.74808027762776  0.87248814701470
 6 -3.72765030793079  5.33289434793479  0.34957946864686
 6 -2.08778833043304  3.22352731373137 -0.15291106090609
 6 -0.67334792589259  6.66936260626063  0.74124317591759
 6 -4.51155071767177  5.43369932663266 -1.01336042754275
 1 -0.39606119101910  0.35263212901290 -0.16119585928593
 1  3.12722008300830 -1.00593873507351 -0.91960204760476
 1  2.46000588188819 -2.85684728132813 -2.28424497159716
 1  1.46743774997500 -3.78633274417442 -2.97012537263726
 1 -5.52845457275728 -2.45161378607861  2.36399693959396
 1  5.19783229572957  0.47613699509951 -1.27347769506951
 1  6.00373894129413  1.58959848794879 -0.09695326992699
 1 -2.85399161686169  0.14116190649065 -0.54455485298530
 1  0.49150638123812  1.84035387928793 -0.33840128562856
 1 -1.74586932273227 -4.76130070057006 -1.35661517131713
 1 -2.59497960896090 -3.49877046344634 -2.15711384448445
 1 -0.95758093799380 -4.34481154995499 -2.87559314861486
 1 -2.35151753805381 -3.46153588428843  0.21729439463946
 1  1.36561739103910 -5.33543624192419 -0.77304269416942
 1  2.60326643104310 -5.23237734463446 -1.73022840474047
 1  4.33304853785379 -0.62997416081608  1.12702243834383
 1  5.48171251665167  0.33448948764876  1.88490629372937
 1  4.51523204880488  4.80195061146115  0.06140476867687
 1  5.68922201390139  3.64144167736774  0.53090888048805
 1  4.34789182178218  4.11294676677668  1.52071778867887
 1  1.81624240284028  5.14312348974897  0.78203927912791
 1 -7.46386795509551 -2.52634771827183  1.04563583318332
 1 -7.08784284818482 -4.39036541864186  1.63758959935994
 1 -6.79829552655266 -3.65625304140414 -0.04867277887789
 1 -6.75268979127913 -0.38223913241324  1.08443644474447
 1 -4.91391036313631  1.41028584948495 -0.32172943424342
 1 -6.55623400080008  0.94601367636764 -0.90018433453345
 1 -5.13193250525052  0.27686784898490 -1.59723648844884
 1 -3.42681466696670  6.43792819791979  0.55143201970197
 1 -4.51112255045505  4.94839717161716  1.13565959225923
 1 -0.22493163766377  6.76029659505951  1.70664050565057
 1 -1.45574168446845  7.36490994569457  1.10618997069707
 1 -0.01738257025703  7.09260154585459  0.09295025212521
 1 -3.76839474647465  6.19289691539154 -1.67913211571157
 1 -5.46606931413141  5.93165628172817 -0.75270514771477
 1 -4.65082855975598  4.52756292659266 -1.62883239123912
 1  3.71160956145615 -5.10513672617262  1.59893067546755
 1  7.87611563616362 -1.89481887088709  1.81165854885489

