%nproc=4
%Mem=2GB
# td=(NStates=1) B3LYP/SVP 

TD

0 1
 8 -4.15322683348335 -4.80486485768577  1.89925395379538
 8  2.94084811351135 -4.65910721752175  1.30098423572357
 8  6.98096440074007 -1.70334760446045  1.75343802330233
 8  3.90356541404140 -3.13611163616362 -0.22228556795680
 8  7.67852738933893 -0.43315321042104 -0.00364639733973
 8 -2.95120070617062  2.22448049884988 -0.33224478587859
 7 -0.31398839353935 -0.49684387748775 -0.65726273917392
 7  1.56200469316932  1.84335476797680 -0.35320689828983
 7 -3.29354134313431 -3.04023513651365  0.66109242784278
 7 -0.77045554125413  2.91994314371437 -0.17462130793079
 6  0.57690995529553 -2.41127908630863 -1.45198749384938
 6  0.90045294759476 -1.06950418211821 -0.99707855675568
 6 -0.75623975267527 -2.60304866706671 -1.38350041274127
 6 -1.35463588558856 -1.40077038843884 -0.74975410541054
 6  3.74881334213421  1.52370553705371 -0.28929319611961
 6  2.56053815961596  0.82894471997200 -0.59929411441144
 6  2.21294654485449 -0.46204346224622 -0.87207668226823
 6  3.49432007210721  2.82735253745375  0.12429041934193
 6  1.59050045514551 -3.32411411271127 -1.94486183178318
 6 -5.41649055575558 -2.79258487338734  1.39508677297730
 6 -3.53668752805281 -1.85406038193819  0.15881181298130
 6  2.11463577567757  3.04979497369737  0.03559118251825
 6 -5.01880457675768 -1.59570853475347  0.45649969386939
 6  4.99747500940094  0.76356127302730 -0.25268422712271
 6 -2.63370818651865 -1.05159371477148 -0.44342081588159
 6 -1.55515517761776 -3.79249900300030 -1.98732904970497
 6 -4.21744141254125 -3.68904313611361  1.38021314691469
 6  1.95077621132113 -4.37845686938694 -0.92101132793279
 6  5.34432323472347 -0.25271339483948  0.88950149734973
 6  4.56452251355136  3.79625247454745  0.63859605990599
 6  1.33753243164316  4.16245079537954  0.28730045064506
 6 -6.73218786938694 -3.41983676347635  0.94597365946595
 6 -5.82818239883988 -0.55445122912291  0.01502866976698
 6 -0.14013193249325  4.07944619441944  0.17127893979398
 6 -1.06422152075208  5.14349188288829  0.48442690819082
 6 -2.34124359805981  4.57663916531653  0.29035494149415
 6  3.02386896889689 -3.95574824502450  0.09755744494449
 6 -5.48334204370437  0.70226551515152 -0.78200966576658
 6  6.81334121312131 -0.74620008960896  0.76617751595160
 6 -3.70153769666967  5.20092115061506  0.37186169686969
 6 -2.12850240184018  3.21917687868787 -0.17653342314231
 6 -0.74254484558456  6.50601627162716  0.85129418101810
 6 -4.46426598919892  5.31232718941894 -1.00982007350735
 1 -0.35130671557156  0.50635750155016 -0.19018875857586
 1  3.08523588458846 -1.16553469466947 -0.97779786718672
 1  2.49482936423642 -2.82554415101510 -2.29635618271827
 1  1.14682568876888 -3.95290940184018 -2.85337369746975
 1 -5.24772649995000 -2.21618024272427  2.28853939383938
 1  5.23567608010801  0.19101848324832 -1.19546989428943
 1  5.96540510791079  1.25152468056806 -0.21350492509251
 1 -2.90741695939594 -0.01787399709971 -0.44980537803780
 1  0.46703393399340  1.83569341324132 -0.74868231373137
 1 -1.67714245004500 -4.48878344884488 -1.04943445324532
 1 -2.44898500950095 -3.53219380578058 -2.26812494559456
 1 -0.80121530143014 -4.43634070287029 -2.66191178047805
 1 -2.25469785608561 -3.62263199389939  0.51266393159316
 1  1.10226105540554 -4.90951364966497 -0.56746213611361
 1  2.32402850725072 -5.23990809770977 -1.50215559745975
 1  4.89017425042504 -1.10964212761276  0.97411714781478
 1  5.19495384078408  0.34207024572457  1.86025382848285
 1  4.56358688428843  4.85933635003500  0.24353298149815
 1  5.61150424212421  3.30478801200120  0.51828761836184
 1  4.36584361696170  4.01455692779278  1.72141785868587
 1  1.84258503710371  5.15633481088109  0.65510658585859
 1 -7.54687625592559 -2.88703378687869  1.41152242184218
 1 -6.61743580748075 -4.52952933503350  1.33723956435643
 1 -6.64966066306631 -3.35300271637164 -0.10163807540754
 1 -6.94240876317632 -0.93176408490849  0.29367736883688
 1 -5.15983495559556  1.70379520042004 -0.06264352565257
 1 -6.34622299969997  1.02919199419942 -1.28584290039004
 1 -4.80005931793179  0.48874903710371 -1.54408117291729
 1 -3.62441442694269  6.32602700780078  0.69623650015002
 1 -4.26301773997400  4.69151148304831  1.10789681598160
 1 -0.37605675017502  6.73634419981998  1.93443328492849
 1 -1.64824093439344  7.25862931763176  0.87372672437244
 1 -0.23285411741174  7.12516480218022  0.02509346644664
 1 -3.79521742874287  5.89434706040604 -1.65443964646465
 1 -5.61815452265227  5.68509162526253 -0.87464734193419
 1 -4.43667714461446  4.29996016631663 -1.39994950295030
 1  3.76945534603460 -4.46849306180618  1.79067985038504
 1  7.89140716531653 -2.12297168616862  1.52726010901090

