%nproc=4
%Mem=2GB
# td=(NStates=1) B3LYP/SVP 

TD

0 1
 8 -4.35667717851785 -4.85005937713771  1.84944897329733
 8  3.01341537023702 -4.65424673147315  1.03114725202520
 8  7.06436274057406 -1.42916018571857  1.93325600510051
 8  3.83179823732373 -3.02598062306231 -0.17414075347535
 8  7.57703724032403 -0.51409130423042 -0.00102613531353
 8 -2.96826241234123  2.39569762056206 -0.56705826722672
 7 -0.32347934263426 -0.42427662076208 -0.65345235813581
 7  1.60485897859786  1.79108954145415 -0.45418699629963
 7 -3.34634662366237 -3.11680279327933  0.75486180478048
 7 -0.81076957265727  2.92979412881288 -0.06325017081708
 6  0.65041730603060 -2.44845280368037 -1.34721701680168
 6  0.85918882118212 -1.03961119281928 -1.02748159705971
 6 -0.78556268496850 -2.64527288948895 -1.19945200790079
 6 -1.38808923092309 -1.42583289468947 -0.71356048604860
 6  3.80537899869987  1.46264943144314 -0.27804207100710
 6  2.57703980978098  0.73022484798480 -0.55585977097710
 6  2.27675292549255 -0.52591984988499 -1.04026350095010
 6  3.51341198129813  2.77368717091709  0.02926091639164
 6  1.60343174827483 -3.39725142644264 -1.99231657725773
 6 -5.57617652435244 -2.72309792469247  1.34525178947895
 6 -3.58788264756476 -1.86585156105611  0.21537746954695
 6  2.14011832393239  2.92841283548355 -0.01918429502950
 6 -4.99302199849985 -1.59964892879288  0.54420846474647
 6  5.22788805070507  0.85999091599160 -0.17135609430943
 6 -2.64860967666767 -1.02439099449945 -0.31929840364036
 6 -1.45202486458646 -3.86973672677268 -1.66004632143214
 6 -4.30813048144815 -3.76503073487349  1.40301542714271
 6  2.13463459715972 -4.52483150685068 -1.15689491629163
 6  5.43674247664766 -0.10705882938294  1.00164271147115
 6  4.51884794609461  3.82095494479448  0.46252845314531
 6  1.32451112951295  4.05156970727073  0.30431215181518
 6 -6.69946459705971 -3.50377515731573  0.68396745884588
 6 -5.94283386398640 -0.61210699469947  0.17816498339834
 6 -0.13575149444945  3.92651090089009  0.27608942084208
 6 -1.09664476307631  5.08563609730973  0.51749021452145
 6 -2.31984145784578  4.61579308070807  0.25929183518352
 6  3.02638922092209 -3.99928259845985 -0.02365467626763
 6 -5.55148885838584  0.58936422502250 -0.58957042184218
 6  6.78308818781878 -0.75315078467847  0.79226012421242
 6 -3.66050359325933  5.33386444494449  0.34322883358336
 6 -2.13271282288229  3.21318627962796 -0.14937070687069
 6 -0.78213880498050  6.52944861486149  0.86836588818882
 6 -4.28748831143114  5.64443039973997 -1.04239333083308
 1 -0.62626421132113  0.45591245704570 -0.17424716441644
 1  3.08323568456846 -1.12605074627463 -1.23250333773377
 1  2.45226510781078 -2.82031362796280 -2.60185673277328
 1  0.98543955015502 -3.81603571447145 -2.93486184628463
 1 -5.59679140644064 -2.28538716341634  2.34699523942394
 1  5.22250476297630  0.34992437383738 -1.24609495679568
 1  5.96675524292429  1.73845337343734 -0.18552212681268
 1 -3.11063728142814  0.05040283058306 -0.49359975747575
 1  0.58271550215022  1.79920976487649 -0.44767221272127
 1 -1.49105384118412 -4.66500107060706 -0.97457696749675
 1 -2.64000411141114 -3.50033061946195 -1.85105323842384
 1 -1.31339651955196 -4.28640570937094 -2.79596518581858
 1 -2.32415480178018 -3.51200093079308  0.74402706790679
 1  1.21451228052805 -5.19671236953695 -0.78119350925093
 1  2.58489459385939 -5.32666677357736 -1.62478786068607
 1  4.79371460446045 -0.92247341074107  1.18395813191319
 1  5.25718006340634  0.55538157685769  1.96961476457646
 1  4.02642316791679  5.05155557195720  0.21086971517152
 1  5.43490658235824  3.80776831003100 -0.24379859025903
 1  4.80132716531653  3.82517798989899  1.61562727962796
 1  1.76183696229623  4.89072825022502  0.63745482068207
 1 -7.62484405270527 -2.86754183768377  0.42084335393539
 1 -7.03531759565957 -4.36921330343034  1.37960380078008
 1 -6.28422411941194 -4.04820223632363 -0.27630554215422
 1 -6.96338086038604 -0.73085399389939  0.32430043114311
 1 -4.81806077817782  1.09919474037404  0.17462020072007
 1 -6.41769014641464  1.22775185018502 -0.94118843494349
 1 -5.09574888688869  0.29147931013101 -1.46857362216222
 1 -3.48379036453645  6.12419682478248  1.03914079057906
 1 -4.51009244744474  4.51837416931693  0.75928195449545
 1 -0.14835397989799  6.42584314971497  1.85420526212621
 1 -1.53243935423542  7.23197665236524  1.15525487718772
 1 -0.31477230923092  6.98400068576858 -0.03020206310631
 1 -3.78254616161616  6.25311293699370 -1.75055925842584
 1 -5.19193190039004  6.09845296139614 -0.91728160536054
 1 -4.34906838373837  4.63956412671267 -1.55750525852585
 1  3.67362576307631 -4.36097230973097  1.63406418881888
 1  8.02468049264927 -1.89989937893789  1.69494687768777

