%nproc=4
%Mem=2GB
# td=(NStates=1) B3LYP/SVP 

TD

0 1
 8 -4.27819933073307 -5.06291066226623  1.69467349574958
 8  2.87687171587159 -4.85228653545354  1.14030816811681
 8  7.06876318061806 -1.64301157085709  1.86298897839784
 8  3.67488254575458 -3.09897792279228 -0.06961030043004
 8  7.59900943754375 -0.37477737283728  0.01964593189319
 8 -2.99771535763576  2.49362741354135 -0.30851241264126
 7 -0.18992598729873 -0.51453564666467 -0.52979999289929
 7  1.56419491219122  1.90480091259126 -0.33779535713571
 7 -3.22422441144114 -3.10441155415542  0.76150246884688
 7 -0.76358485418542  3.03528467786779 -0.02305615141514
 6  0.64627689198920 -2.41321928032803 -1.37180947604760
 6  0.94951785408541 -1.08569580128013 -0.90571942084208
 6 -0.67513164186419 -2.56464482668267 -1.15376743944394
 6 -1.25144556655666 -1.40913122452245 -0.55118424842484
 6  3.82796125692569  1.44161732823282 -0.28708297509751
 6  2.50282238803880  0.88591041654165 -0.63468765376538
 6  2.17222247244724 -0.31551880978098 -1.01410088468847
 6  3.61124176427643  2.86392619481948  0.02735072537254
 6  1.53884528962896 -3.32724442574257 -2.07944529012901
 6 -5.52953185988599 -2.98536415131513  1.26830409470947
 6 -3.62299615891589 -1.90204518041804  0.29437536933693
 6  2.11985629772977  3.09394938913891 -0.00231260786079
 6 -5.06213891019102 -1.81623058695870  0.59279332323232
 6  5.09365462736274  0.72375729262926 -0.34272323102310
 6 -2.63189800550055 -0.98312686808681 -0.18850532433243
 6 -1.61702136423642 -3.73574332743274 -1.63440375717572
 6 -4.28646831523152 -3.86459069086909  1.29774490009001
 6  2.08383951765177 -4.44975399909991 -1.12308153495350
 6  5.37015581798180 -0.16094421792179  0.85070761796180
 6  4.64323038433843  3.86994984428443  0.53042524282428
 6  1.32345102350235  4.17216176647665  0.26791851245125
 6 -6.81795644624462 -3.62414719451945  0.66982604470447
 6 -5.86084566516652 -0.77034281828183  0.13126029292929
 6 -0.08760667996800  4.11672992279228  0.20897270917092
 6 -1.05632073067307  5.23080061376138  0.41877034253425
 6 -2.29863933763376  4.77208871027103  0.23015892189219
 6  2.93439002100210 -4.05834850505051  0.00213790299030
 6 -5.51211492099210  0.54240952955296 -0.63797526232623
 6  6.73909378837884 -0.74653012261226  0.83185408360836
 6 -3.67357490039004  5.33181423992399  0.29793430413041
 6 -2.07963751535153  3.24977993899390 -0.12159792959296
 6 -0.68946953805381  6.57155282528253  0.74329338093809
 6 -4.28770833343334  5.58710466716672 -1.22223131463146
 1 -0.36904848974897  0.37936480228023 -0.21000073977398
 1  2.91775913691369 -1.00317845904590 -1.49832992039204
 1  2.33856373767377 -2.89597119371937 -2.50585713281328
 1  0.89391039723972 -3.95524963586359 -2.86691505160516
 1 -5.56158788608861 -2.81007963266327  2.29256979687969
 1  5.08149066156616 -0.15494611321132 -1.25869621692169
 1  5.79248781618162  1.59197872597260 -0.48880245484548
 1 -2.67192341004100  0.17060485078508 -0.38281867936794
 1  0.57573480408041  1.98778862276228 -0.46093353885389
 1 -1.55413014881488 -4.51314588508851 -0.91533104290429
 1 -2.73641375237524 -3.20899148554856 -1.82308044114411
 1 -1.29074425432543 -4.26475354415442 -2.63970956025603
 1 -2.22391477777778 -3.57142687338734  0.78834149934993
 1  1.19881071037104 -4.96367906620662 -0.82855824572457
 1  2.55634173857386 -5.08996310321032 -1.76065144704470
 1  4.64619985298530 -1.11737290069007  0.56818655475548
 1  5.25039938533853  0.29602564126413  1.71574937803780
 1  4.74242476807681  4.79141955835584 -0.18261963376338
 1  5.64811790349035  3.42654018721872  0.39626541614161
 1  4.51353838643864  4.32670814291429  1.43513923082308
 1  1.92576335493549  5.10457963536354  0.68076915211521
 1 -7.69664123242324 -2.95726080958096  0.95055632523252
 1 -6.89397346124613 -4.51661804390439  1.14346018641864
 1 -6.76280197719772 -3.65188260436044 -0.41932984458446
 1 -6.85229975227523 -0.71595250375037  0.61594959605961
 1 -4.96966593869387  1.35315013591359  0.04806754545455
 1 -6.38669704710471  0.82271134613461 -1.10748506460646
 1 -4.76519583158316  0.31642180438044 -1.36173293809381
 1 -3.71432341784178  6.26960136523652  0.89022589908991
 1 -4.58253969216922  4.57469980188019  0.56415244154415
 1 -0.16633577807781  6.69549011441144  1.58968881048105
 1 -1.62043815411541  7.29804325902590  0.82497184888489
 1 -0.10837166916692  6.98904118981898 -0.08146718961896
 1 -3.65607351435143  6.45146277197720 -1.53459766226623
 1 -5.27177988518852  6.01751486758676 -1.02822269946995
 1 -4.44938841574157  4.60146031633163 -1.74175368336834
 1  3.58365676617662 -4.66281249374937  1.75942672507251
 1  7.99522754735473 -2.01297068606861  1.73652103510351

