%nproc=4
%Mem=2GB
# td=(NStates=1) B3LYP/SVP 

TD

0 1
 8 -4.14026553735374 -4.77734210541054  1.95813984238424
 8  2.85430945964596 -4.55290659745975  1.22371650895090
 8  6.87693399769977 -1.62025929562956  1.88248092759276
 8  3.97893295079508 -3.19891791679168 -0.21015435483548
 8  7.64006354295430 -0.49760965606561  0.12023599089909
 8 -3.07555314141414  2.40967901870187 -0.46532809420942
 7 -0.25300229492949 -0.45248944204420 -0.58414542744274
 7  1.56784527722772  1.87760819331933 -0.64751632923292
 7 -3.25808779777978 -3.14885599859986  0.63669998859886
 7 -0.84462295799580  2.81525267466747 -0.18637248304830
 6  0.60568283258326 -2.33134109250925 -1.48172046714671
 6  0.94348725102510 -1.02826005770577 -1.01256010491049
 6 -0.76962109080908 -2.56869523172317 -1.14711677437744
 6 -1.32548297029703 -1.36656696809681 -0.69753888388839
 6  3.88151661246125  1.46270943744374 -0.38707297409741
 6  2.57888999479948  0.84617644314431 -0.76379056405641
 6  2.29471472167217 -0.46972423032303 -0.94613408800880
 6  3.45680632073207  2.77156695889589  0.07112510281028
 6  1.60820222532253 -3.34252595389539 -2.01332867846785
 6 -5.44822372907291 -2.82136775167517  1.30956822112211
 6 -3.57641150045004 -1.87062203810381  0.08788472027203
 6  2.02435674777478  2.98522851705170 -0.13769614621462
 6 -5.06824952125213 -1.63652261616162  0.47984202810281
 6  5.18953421532153  0.89678459535954 -0.29334829352935
 6 -2.63523833953395 -0.95284383978398 -0.33516999079908
 6 -1.47696735883588 -3.71392114521452 -1.73726404320432
 6 -4.29995966436644 -3.71902613441344  1.34936006160616
 6  2.06728786248625 -4.41549057275728 -1.04271349814981
 6  5.29304810721072 -0.19097722122212  0.86102865006501
 6  4.46047210851085  3.81895474477448  0.48442064236424
 6  1.24222290069007  4.00889543984398  0.29512123272327
 6 -6.83538818941894 -3.37468224802480  1.02793185528553
 6 -5.81154073467347 -0.60619640364036  0.01214838173817
 6 -0.23973189248925  3.98739698949895  0.24553636553655
 6 -1.18619371797180  5.05574310801080  0.53336180168017
 6 -2.34421389508951  4.54033553495350  0.40973687968797
 6  3.02038862086209 -3.97905057525753 -0.00647295809581
 6 -5.36207991749175  0.52861815041504 -0.79337080188019
 6  6.68078795779578 -0.73089855945595  0.91383228142814
 6 -3.73629117201720  5.18602966146615  0.45575008570857
 6 -2.12515206680668  3.13011797279728 -0.14338010781078
 6 -0.60753134423442  6.42871854185419  0.97542659425943
 6 -4.19590915351535  5.52281823852385 -0.95568465996600
 1 -0.28340992589259  0.46664353015302  0.05326558685869
 1  3.05058241924192 -1.18787692889289 -1.17198728612861
 1  2.52623250455045 -2.81917351395139 -2.32817936503650
 1  1.25086609280928 -3.94530864176418 -2.95680404050405
 1 -5.46479820712071 -2.72946157085709  2.43839437933793
 1  5.20977348984898  0.46244562596260 -1.36529687698770
 1  6.41024959235923  1.50394992309231  0.04409083448345
 1 -2.93507972567257  0.00464825512551 -0.52420281778178
 1  0.59385661626163  1.88566841074107 -0.74432187768777
 1 -1.25399013481348 -4.52041661216122 -1.25753526332633
 1 -2.64635474647465 -3.67009759615962 -1.66705483858386
 1 -1.25598077797780 -3.99142621142114 -2.80784637393739
 1 -2.28173055935594 -3.57477720842084  0.80638330353035
 1  1.36093692299230 -4.80984368266827 -0.66689207910791
 1  2.71878798319832 -5.01024513141314 -1.75136051795180
 1  4.62515774877488 -1.09479064246425  0.84434417051705
 1  5.11070541594159  0.30139617831783  1.95275307840784
 1  4.42407293289329  4.67913833023302 -0.29497086888689
 1  5.37403049474948  3.39125665886589  0.56535232483248
 1  3.89820685328533  4.33464893699370  1.36385210211021
 1  1.59166994559456  4.82646182358236  0.87678875407541
 1 -7.66913848214821 -2.48674375787579  0.86174744434443
 1 -7.27504156805681 -4.05956233833383  1.98021386178618
 1 -6.60750644764476 -4.18489590569057  0.05379746814682
 1 -6.83067759005901 -0.51810271877188  0.29606760786079
 1 -5.01422039413941  1.49822464336434 -0.11896915821582
 1 -6.12881125852585  0.85238431343134 -1.56862117821782
 1 -4.63332264426443  0.07586774897490 -1.42665943074307
 1 -3.59425141064106  6.08919332443244  1.05122199869987
 1 -4.51865330353035  4.50149248114811  0.72335836213621
 1 -0.13163230773077  6.38918948434843  1.95408525012501
 1 -1.33094920522052  7.13755721042104  1.13603295499550
 1  0.43383255125513  6.73642592829283  0.31091204830483
 1 -3.37341524852485  6.35459308500850 -1.34218842134213
 1 -5.08758146534653  5.99580269636964 -1.17604748194819
 1 -4.14977845474547  4.60780095039504 -1.71014052205221
 1  3.41897029752975 -3.92198841134113  1.87625840824082
 1  7.94205222982298 -1.85797518651865  2.05809319231923

