%nproc=4
%Mem=2GB
# td=(NStates=1) B3LYP/SVP 

TD

0 1
 8 -4.18999050985098 -4.85702007320732  1.69371339973997
 8  2.92119614831483 -4.75276658345835  1.21434557185719
 8  7.16718302260226 -1.46907417711771  1.90355303480348
 8  3.67601265876588 -2.97479550455046 -0.08353169256926
 8  7.52366190279028 -0.66307620272027 -0.26881291399140
 8 -3.02430801690169  2.29965801660166 -0.32080364176418
 7 -0.25174216891689 -0.60514470757076 -0.37470448334833
 7  1.50829932263226  1.81860229272927 -0.22181375897590
 7 -3.29066105510551 -3.12453356635664  0.65216153475348
 7 -0.74926342204220  2.89589073847385 -0.15114896069607
 6  0.61222348664866 -2.28640659905991 -1.43972626772677
 6  0.94651755405541 -1.09426665836584 -0.87695654455446
 6 -0.78482261096110 -2.56048441064106 -1.37895995869587
 6 -1.30893131513151 -1.41604191559156 -0.67028615861586
 6  3.80849931073107  1.48517168366837 -0.17403166996700
 6  2.49944205000500  0.84331615711571 -0.47335152015202
 6  2.24649990019002 -0.45548280618062 -0.82344181878188
 6  3.52393303340334  2.88675847804780  0.07626561686169
 6  1.57534893999400 -3.27995969726973 -1.95006235183518
 6 -5.48982788948895 -2.80152576747675  1.32035930023002
 6 -3.56967082638264 -1.91403637953795  0.16503243504350
 6  2.12355666776678  3.00677067126713  0.09491711511151
 6 -5.06371906820682 -1.64449341324132  0.44380842474247
 6  5.06587184908491  0.79250416731673 -0.26686564526453
 6 -2.68164297999800 -1.03829238463846 -0.36979345314531
 6 -1.50424008610861 -3.86984673777378 -1.93765408220822
 6 -4.31790145854586 -3.75490972277228  1.25823094869487
 6  2.04154528822882 -4.47946697039704 -1.03604283108311
 6  5.42598140054005 -0.02128025152515  0.96489903710371
 6  4.56251231253125  3.86930978027803  0.48229042934293
 6  1.30700937933793  4.06292084238424  0.35941766236624
 6 -6.76398104870487 -3.45807058685869  0.93410247234723
 6 -5.76870645124512 -0.54539032303230  0.09370653755376
 6 -0.15147306660666  4.05471372117212  0.14753656555656
 6 -1.00284538313831  5.18553608730873  0.32747121262126
 6 -2.32305177887789  4.60875237663766  0.26044195019502
 6  3.04481106310631 -3.99947261746175  0.07728541774177
 6 -5.44653836333633  0.62195748434843 -0.67257872267227
 6  6.77680755975598 -0.70394586418642  0.74802570077008
 6 -3.69492703560356  5.27085814431443  0.34201871257126
 6 -2.19038859045905  3.19327428842884 -0.10395616541654
 6 -0.49774036513651  6.44688035803580  0.73553260486049
 6 -4.49927949054906  5.46179213591359 -1.07751684318432
 1 -0.42817440234023  0.43068993479348 -0.07562730243024
 1  3.02521988298830 -1.07550569176918 -1.53531361876188
 1  2.35530541184118 -2.73059465606561 -2.62918946604660
 1  0.96175718191819 -3.88488259915992 -2.80890925102510
 1 -5.54455618291829 -2.51346997169717  2.46757729762976
 1  5.11007351985198  0.19930931233123 -1.22379272657266
 1  5.93219178657866  1.50697022512251 -0.57591116571657
 1 -3.02536875457546 -0.02860507020702 -0.38599899739974
 1  0.73251048164817  1.84468431233123 -0.70736818231823
 1 -1.82677741354135 -4.74947951845185 -1.15568507830783
 1 -2.56634674567457 -3.40230081648165 -2.35055318841884
 1 -0.84465964586459 -4.10146721552155 -2.87086267556756
 1 -2.41047343364336 -3.74496422712271  0.73600626582658
 1  1.11295212451245 -4.77224992329233 -0.59960535043504
 1  2.46295239963996 -5.35464957185719 -1.55608098999900
 1  4.73202843584358 -0.91944310771077  0.79613935003500
 1  5.20985533093309  0.46166220492049  1.93710151325133
 1  4.41187171277128  4.95035545194519  0.10165879407941
 1  5.50077316901690  3.43922145534553  0.20250604020402
 1  4.20079711231123  4.15749122122212  1.74049976687669
 1  1.75598637723772  5.23862303970397  0.44053512871287
 1 -7.75933750205021 -2.98458354185419  1.23789505910591
 1 -6.80030409430943 -4.52787917001700  1.40175601600160
 1 -6.84905060206021 -3.83637105320532 -0.08565647724772
 1 -6.78629315161516 -0.35991690019002  0.43779178027803
 1 -4.72419139123912  1.40645546644664 -0.03103036433643
 1 -6.32776115351535  1.15046412141214 -1.07241155725573
 1 -5.02006131813181  0.17539770197020 -1.61162792759276
 1 -3.42947493299330  6.29103350845085  0.80031690819082
 1 -4.19263070127013  4.59789212111211  1.04022004830483
 1  0.17426828232823  6.39734029942994  1.60067990959096
 1 -1.36449255955596  7.27385083978398  0.97362671437144
 1  0.23068223622362  7.06420870657066  0.16888784588459
 1 -3.85855376237624  6.09024665036504 -1.76288049054905
 1 -5.54349705690569  5.53619673577358 -0.92094197139714
 1 -4.61755523242324  4.41299146944695 -1.65810531853185
 1  3.59904830533053 -4.34913112561256  1.86235701810181
 1  7.97625565016502 -2.03628301730173  1.59819720272027

