%nproc=4
%Mem=2GB
# td=(NStates=1) B3LYP/SVP 

TD

0 1
 8 -4.31293280408041 -4.85187955915592  1.95540956935694
 8  3.04651868056806 -4.80484179097910  1.12249638693869
 8  6.88338464276428 -1.71590886058606  1.69995267476748
 8  3.85120017751775 -3.08535656065607 -0.06832017141714
 8  7.45639517611761 -0.74166406150615 -0.16033206590659
 8 -3.03639922602260  2.33386143694369 -0.50482204360436
 7 -0.16078307300730 -0.47758195129513 -0.55553256615662
 7  1.56487498019802  1.76632706520652 -0.24995657325733
 7 -3.23146513551355 -3.23753486648665  0.75588190679068
 7 -0.81052954865487  2.83510465986599 -0.10227407320732
 6  0.75085735003500 -2.32900085848585 -1.36755905100510
 6  0.93639654195420 -1.01974920662066 -0.93431228012801
 6 -0.72860698939894 -2.59225758795880 -1.34860692339234
 6 -1.26402682468247 -1.39319963136314 -0.78628775877588
 6  3.90394885568557  1.64593776027603 -0.29278354515452
 6  2.57808991479148  0.95376720222022 -0.63246743174317
 6  2.29909515971597 -0.41383864176418 -0.91294076867687
 6  3.51367200730073  2.86962676487649  0.17538552885289
 6  1.62609401450145 -3.32448414971497 -2.01453879947995
 6 -5.49520842754275 -2.82156777167717  1.30092735703570
 6 -3.55396925622562 -1.94246922282228  0.29071500330033
 6  2.06964127622762  3.07342733693369  0.13219084248425
 6 -4.94788748504851 -1.58090705460546  0.54022806670667
 6  5.18600386228623  0.89739465636564 -0.36460541924192
 6 -2.62568738443844 -1.13373192859286 -0.31447792159216
 6 -1.41842150425043 -3.77094684778478 -1.83683400020002
 6 -4.29474914331433 -3.74637886968697  1.31784691029103
 6  2.01083221692169 -4.36910593429343 -0.98239746654665
 6  5.27886668906891 -0.10089821332133  0.80519306650665
 6  4.45220128142814  3.99664251355135  0.63545574587459
 6  1.24671334973497  4.16116066636664  0.41080280088009
 6 -6.83875852645265 -3.33553833363336  0.94674373647365
 6 -5.70616019661966 -0.54448023202320  0.16040320722072
 6 -0.22265018431843  4.02289053885389  0.33134494639464
 6 -1.13676877547755  5.04761229492949  0.52465093059306
 6 -2.40369984368437  4.54802630403040  0.27098300430043
 6  3.00660724272427 -3.97860053025303  0.04694238343834
 6 -5.37155086458646  0.66729201780178 -0.67940940574057
 6  6.67884776377638 -0.84484995459546  0.74024492269227
 6 -3.74547209010901  5.18534959345935  0.10132464316432
 6 -2.18049760136014  3.14893985498550 -0.16965273507351
 6 -0.72039263036304  6.45661133113311  0.94777382898290
 6 -4.29309887248725  5.66687264396440 -1.37058615011501
 1 -0.33020460536054  0.48345521132113 -0.01445118481848
 1  3.10440780178018 -1.02340048124812 -1.21724181158116
 1  2.59456933823382 -2.74889648624863 -2.31212775987599
 1  1.43397440364036 -3.57967207810781 -3.02193055315532
 1 -5.87000872817282 -2.53598222292229  2.41594213411341
 1  5.25618813131313  0.55565494689469 -1.22942328962896
 1  6.04656322372237  1.74215374347435 -0.23283685828583
 1 -2.88792501020102 -0.17101931163116 -0.33737413491349
 1  0.54879210981098  1.82024186808681 -0.56887433293329
 1 -1.30764550035003 -4.52837740824083 -1.21538104790479
 1 -2.46085619661966 -3.70265085148515 -1.96930506360636
 1 -0.94033921382138 -4.08498556735674 -2.84678026732673
 1 -2.13737612391239 -3.77431716241624  0.84942760796080
 1  0.96844767406741 -4.85519821812181 -0.31214660456046
 1  2.44219032343234 -5.37332143904390 -1.35563094499450
 1  4.44805003800380 -0.86201736513651  0.79365910201020
 1  5.23466781218122  0.37832387108711  1.82898070117012
 1  4.42628315391539  4.76521693809381 -0.05044641644164
 1  5.50684377607761  3.56923445664566  0.38562435203520
 1  4.17789482208221  4.18661413351335  1.61631734863486
 1  1.57893867246725  5.11180035743574  0.82104317951795
 1 -7.69949151745175 -2.55432051555155  1.05975724532453
 1 -7.21034509840984 -4.20164654675467  1.53241908230823
 1 -6.78975467246725 -3.57656507260726 -0.01629954155416
 1 -6.79155367766777 -0.65177608610861  0.53429143024302
 1 -4.77938691079108  1.44566938783878 -0.23598085938594
 1 -6.35538391579158  0.84509358435844 -1.17999231533153
 1 -4.65038435043504  0.35087524972497 -1.48919568436844
 1 -3.94956694219422  6.03606801190119  1.07848472497250
 1 -4.55487692589259  4.39613194509451  0.45689171547155
 1 -0.24295343984398  6.32690325572557  1.89587942954295
 1 -1.57271338163816  7.06231968666867  0.99198855055506
 1 -0.00043087508751  7.11162344804480  0.29394035113511
 1 -3.55223313031303  6.50972859855986 -1.69331353385339
 1 -5.32425513271327  6.20913402950295 -1.32377225442544
 1 -4.17083055995600  4.80845101540154 -2.01135064306431
 1  3.69585798629863 -4.55199141164116  1.68595937833783
 1  7.66254427902790 -2.43207259625963  1.40209759275928

