%nproc=4
%Mem=2GB
# td=(NStates=1) B3LYP/SVP 

TD

0 1
 8 -4.17382889368937 -4.71986635783578  1.96626065446545
 8  3.12588661736174 -4.94617592439244  0.90195433273327
 8  6.73241954625463 -1.73901117081708  1.72253493299330
 8  3.87513257075708 -3.16282430743074 -0.10435377477748
 8  7.67628716531653 -0.15445534063406  0.23653762106211
 8 -3.02242782888289  2.26900495129513 -0.24712627402740
 7 -0.36025302000200 -0.50124431753175 -0.59343635653565
 7  1.48776726942694  1.85383581608161 -0.15070664826483
 7 -3.27748973797380 -3.06402751575157  0.70678699729973
 7 -0.81743023872387  2.81493264266427 -0.02153599939994
 6  0.58065032933293 -2.36296425482548 -1.38306060116012
 6  0.92977587988799 -0.99179641134113 -0.92534138303830
 6 -0.73211734043404 -2.66537489968997 -1.21603366606661
 6 -1.23519394139414 -1.40523083448345 -0.70317944794479
 6  3.74591305210521  1.51849501600160 -0.29544381118112
 6  2.46041814761476  0.73722554805481 -0.33675786078608
 6  2.23970922112211 -0.52541979987999 -0.83663313791379
 6  3.59224986508651  2.82437223942394 -0.00582259195920
 6  1.61755316041604 -3.29461116241624 -2.06026337193719
 6 -5.45457436413641 -2.70477609250925  1.34055131943194
 6 -3.60490434973497 -1.76879185508551  0.19010494229423
 6  2.15312962506251  2.99727972217222  0.08958658205821
 6 -4.99075177147715 -1.55720468436844  0.44770881478148
 6  5.03741900380038  0.75532044894489 -0.30935989468947
 6 -2.59847466316632 -1.03316187158716 -0.41776825062506
 6 -1.49934959705971 -3.86059581268127 -1.77098741554155
 6 -4.23822349074908 -3.63578781058106  1.44710983658366
 6  2.10086121982198 -4.45935495919592 -1.19680890769077
 6  5.22373117551755 -0.14368249174918  0.81707425462546
 6  4.59520558185819  3.83919676897690  0.44473667396740
 6  1.31515019341934  4.06925147544754  0.32939466006601
 6 -6.73124777537754 -3.48234301410141  0.81970103220322
 6 -5.94422400300030 -0.60704648864886  0.03572073897390
 6 -0.12994091339134  4.00410866066607  0.20612242414241
 6 -1.05243034163416  5.12276981068107  0.36131459695970
 6 -2.35065453915392  4.63062456385639  0.23210911691169
 6  3.18772535453545 -4.10658332853285 -0.18745105590559
 6 -5.61091480098010  0.67590287888789 -0.62710417521752
 6  6.75236511551155 -0.64374984458446  0.90384128232823
 6 -3.65601314421442  5.32657371587159  0.23354786548655
 6 -2.21231078267827  3.08768372937294  0.02168639883988
 6 -0.65045563666367  6.51109677967797  0.71094014561456
 6 -4.29930949354936  5.48405436213621 -1.15516460796080
 1 -0.56537812271227  0.46385325112511 -0.26042578227823
 1  3.04678203920392 -1.30778892009201 -1.09711979937994
 1  2.63956383768377 -2.74352594919492 -2.43803035013501
 1  0.98755976217622 -3.77722183308331 -2.88244660476048
 1 -5.72178390569057 -2.13142176687669  2.13884442434243
 1  5.07123963646365  0.33186256765677 -1.36550689798980
 1  5.89307787518752  1.58210773887389 -0.35627920252025
 1 -2.89925614331433 -0.02005421512151 -0.48866926442644
 1  0.51532876347635  1.97670751465146 -0.34687213271327
 1 -1.25680041584158 -4.56445101560156 -0.99613912371237
 1 -2.70427053805380 -3.68773936033603 -1.77278541164116
 1 -1.16137131703170 -4.17503457225723 -3.01768735803580
 1 -2.29982236853685 -3.49072880358036  0.59704236943694
 1  1.28075890519052 -5.09243194149415 -0.67456284618462
 1  2.64125022942294 -5.36478058495850 -1.66675205710571
 1  4.64098933193319 -1.22371353475348  0.65216495259526
 1  4.89340368576858  0.18289432813281  2.03015081818182
 1  4.61907243284328  4.67930834723472 -0.32989436123612
 1  5.65372846454645  3.43902143534353  0.53163895349535
 1  4.29265629822982  4.43135860796080  1.51751746864686
 1  1.69918069666967  5.10902007940794  0.37060813601360
 1 -7.48301987028703 -2.54270935443544  0.71016228582858
 1 -6.99004306820682 -4.30894727682768  1.53341918231823
 1 -6.47023272027203 -3.98955637173717 -0.06291420302030
 1 -6.84559908220822 -0.88503941244124  0.48391639273927
 1 -5.05445441754175  1.40686550745075 -0.14052131343134
 1 -6.46605498289829  1.06197527252725 -1.33440775687569
 1 -4.85517482948295  0.50819098129813 -1.46807357215722
 1 -3.77702968846885  6.44219862496250  0.74662153865387
 1 -4.23850528872887  4.84865719761976  1.05932195849585
 1 -0.19385853035304  6.61561212661266  1.73707354895489
 1 -1.28845495579558  7.39201265596560  0.77381673337334
 1  0.13906307430743  6.95816810251025 -0.02718176107611
 1 -3.64480238723872  6.10104773047305 -1.95231943444344
 1 -5.32190489768977  6.01997511361136 -1.24601447864786
 1 -4.52132560946095  4.35249541984198 -1.63490299829983
 1  3.87695609610961 -4.63813002550255  1.46879766216622
 1  7.59088711331133 -1.88894828382838  1.65949333233323

