%nproc=4
%Mem=2GB
# td=(NStates=1) B3LYP/SVP 

TD

0 1
 8 -4.34984649544954 -4.97307167836784  1.77734176257626
 8  3.07191121982198 -4.83820512731273  1.02637677497750
 8  6.96794309860986 -1.78379564926493  1.66007868736874
 8  3.89872492999300 -3.25462348734873 -0.30087342674267
 8  7.61539107570757 -0.21304119921992 -0.04140017271727
 8 -2.99215480158016  2.44714276507651 -0.35553711511151
 7 -0.26765376007601 -0.48909310241024 -0.43505051795180
 7  1.57901639433943  1.91356178867887 -0.40661223882388
 7 -3.37839982898290 -3.21899301230123  0.61495781438144
 7 -0.75078357405741  2.94510565996600 -0.05199904570457
 6  0.67869013331333 -2.40846880528053 -1.30888318341834
 6  0.92273517581758 -1.08886611831183 -0.77284613351335
 6 -0.67375150385038 -2.61662002420242 -1.15047711041104
 6 -1.31470189218922 -1.42611292269227 -0.53207233723372
 6  3.82636109690969  1.55067823432343 -0.25878014481448
 6  2.52915502130213  0.91433325882588 -0.46757094209421
 6  2.19396464666467 -0.45976323422342 -0.64278375297530
 6  3.46585722582258  2.86120592279228  0.06301429172917
 6  1.61228263336334 -3.28021972327233 -1.88749609520952
 6 -5.61551045774578 -2.86804241914191  1.27782504680468
 6 -3.63524738403840 -1.91566654255426  0.25820175197520
 6  2.06725103720372  3.05489548374837  0.01827945134513
 6 -5.07529022532253 -1.62289125302530  0.53444748864886
 6  5.11486674857486  0.81253617051705 -0.30882984168417
 6 -2.64686950265027 -1.05891444684468 -0.28150462426243
 6 -1.44790445254525 -3.72017177027703 -1.69707002380238
 6 -4.48411808020802 -3.84275850765076  1.30703582918292
 6  2.03220435413541 -4.52591161486149 -1.05046427322732
 6  5.39882868526853 -0.22125024852485  0.88712125932593
 6  4.48440450175018  3.98588143744374  0.38508070837084
 6  1.28752743114311  4.16623117341734  0.38437015761576
 6 -6.90689534013401 -3.55673045284528  0.77952701480148
 6 -5.79624920552055 -0.59177496149615  0.12559972687269
 6 -0.07058497779778  4.15442369216922  0.28373018491849
 6 -1.03060815941594  5.24791232493249  0.36181464696470
 6 -2.28975844954495  4.66176767816782  0.29720562656266
 6  3.06104268626863 -4.12460513071307 -0.05722803360336
 6 -5.39413312281228  0.48711400000000 -0.82694415921592
 6  6.77278715771577 -0.81937740734073  0.79086998519852
 6 -3.74620216311631  5.25620667916792  0.27587209790979
 6 -2.10928047964796  3.27190215121512 -0.07598336813681
 6 -0.65817640874087  6.69667533753375  0.71768081968197
 6 -4.23355291789179  5.47149310601060 -1.18657774927493
 1 -0.31249283418342  0.44380124592459  0.03202346264626
 1  3.17352471347135 -0.98523666486649 -0.78431851925193
 1  2.58773865516552 -3.01124272087209 -2.15589213631363
 1  1.42058306450645 -3.67397150805080 -2.99434779487949
 1 -5.76572830013001 -2.43678230293029  2.40233077297730
 1  5.26447896039604  0.29820920232023 -1.28217856515652
 1  5.84291285868587  1.39307883598360 -0.52762633723372
 1 -2.77957417511751 -0.01172338203820 -0.48576897439744
 1  0.52070930153015  2.01974181808181 -0.49525697119712
 1 -1.50517525332533 -4.60194476497650 -1.01074058385839
 1 -2.48627873887389 -3.44542512891289 -1.71593972707271
 1 -0.89584476437644 -4.09226629542954 -2.61131672097210
 1 -2.53970635693569 -3.70693042374237  0.76743940914091
 1  1.04653548284829 -5.07322002030203 -0.70573596349635
 1  2.69229533393339 -5.16944105100510 -1.69602498439844
 1  4.48476370937094 -1.03888505190519  1.09689942604260
 1  5.33568791419142  0.51934797349735  1.65607341044104
 1  4.75381590719072  4.78493891029103 -0.43165453725373
 1  5.53744683638364  3.65156268946895  0.53832962256226
 1  4.14887191979198  4.24596006810681  1.49167488438844
 1  1.80157093569357  5.14064324172417  0.44467554275428
 1 -7.86916848514851 -2.91146623012301  1.11576284588459
 1 -7.01331539543954 -4.44912129422942  1.50524636503650
 1 -7.18270396739674 -3.78255567166717 -0.22607051865187
 1 -6.92042656495650 -0.66753766226623  0.35939394049405
 1 -5.07604657675768  1.51334615551555 -0.30418768006801
 1 -6.30191856925692  0.88498757375738 -1.37181149724973
 1 -4.67149646164616  0.06336649884988 -1.65632239703970
 1 -3.76401838733873  6.23142754785479  0.91317819431943
 1 -4.52076351455146  4.68667099899990  0.89558558485849
 1 -0.42397154165417  6.85530609600960  1.86577641924192
 1 -1.57987409770977  7.22979643434343  0.55413476517652
 1  0.11839100710071  7.04454674037404  0.14240519761976
 1 -3.49704761176118  6.13077070277028 -1.70680488298830
 1 -5.07390009720972  6.00153326942694 -0.93186306350635
 1 -4.65302877977798  4.57654782508251 -1.71987149514952
 1  3.84382278277828 -4.42245845834583  1.59474025642564
 1  7.97264528912891 -1.93562295129513  1.51521890489049

