%nproc=4
%Mem=2GB
# td=(NStates=1) B3LYP/SVP 

TD

0 1
 8 -4.29685119591959 -4.94047841904190  1.67370139853985
 8  2.96629065776578 -4.95952725952595  0.96848098539854
 8  7.11238754305431 -1.49469673937394  1.71054373387339
 8  3.86592164966497 -3.15701372637264  0.05935259585959
 8  7.52777231383138 -0.52001189628963 -0.13150918361836
 8 -2.98990457655766  2.21394944574457 -0.32309387078708
 7 -0.28866586128613 -0.47195138823882 -0.52547956085609
 7  1.56257475017502  1.78991942444244 -0.19966154375438
 7 -3.37533952295230 -3.15590670367037  0.69789610821082
 7 -0.82927142284228  2.76617776717672  0.18288444264426
 6  0.64713697799780 -2.42311026942694 -1.27406970207021
 6  0.99046194849485 -1.06230346204620 -0.80764961386139
 6 -0.73892802150215 -2.57715607780778 -1.20625268796880
 6 -1.30900132213221 -1.35274558595860 -0.65817494749475
 6  3.78684714551455  1.57921108760876 -0.18941320812081
 6  2.52621472727273  0.89678150365037 -0.46472065706571
 6  2.25518076827683 -0.40638789668967 -0.75370484508451
 6  3.57941858195820  2.93394319651965  0.13445143544354
 6  1.71267267236724 -3.28800050135014 -1.94935228082808
 6 -5.51797070377038 -2.79746536143614  1.34167143144314
 6 -3.61078493779378 -1.86199117501750  0.19438537033703
 6  2.13037734983498  3.02701269546955  0.11753937733773
 6 -4.97758045434543 -1.56301526542654  0.47273131703170
 6  5.09166442834283  0.71197611451145 -0.38521748044804
 6 -2.56286110181018 -0.97388594399440 -0.33085955975598
 6 -1.47137679977998 -3.68161791489149 -1.92524284108411
 6 -4.34807447584758 -3.80250448224822  1.32588771437144
 6  2.13588472217222 -4.46115513921392 -1.12850207700770
 6  5.31748055045505 -0.16552467596760  0.82189473667367
 6  4.51695775707571  4.03777662696270  0.36625882618262
 6  1.20349902830283  4.09524407470747  0.34325604620462
 6 -6.91163581418142 -3.23781856165616  0.92820188228823
 6 -5.75713529412941 -0.56363214721472  0.06359352625263
 6 -0.20016793609361  3.92738098789879  0.43884569646965
 6 -1.17105220382038  5.11697923162316  0.44487295279528
 6 -2.34250372407241  4.66889839123912  0.15124103010301
 6  3.08247482948295 -4.06268893909391 -0.03764607540754
 6 -5.42563627312731  0.68663395199520 -0.72866433123312
 6  6.78643852285229 -0.72165763536354  0.76366726492649
 6 -3.71195873877388  5.30823188168817  0.09730424112411
 6 -2.20252980458046  3.16843180418042  0.04048827902790
 6 -0.77525811691169  6.45723139313931  0.66083513511351
 6 -4.26894645724572  5.43713967066707 -1.22865195669567
 1 -0.34497608250825  0.32847971377138 -0.11969170887089
 1  3.13223058405841 -1.23677181838184 -0.75951603900390
 1  2.50343022432243 -2.64718631523152 -2.41744829192919
 1  1.00799180538054 -3.76038014891489 -2.86489484958496
 1 -5.46593832113211 -2.17026565126513  2.32808334823482
 1  4.88473098559856  0.25221460286029 -1.42363271057106
 1  5.85622418981898  1.56750627872787 -0.59062263686369
 1 -2.55371158885889  0.11215900620062 -0.23156355385539
 1  0.50366759735974  1.73356320022002 -0.32192963846385
 1 -1.51981671747175 -4.61710628112811 -1.05726523632363
 1 -2.45380549154915 -3.49648023442344 -2.17439557265726
 1 -0.95239041894189 -4.09204627342734 -2.73620921022102
 1 -2.57495988228823 -3.52624235493549  0.70944360956096
 1  1.30163099239924 -4.93010570887089 -0.65659104900490
 1  2.74096020042004 -5.28543265016502 -1.64638001990199
 1  4.56878211121112 -0.95226639003900  0.71095083118312
 1  5.39342368776878  0.31341738043804  1.76955475857586
 1  4.34261478707871  4.90652106850685 -0.30291166296630
 1  5.64466755845585  3.51959949314931  0.24498028762876
 1  4.42596962956296  4.35183065516552  1.38857457435744
 1  1.60858163676368  5.10393957135714  0.31495257045705
 1 -7.69921148944895 -2.34076916041604  1.30194146374638
 1 -7.40788485238524 -4.13949033113311  1.49385522592259
 1 -6.76506220322032 -3.48869628572857 -0.11556946854685
 1 -6.70067458975898 -0.46436734523452  0.57738573967397
 1 -4.88630760286029  1.48282310321032 -0.18441570287029
 1 -6.41843022042204  1.10773984898490 -1.08622293839384
 1 -4.70401971397140  0.22276243844384 -1.56536330113011
 1 -3.55305729122912  6.44164856995700  0.59829670617062
 1 -4.33507494569457  4.78905123702370  0.78599462576258
 1  0.33498435393539  6.65043560896090  1.27478732033203
 1 -1.70418652895290  7.07976143084308  0.97126647834783
 1 -0.41903273527353  6.95122740844084 -0.41339038193819
 1 -3.61133904090409  5.99240686638664 -1.97670187268727
 1 -5.27988069526953  5.78115123122312 -1.17820769796980
 1 -4.37906138303830  4.42961313161316 -1.65949545754575
 1  3.67158555905591 -4.84526073857386  1.57273805620562
 1  7.84152217681768 -2.15423481248125  1.43018040104010

