%nproc=4
%Mem=2GB
# td=(NStates=1) B3LYP/SVP 

TD

0 1
 8 -4.20278178897890 -4.88957332853285  1.73963799219922
 8  2.99479350805081 -4.91499280608061  1.02926706400640
 8  7.17895419971997 -1.49763703340334  1.73201588108811
 8  3.79621467896790 -3.09572759775978 -0.13691703110311
 8  7.60132966956696 -0.43200309540954 -0.18942497519752
 8 -3.08287387348735  2.39322737353735 -0.39563112451245
 7 -0.21087808250825 -0.52222641574157 -0.44644165706571
 7  1.52304079677968  1.83716414891489 -0.31729330693069
 7 -3.25396738573857 -3.10747186018602  0.68620493909391
 7 -0.81170966666667  2.89008015741574  0.03413956815682
 6  0.59425168946895 -2.42858081648165 -1.32825512061206
 6  0.90455335763576 -1.07588482018202 -0.86278512741274
 6 -0.78928305700570 -2.59962832503250 -1.16694875757576
 6 -1.30521094309431 -1.36160647204720 -0.68967809780978
 6  3.78844730553055  1.48388155465547 -0.08916318311831
 6  2.47938004380438  0.88445027052705 -0.44440862586259
 6  2.20145539573957 -0.50996825472547 -0.77982745734573
 6  3.48567920802080  2.77369717191719  0.25366335663566
 6  1.50831223632363 -3.31196289758976 -1.97074442004200
 6 -5.45961486818682 -2.85362097699770  1.32529979427943
 6 -3.60106396569657 -1.86903187908791  0.21706763856386
 6  2.06037034913491  3.00517051125113  0.15319294269427
 6 -5.02110480678068 -1.67341630553055  0.49332337623762
 6  5.03280854275428  0.87600251715172 -0.21699065776578
 6 -2.64349916561656 -1.03123167856786 -0.30200667446745
 6 -1.56637629972997 -3.70225997909791 -1.76730704750475
 6 -4.37268693709371 -3.75965019681968  1.20588571417142
 6  1.98607974167417 -4.45065408910891 -1.10423965076508
 6  5.43503230563056 -0.26188431193119  0.77083963116312
 6  4.48756481778178  3.86135898519852  0.63361556185619
 6  1.33220189858986  4.11676622692269  0.50585230583058
 6 -6.88642329292929 -3.45234001380138  1.02122118421842
 6 -5.64097367796780 -0.60188597259726  0.09791695859586
 6 -0.09776769606961  3.99151740154015  0.30550236213621
 6 -1.10361546014601  5.18537607130713  0.38584705020502
 6 -2.34624409810981  4.69670117151715  0.10510641664166
 6  2.99916649864987 -4.00077274747475 -0.03298560936094
 6 -5.26635034453445  0.55121040964096 -0.72112357715772
 6  6.86663654265427 -0.77009247884788  0.66801769997000
 6 -3.69270681358136  5.30124118261826  0.11592610331033
 6 -2.18306785838584  3.20861582258226 -0.12148791859186
 6 -0.64625521662166  6.69176484648465  0.64727377897790
 6 -4.34372393499350  5.49177513421342 -1.30410950245024
 1 -0.28468005290529  0.26588345414541  0.50940120042004
 1  3.01364872587259 -1.25138327952795 -0.94284437183718
 1  2.44489437073707 -2.74338593519352 -2.44662120922092
 1  1.08350935713571 -3.84218832973297 -2.86346470657066
 1 -5.50904263156316 -2.75925455015502  2.42996353625363
 1  5.34207672017202  0.28454783618362 -1.17159750705070
 1  5.88684725212521  1.66028555665567 -0.22097567216722
 1 -2.56952317001700  0.04984277457746 -0.51354175167517
 1  0.37903513411341  1.99958980288029 -0.45307275277528
 1 -1.70943567936794 -4.77072164266427 -1.08456796659666
 1 -2.52816292729273 -3.44851543794379 -2.08642677577758
 1 -1.19935511541154 -4.11052812161216 -2.83993958325833
 1 -2.30100248654866 -3.46837656835684  0.88795146034603
 1  1.27535836513651 -5.04002670097010 -0.66191158105810
 1  2.44678078247825 -4.92490659755976 -1.93501888378838
 1  4.73342857585759 -1.28932009540954  0.48376811291129
 1  5.11920626602660  0.16898293699370  1.73095089818982
 1  4.22980350595060  4.86237665406541  0.29909853805381
 1  5.66438953065307  3.65915344854485  0.42321811141114
 1  4.31040807340734  3.98041351345135  1.81843756065607
 1  1.80637141574157  5.09950912831283  0.59185026022602
 1 -7.79856142444244 -2.73352843634363  1.32775404500450
 1 -6.85580964486449 -4.34719110121012  1.43112895329533
 1 -6.93221891889189 -3.62787020312031 -0.19037694929493
 1 -6.69361388368837 -0.65969687818782  0.41230923202320
 1 -4.70723969606961  1.36455127602760 -0.24223148444844
 1 -6.22565094249425  0.97400647564756 -1.21254557065707
 1 -4.86346565856586  0.42507266946695 -1.68393515831583
 1 -3.65350733623362  6.32900730583058  0.54629150565056
 1 -4.57440887908791  4.60777310921092  0.74782080838084
 1 -0.12439158365837  6.88136870227023  1.62136197779778
 1 -1.67000311061106  7.27930138483848  0.66637598929893
 1  0.13259242724272  7.09944222992299 -0.08369741264126
 1 -3.70007791479148  6.19968759445945 -1.92669687218722
 1 -5.58062076927693  5.58822193829383 -1.40450032723272
 1 -4.15138861576158  4.61174134443444 -1.55057456545655
 1  3.66422482298230 -4.71433764626463  1.65998678107811
 1  8.10420844544454 -1.84281367036704  1.63528091109111

