%nproc=4
%Mem=2GB
# td=(NStates=1) B3LYP/SVP 

TD

0 1
 8 -4.13302481328133 -4.77557192839284  1.87290131853185
 8  3.32135616431643 -4.95919722652265  0.94102824012401
 8  6.65229153345335 -1.68353562326233  2.02506518601860
 8  3.81622668016802 -3.00739876487649 -0.06587992739274
 8  7.58312784938494 -0.44940483558356  0.32883685098510
 8 -2.94701028712871  2.47797584838484 -0.48881044244424
 7 -0.38105510021002 -0.55083927702770 -0.70945795869587
 7  1.52729122182218  1.82758319081908 -0.43244482208221
 7 -3.27463945294529 -3.03519463246325  0.63597991659166
 7 -0.75793428912891  2.86494764416442 -0.10568441424142
 6  0.57182944724472 -2.40307826622662 -1.46363865896590
 6  0.81720462276228 -1.08103533523352 -0.97986683558356
 6 -0.87304143284328 -2.54375273747375 -1.30060212291229
 6 -1.41694211621162 -1.36816712811281 -0.81305043504350
 6  3.71421988278828  1.50583374987499 -0.33102736953695
 6  2.54443654945495  0.88808063356336 -0.67496168116812
 6  2.16655190539054 -0.44106136403640 -0.90578005260526
 6  3.52429306940694  2.87565736793679  0.00447843814381
 6  1.59874127922792 -3.43796549784979 -2.00991833743374
 6 -5.34870377707771 -2.85329094399440  1.41570883518352
 6 -3.62041590089009 -1.82589756565657  0.22272820462046
 6  2.05881019311931  2.98911890609061 -0.05841821842184
 6 -4.96915961226123 -1.55440440434043  0.52595663956396
 6  5.11932719461946  0.74752966986699 -0.33449240794079
 6 -2.71335615131513 -0.98743729912991 -0.47298377217722
 6 -1.61946160826083 -3.84449420252025 -1.84517483428343
 6 -4.14370403880388 -3.74404863666367  1.37763288888889
 6  2.08511964566457 -4.42265128882888 -1.07701692849285
 6  5.26368517091709 -0.12406052955296  0.90070261746175
 6  4.52611867316732  3.91421427072707  0.29524172447245
 6  1.27942662106211  4.13414796509651  0.15475719631963
 6 -6.66418106870687 -3.54612939273927  0.95745480758076
 6 -5.83956353695369 -0.55282106610661  0.18284545144514
 6 -0.13220113941394  4.03193144294429  0.25935774767477
 6 -1.06963206180618  5.16796433013301  0.59076754225423
 6 -2.27511698539854  4.62159366076608  0.31879778577858
 6  3.16641322332233 -4.01806447664766 -0.04059637043704
 6 -5.57375108460846  0.62795808440844 -0.70172163696370
 6  6.60286016501650 -0.73371884148415  1.04067496569657
 6 -3.67801534443444  5.17204826332633  0.40068457915792
 6 -2.05983553515352  3.16586154715472 -0.06334210401040
 6 -0.52325291639164  6.55707137713771  0.82225127672767
 6 -4.31538110071007  5.46806276297630 -0.99608870037004
 1 -0.42695428032803  0.41727859365937 -0.32349208890889
 1  2.84709207020702 -1.30942908410841 -1.26480656805681
 1  2.52555243654365 -3.05386698329833 -2.29625617271727
 1  1.15262626882688 -3.99440355125513 -2.78560692079208
 1 -5.45687741504150 -2.37759638433843  2.40940148004800
 1  5.26852936543654  0.15629501090109 -1.16285663296330
 1  6.10313888128813  1.56633616171617 -0.34522809740974
 1 -3.07262348004800  0.04952274257426 -1.05215561306131
 1  0.56484371497150  1.73130297419742 -0.46758420392039
 1 -1.53428816461646 -4.55772034253425 -1.08915842564256
 1 -2.69719983098310 -3.68176876327633 -1.92480061316132
 1 -1.02487766766677 -4.00278734753475 -2.77203279257926
 1 -2.39458184448445 -3.48661839253925  0.47670033523352
 1  1.25138596789679 -4.98439113741374 -0.44143953385339
 1  2.42656876127613 -5.35334944184418 -1.59221460336034
 1  4.59728496149615 -0.98194935833583  0.93142287838784
 1  5.28377272267227  0.54059009770977  1.81604940804080
 1  4.17159768536854  4.89145956235624 -0.28374974677468
 1  5.64514760646065  3.89569710291029  0.14266005560556
 1  4.36941397399740  4.27232270437044  1.34849056595660
 1  1.69945072367237  5.26741591899190  0.49982105730573
 1 -7.43076464476448 -2.74249933343334  0.73279454905491
 1 -6.85318938283828 -4.39726610871087  1.73047888828883
 1 -6.33645934293429 -3.92580999709971 -0.03814172577258
 1 -6.73696821912191 -0.49908081658166  0.70099810091009
 1 -4.68240721282128  1.33281810271027 -0.20886814811481
 1 -6.34416279367937  1.38013708870887 -0.81818613471347
 1 -5.46689600160016  0.22115227742774 -1.83962072687269
 1 -3.58493047854785  6.16411081618162  1.05064194069407
 1 -4.26032747094709  4.26816914881488  0.85632165846585
 1 -0.16326547104710  6.50442100750075  1.93439328092809
 1 -1.44266037633763  7.06199965466547  0.78524787648765
 1  0.28578774677468  6.95999828552855  0.22175313241324
 1 -3.81554946194619  6.31800942664266 -1.38603280578058
 1 -5.44918762596260  5.55675879197920 -0.84421429862986
 1 -4.19206268316832  4.64062423272327 -1.68534804280428
 1  4.08956735723572 -4.80076628912891  1.45936671907191
 1  7.51531955655566 -1.84010339933993  1.99892727572757

