%nproc=4
%Mem=2GB
# td=(NStates=1) B3LYP/SVP 

TD

0 1
 8 -4.12230374117412 -4.81227559875988  1.93529755815582
 8  3.07727175587559 -4.91331263806381  1.07397153445345
 8  7.08550485478548 -1.36808407810781  2.01212389188919
 8  3.89281433893389 -3.23214123912391 -0.12326566596660
 8  7.38443798039804 -0.89407930303030 -0.25478151085109
 8 -3.07102268836884  2.43901195199520 -0.49172073347335
 7 -0.27595459015902 -0.50101429452945 -0.66464347724772
 7  1.57079557225723  1.95249568206821 -0.33593517111711
 7 -3.31827381638164 -3.13246435943594  0.66557287588759
 7 -0.76842533823382  2.94925607500750 -0.12776662246225
 6  0.69469173347335 -2.35302326072607 -1.35700799589959
 6  0.96404930723072 -1.03055028672867 -0.97010585948595
 6 -0.71295542424242 -2.55388375057506 -1.24265632833283
 6 -1.28700912291229 -1.40626093749375 -0.74695382538254
 6  3.80262872367237  1.66630979747975 -0.24213848064806
 6  2.50566267206721  0.93492531803180 -0.52750693569357
 6  2.21242649284929 -0.42063932183218 -0.83373284788479
 6  3.44196483658366  2.91617141934193  0.15194318461846
 6  1.67870927602760 -3.41634333563356 -1.99787713331333
 6 -5.49302820952095 -2.78463407830783  1.31979924422442
 6 -3.54722858215822 -1.83910888678868  0.08902483428343
 6  2.04284859695970  3.02794278847885  0.13158078147815
 6 -5.02075477177718 -1.61986094999500  0.54089813371337
 6  5.10180544244424  0.86107102400240 -0.28945790449045
 6 -2.64357917361736 -0.98172672807281 -0.47273374717472
 6 -1.49272893499350 -3.70494024712471 -1.73332364916492
 6 -4.36568623702370 -3.75439967176718  1.37974309990999
 6  2.13890502420242 -4.55700472417242 -1.07719694649465
 6  5.35651445384539 -0.17745586908691  0.86586913411341
 6  4.43948000930093  3.93228607790779  0.45630783108311
 6  1.27832651105110  4.14145869616962  0.37927964856486
 6 -6.79093374397440 -3.33465824562456  0.92252131423142
 6 -5.87538711931193 -0.67172295629563  0.12883004990499
 6 -0.10399831913191  4.08226647644764  0.26762857475748
 6 -1.16130122872287  5.19594712841284  0.54644310981098
 6 -2.30589006270627  4.63054455585559  0.18660456645665
 6  3.09998658065807 -4.10702337253725 -0.00432274307431
 6 -5.45193890339034  0.50086537513751 -0.73142460726073
 6  6.68615849484948 -0.89364483408341  0.73618451665167
 6 -3.62660020292029  5.19301035953595  0.24878938963896
 6 -2.15907545914591  3.13187814881488 -0.16292206200620
 6 -0.85186577767777  6.47090276027603  0.94975402700270
 6 -4.22624218681868  5.47209316601660 -1.05417450895090
 1 -0.36111769666967  0.38791565736574 -0.30690042974297
 1  3.08371573257326 -1.02730087128713 -0.87439752715272
 1  2.35866574787479 -2.88688028462846 -2.57581412851285
 1  0.97109811601160 -3.93653776467647 -2.89437779787979
 1 -5.38414014131413 -2.40556918161816  2.36931747164716
 1  5.11208372087209  0.29189857125713 -1.20088043534353
 1  5.91978054545455  1.68036756485649 -0.42718629322932
 1 -2.99276549424942  0.11363915421542 -0.75854625212521
 1  0.51758898949895  1.98338818271827 -0.53529097459746
 1 -1.35518025382538 -4.41481605210521 -0.90653016281628
 1 -2.66793690469047 -3.61445203160316 -1.68457659075908
 1 -1.15547072697270 -4.00923799259926 -2.54745033433343
 1 -2.50604299059906 -3.51501123182318  0.33994665986599
 1  1.28171900120012 -4.98638133643364 -0.60568595849585
 1  2.66571267566757 -5.45956006290629 -1.45823120502050
 1  4.56889212221222 -0.87379854325432  0.73601333743374
 1  5.12941728712871  0.31018705740574  1.82594039713971
 1  4.57212773837384  4.84385480188019 -0.19845121692169
 1  5.45812890459046  3.45930346354635  0.39627541714171
 1  4.48935596819682  4.34608008010801  1.49828554545455
 1  1.70384116271627  5.02759193659366  0.76720779597960
 1 -7.70547211551155 -2.73281836533653  0.88074934453445
 1 -7.15270933483348 -4.15686206830683  1.58886472687269
 1 -6.95111080808081 -3.92301971807181 -0.14728263986399
 1 -6.71153567586759 -0.49281018951895  0.44403240434043
 1 -4.90708968106811  1.33017783868387 -0.41998926022602
 1 -6.46764514191419  1.03297237223722 -1.03669798589859
 1 -4.83994330633063  0.01830199239924 -1.63630039483948
 1 -3.56323830933093  6.16908131323132  0.86627350385039
 1 -4.29309074727473  4.60674300620062  0.89417544384438
 1 -0.55438458295830  6.41491205660566  2.03582342394239
 1 -1.65964207450745  7.23435689038904  1.03613296499650
 1  0.07389655765577  7.01359364506451  0.40846180328033
 1 -3.60927883488349  5.96867449314932 -2.00955515801580
 1 -5.19269197639764  6.10864398049805 -1.00709058625863
 1 -4.50451392829283  4.64247441774177 -1.65552506050605
 1  3.65812421292129 -4.58149436193619  1.79130991339134
 1  7.84799282388239 -1.87583697269727  1.96138352135213

