%nproc=4
%Mem=2GB
# td=(NStates=1) B3LYP/SVP 

TD

0 1
 8 -4.16920843164316 -4.82979735093509  1.89680370877088
 8  3.12293632233223 -4.86738804560456  0.99692382968297
 8  6.96897320162016 -1.55375264496450  1.84465714521452
 8  3.86493155065506 -3.10264828982898 -0.11586492589259
 8  7.67842737933793 -0.53063295839584  0.03352732003200
 8 -3.02810839693969  2.38900695149515 -0.38717027842784
 7 -0.21860885558556 -0.46619081218122 -0.63086009890989
 7  1.49240773347335  1.81270170267027 -0.23008458605861
 7 -3.29083107210721 -3.11645275827583  0.60909722832283
 7 -0.85320381608161  2.92452360176018  0.02493864806481
 6  0.63096536083608 -2.35992395079508 -1.40881317641764
 6  0.96268917121712 -1.06020325202520 -0.93496234513451
 6 -0.79087321602160 -2.51412977517752 -1.27735979867987
 6 -1.40452087408741 -1.26302661406141 -0.81564069406941
 6  3.71637009780978  1.35552871937194 -0.21893616041604
 6  2.43219532533253  0.88091991749175 -0.41670585558556
 6  2.19007425762576 -0.41211846974697 -0.86905638023802
 6  3.57138777887789  2.75589539173917  0.10512850315031
 6  1.56334773987399 -3.42058375967597 -2.05122246784678
 6 -5.48060696739674 -2.94504011891189  1.27490475477548
 6 -3.67554141344134 -1.76785176107611  0.16762269406941
 6  2.04196850895089  3.02813280748075  0.11682930633063
 6 -5.05608830513051 -1.57376634053405  0.63444748864886
 6  5.02221748364837  0.76976189308931 -0.32476143484348
 6 -2.73853866956696 -0.95268382378238 -0.44234070787079
 6 -1.42609227132713 -3.81769152225223 -1.84310462726273
 6 -4.28799846824683 -3.76137036883688  1.35855098069807
 6  2.10116124982498 -4.45535455915592 -1.02704193099310
 6  5.43455225762576 -0.17592571607161  0.84926747394739
 6  4.57590365166517  3.81136398569857  0.44302650295029
 6  1.26278495689569  4.13303785408541  0.33971569216922
 6 -6.81014566516652 -3.61368614841484  0.78584764686469
 6 -5.84572415301530 -0.51543732773277  0.29216638353835
 6 -0.10450837013701  4.06538478827883  0.24022583448345
 6 -1.06663176177618  5.11841937563756  0.49509797529753
 6 -2.33271274497450  4.61480298169817  0.23882978897890
 6  3.10428701070107 -4.03467613781378 -0.03473578437844
 6 -5.56894060356036  0.61781707030703 -0.46268773357336
 6  6.81606148514852 -0.73919938953895  0.85923682188219
 6 -3.67958550145014  5.28327938643864  0.17738224892489
 6 -2.14268381998200  3.21114607560756 -0.09745551535153
 6 -0.66380697179718  6.52681835183518  0.61066011761176
 6 -4.29758932153215  5.60232618931893 -1.23196228772877
 1 -0.65592717761776  0.20990785658566 -0.05497523722372
 1  3.11354871587159 -1.04792293349335 -1.10059014641464
 1  2.47992787408741 -2.86692828942894 -2.20249679677968
 1  1.09621062726273 -3.93782789368937 -2.94335269536954
 1 -5.74225595289529 -2.75158378307831  2.37365790569057
 1  5.01732424492449  0.16786616801680 -1.33201354865487
 1  5.69350791819182  1.49001852995299 -0.34272784738474
 1 -2.89059527722772  0.06989477977798 -0.55015541304130
 1  0.53091032163216  1.78190803470347 -0.38978642414241
 1 -1.59203393919392 -4.71907647814782 -1.11156066586659
 1 -2.49652976397640 -3.60530111651165 -2.18410654375438
 1 -0.81476665656566 -3.92484955375538 -2.76510209950995
 1 -2.28687107340734 -3.48957868856886  0.58690135533553
 1  1.34717554685469 -4.90069276757676 -0.45783117301730
 1  2.68799490389039 -5.42564667156716 -1.58246362826283
 1  4.55122035503550 -0.76064722812281  0.94578431453145
 1  5.40304464986499  0.35193123182318  1.75634343744374
 1  4.68310883648365  4.67720813721372 -0.17274864666467
 1  5.80429352105211  3.38574610781078  0.45663145274528
 1  4.46979401200120  4.14028950105011  1.50959667656766
 1  1.66924770337034  5.08986816421642  0.56003707890789
 1 -7.54224579287929 -2.91722680618062  0.68733000260026
 1 -6.85748981288129 -4.45570195229523  1.42639848024802
 1 -6.58333403040304 -3.81567898399840 -0.34398230983098
 1 -6.91121564386439 -0.65665657415742  0.79700770187019
 1 -5.17239621172117  1.42991781268127  0.29130186888689
 1 -6.59784816221622  1.11102017701770 -1.08737305340534
 1 -4.71445075707571  0.52222238443844 -1.16426319111911
 1 -3.79484146964696  6.04110851595160  1.07046392289229
 1 -4.42803424162416  4.62667499939994  0.69963598989899
 1  0.13982483798380  6.79951051645164  1.40762060366037
 1 -1.56950306060606  7.37199065376538  0.75535488718872
 1 -0.31477230923092  6.99994227992799 -0.45039408230823
 1 -3.71981988898890  6.42820044574457 -1.63611781428143
 1 -5.42704541174117  6.06916003210321 -1.28905878307831
 1 -4.43573705060506  4.65354552485249 -1.79345885388539
 1  3.99564796529653 -4.63688990149015  1.55491627402740
 1  8.12546057065707 -1.69456884588459  2.18888627162716

