%nproc=4
%Mem=2GB
# td=(NStates=1) B3LYP/SVP 

TD

0 1
 8 -4.05736724752475 -4.74566893809381  1.92787681608161
 8  2.93147717641764 -4.74783609040904  1.07397153445345
 8  6.91388769306931 -1.57700497019702  1.95692837233723
 8  3.91941699919992 -3.11219924492449 -0.31130446984698
 8  7.54883442004200 -0.51188108320832  0.03823779107911
 8 -3.08287387348735  2.38005605640564 -0.58491005240524
 7 -0.29779677437744 -0.47169136223622 -0.73561057395740
 7  1.57213570627063  1.77725815831583 -0.24933651125112
 7 -3.25647763676368 -2.97259837283728  0.73532985158516
 7 -0.83397189288929  2.86982813221322 -0.31119496529653
 6  0.64867713201320 -2.46994495289529 -1.45137743284328
 6  0.92646554885489 -1.10468770047005 -1.00236908580858
 6 -0.77519164786479 -2.52394075627563 -1.33659572227223
 6 -1.32193261526153 -1.35838615001500 -0.80397952795280
 6  3.78194665546555  1.44615778227823 -0.21514578137814
 6  2.48084018981898  0.84499632513251 -0.69224340934093
 6  2.22934818501850 -0.54310156805681 -0.96367584218422
 6  3.49471011111111  2.77828763096310  0.24725271557156
 6  1.62191359645965 -3.41306300760076 -2.12785013061306
 6 -5.33295220192019 -2.72996861176118  1.50573783808381
 6 -3.49235309460946 -1.79414439033903  0.20700663246325
 6  2.07996230833083  2.94430442464246  0.16621424482448
 6 -4.98514121042104 -1.58419738363836  0.47667171107111
 6  4.99773503540354  0.78566348324832 -0.27852681138114
 6 -2.59160397609761 -0.92498105350535 -0.41928840264026
 6 -1.59734939703970 -3.74782453555356 -1.70586090289029
 6 -4.17750741914191 -3.62597682948295  1.45413053865387
 6  2.04527566126613 -4.47530655435544 -1.13532275907591
 6  5.38027683008301 -0.09778790229023  0.86749929712971
 6  4.46695275657566  3.83443629292929  0.62978517881788
 6  1.20807948634863  4.09484403470347  0.39744146474647
 6 -6.65600025062506 -3.47933271307131  1.20953001510151
 6 -5.79836941754175 -0.63613939793979  0.03427059395940
 6 -0.15878379767977  3.96927517731773  0.13186499839984
 6 -1.10050514911491  5.02931046474647  0.56851531703170
 6 -2.31322079577958  4.49811131253125  0.18261416741674
 6  3.01398798079808 -3.97423009320932 -0.07097940874087
 6 -5.47017072657266  0.48963425202520 -0.91871333613361
 6  6.73838371737174 -0.73346881648165  0.89643054125413
 6 -3.64841238413841  5.26350740924092  0.18615312601260
 6 -2.20067961956196  3.21521648264827 -0.24631040084008
 6 -0.78289888098810  6.42845851585159  1.12435148674868
 6 -4.24336389898990  5.62845880258026 -1.11250034153415
 1 -0.18624020892089  0.40809767556756 -0.12273201290129
 1  3.12612997399740 -1.10511865306531 -1.19392948034803
 1  2.31783166446645 -2.99384098069807 -2.64163071017102
 1  1.05624663086309 -3.82192630353035 -3.15724408450845
 1 -5.41893362066207 -2.39487811251125  2.39942048194819
 1  5.06184869736974  0.18016739813981 -1.11783213051305
 1  5.82230079747975  1.61335086318632 -0.64910848544855
 1 -2.82365858355836  0.11892968326833 -0.50589098659866
 1  0.42629986058606  1.80612045594560 -0.45010245574557
 1 -1.26251098689869 -4.54158872937294 -0.93407291709171
 1 -2.87859797079708 -3.62436302270227 -1.50517865096510
 1 -1.59769494939494 -4.10009707850785 -2.75677126642664
 1 -2.30471285758576 -3.42275200590059  0.79344200940094
 1  1.07298812811281 -4.93276597489749 -0.72608799869987
 1  2.78123422782278 -5.25726983388339 -1.46479186108611
 1  4.53045827882788 -0.83748491189119  1.06166590269027
 1  5.38938328372837  0.35197123582358  1.89559736283628
 1  3.95197572317232  4.76413683008301  0.46732536073607
 1  5.67869096079608  3.67775530873087  0.30486627622762
 1  4.25703273587359  4.02298777087709  1.75789150605060
 1  1.60254103270327  4.91753093049305  0.95237631283128
 1 -7.47317888618862 -2.76363144664467  1.24230550015002
 1 -6.74710877477748 -4.25602198429843  1.85681152155215
 1 -6.70769646664666 -3.99338675477548  0.26362845124512
 1 -6.86873139543954 -0.63166407490749  0.26467446854685
 1 -4.59009798189819  1.42276709760976 -0.72599986128613
 1 -6.50451882928293  1.09414848984898 -1.19644396049605
 1 -4.79775908790879  0.01527168936894 -1.77403416821682
 1 -3.62957494299430  6.40693509860986  0.51125800230023
 1 -4.46330776897690  4.83968630053005  0.93714974127413
 1 -0.06535568006801  6.22496306170617  2.09835967756776
 1 -1.59688579887989  7.04270772547255  1.25082443414341
 1 -0.10233106510651  6.99254153985399  0.42537349444944
 1 -3.48917682468247  6.25913353905391 -1.69635383788379
 1 -5.17477018421842  6.27250036613661 -1.04232410961096
 1 -4.41805528242824  4.70689085938594 -1.72134164216422
 1  3.70101850235023 -4.64841105360536  1.65057583998400
 1  7.73714173877388 -1.99106849584959  1.87334471747175

