%nproc=4
%Mem=2GB
# td=(NStates=1) B3LYP/SVP 

TD

0 1
 8 -4.40817232803280 -4.86066043724372  2.01242527092709
 8  3.09203323202320 -4.65636694349435  1.13901803910391
 8  6.81043734803480 -1.77312458215822  1.71713439293929
 8  4.03180823832383 -3.15459348434843 -0.25993933333333
 8  7.47271680828083 -0.69851974707471 -0.21909794249425
 8 -3.16247183328333  2.44108215901590 -0.80246180758076
 7 -0.23599059375938 -0.47379157225723 -0.50851786468647
 7  1.57786627932793  1.85802623512351 -0.20869244684468
 7 -3.20378236723672 -3.12122323532353  0.71629794839484
 7 -0.88188668436844  2.79869101850185 -0.07899174497450
 6  0.65048731303130 -2.33323128152815 -1.36836913201320
 6  1.00264316661666 -1.02078931063106 -0.87807665656566
 6 -0.71249537823782 -2.57986634883488 -1.22925498819882
 6 -1.29555997799780 -1.36823713511351 -0.65264439443944
 6  3.73961242204220  1.63023619011901 -0.16057032383238
 6  2.46574868066807  0.97173899939994 -0.37547173217322
 6  2.28505375557556 -0.34497175507551 -0.78161763636364
 6  3.60508114821482  2.96192599479948  0.16907489778978
 6  1.72716412151215 -3.30529223052305 -2.00409775537554
 6 -5.49361826852685 -2.81711732663266  1.33817108140814
 6 -3.48574243354335 -1.82506748264826  0.20386631843184
 6  2.16323063516352  3.06485647984798 -0.00700307690769
 6 -5.05324802110211 -1.70346931083108  0.45596964086409
 6  5.09917517941794  0.90051496839684 -0.33459241794179
 6 -2.64488930463046 -1.02092064746475 -0.32696917071707
 6 -1.42501216331633 -3.79258901200120 -1.60442075887589
 6 -4.36608627702770 -3.72066629842984  1.46236136173617
 6  2.11707284098410 -4.49286831053105 -1.06366559335934
 6  5.36055485788579 -0.26971509500950  0.76709925712571
 6  4.52281834313431  3.92496534583458  0.58306050635063
 6  1.23587226562656  4.08036258655866  0.31484320492049
 6 -6.79668431903190 -3.44302908270827  0.86537559965997
 6 -5.88276785738574 -0.65028081208121  0.07261442834283
 6 -0.15441336063606  3.96778502830283  0.36863867576758
 6 -1.15601069966997  5.11560909460946  0.57793625912591
 6 -2.40105957965797  4.68585008640864  0.17345325132513
 6  3.22194877687769 -4.00315298549855 -0.03250556135614
 6 -5.44044775427543  0.54724001260126 -0.71584304910491
 6  6.69299917891789 -0.95249071867187  0.66277717591759
 6 -3.66422396529653  5.32660371887189  0.15015952665267
 6 -2.16718627022702  3.17297225822582 -0.25026079587959
 6 -0.70720131123112  6.43702937293729  1.06920597219722
 6 -4.22588215081508  5.58077403410341 -1.21781087258726
 1 -0.60110169506951  0.42772963876388 -0.11567130683068
 1  3.12949031003100 -1.05473361456146 -0.89095918331833
 1  2.53550343164316 -2.80934253085309 -2.50553710081008
 1  1.18063907010701 -3.92846695759576 -2.73420178027803
 1 -5.46886861416142 -2.29214783948395  2.39560009990999
 1  5.05620813331333  0.41020040144014 -1.33762410971097
 1  6.02824139153915  1.51300082818282 -0.26005958055806
 1 -2.87041325902590  0.03411120142014 -0.39848024552455
 1  0.39738696929693  1.84105394929493 -0.50862830833083
 1 -1.23409814561456 -4.77489205970597 -0.96503601340134
 1 -2.51730184118412 -3.62010259665967 -1.65671380448045
 1 -1.31591677157716 -4.18737580638064 -2.65132072137214
 1 -2.37531991829183 -3.32206193689369  0.54226689188919
 1  1.27259808910891 -4.92112481078108 -0.56556194609461
 1  2.57289339373937 -5.14774888178818 -1.66975235713571
 1  4.52469770277028 -1.03963512691269  0.53326306240624
 1  5.05702004740474  0.26952299099910  1.81911971507151
 1  4.17365789138914  4.69631004740474  0.08040666886689
 1  5.46649974167417  3.59625715891589  0.59098488808881
 1  4.36520355295530  4.26614208630863  1.67511322822282
 1  1.68762954155415  4.96625580298030  0.43372444764477
 1 -7.58919048734873 -2.66105118861886  0.89852112171217
 1 -6.98289235313531 -4.37573395549555  1.37467330773077
 1 -6.61495719271927 -3.76776419251925 -0.33689160076008
 1 -6.99752427472747 -0.78071898039804  0.28654665576558
 1 -4.49986895899590  1.12284710561056 -0.22436969826983
 1 -6.20411878927893  1.27937701270127 -1.14312862896290
 1 -4.82084139613961  0.27565772797280 -1.66194295909591
 1 -3.85041702720272  6.26138054315432  0.84122099859986
 1 -4.40341177937794  4.56607893979398  0.71068709500950
 1  0.10460131563156  6.34117468286829  1.95983582518252
 1 -1.51360747104710  7.03736719141914  1.34106345804580
 1 -0.02773360536054  6.99195148084809  0.40464142124212
 1 -3.72640054705471  6.25755338103810 -1.98289249174917
 1 -5.32393510071007  5.86585970207021 -1.32985286248625
 1 -4.24168764566457  4.58278844914491 -1.76493600160016
 1  3.80598899939994 -4.28822503500350  1.58905968836884
 1  7.75489351395139 -2.05529491849185  1.77684506750675

