%nproc=4
%Mem=2GB
# td=(NStates=1) B3LYP/SVP 

TD

0 1
 8 -4.11617312811281 -4.96038040924092  1.94594862326233
 8  3.05914994369437 -4.78689999679968  0.99913405070507
 8  6.69526583088309 -1.66106337603760  1.97280996049605
 8  3.80314537203720 -3.11246927192719 -0.20704404380438
 8  7.50599013561356 -0.57581747684768  0.18197216451645
 8 -3.07948353445345  2.54003205400540 -0.44105566696670
 7 -0.29619661436144 -0.49404359745975 -0.68320533343334
 7  1.51166965966597  1.78309874237424 -0.36100767836784
 7 -3.17656964596460 -3.20100121312131  0.70410672927293
 7 -0.80917941364136  2.93603475287529 -0.20106395219522
 6  0.65814807910791 -2.39566752515252 -1.47456975207521
 6  0.95374827712771 -1.07043427512751 -1.12355120402040
 6 -0.70991512021202 -2.60778914111411 -1.32838490119012
 6 -1.34437485948595 -1.40442075347535 -0.81181031103110
 6  3.75110357115712  1.52842600910091 -0.29686395319532
 6  2.51723382918292  0.85555738123812 -0.52987717271727
 6  2.21880713091309 -0.40306756465647 -1.01463093769377
 6  3.51392203230323  2.77203700590059  0.04114210451045
 6  1.66392779787979 -3.31308300960096 -2.09799714531453
 6 -5.40454936163616 -2.91152676757676  1.36412367666767
 6 -3.56786064536454 -1.88484346024602  0.21709764156416
 6  2.08317262936294  3.00667066126613  0.01747937133713
 6 -4.91216391269127 -1.72897186108611  0.58216226012601
 6  5.10439570147015  0.83617853475348 -0.22150110881088
 6 -2.58984380008001 -0.97747630303030 -0.33751022482248
 6 -1.47972763486349 -3.80859061216122 -1.82859317611761
 6 -4.26038570697070 -3.82015624742474  1.42574770037004
 6  2.06286742044204 -4.52805182888289 -1.23233246004600
 6  5.29684848724873 -0.08218634213421  1.04383693089309
 6  4.42608867016702  3.80613346264626  0.49452165246525
 6  1.33297197559756  4.14155870617062  0.18757047764776
 6 -6.80819547014701 -3.62581736153615  1.01444050615062
 6 -5.69173875447545 -0.54242002600260  0.38259542644264
 6 -0.13729164846485  4.05163341314131  0.21563337523752
 6 -1.04390948954896  5.17958549224922  0.44403286878688
 6 -2.36695616931693  4.74538604000400  0.23026893289329
 6  2.94827140914091 -3.96841951215122 -0.11439375017502
 6 -5.52812652215222  0.62152744134413 -0.66100756555656
 6  6.60538041704170 -0.77519298889889  0.93553445164516
 6 -3.69695723862386  5.37028808730873  0.19146365706571
 6 -2.13707325892589  3.27708266926693 -0.15631140094009
 6 -0.59524011511151  6.61750742074207  0.93273232483248
 6 -4.20443000560056  5.61544750145015 -1.13569266076608
 1 -0.47586917181718  0.49802666846685 -0.32210194989499
 1  3.08834619561956 -1.16468460966097 -1.01975206260626
 1  2.55257513881388 -2.73063466006601 -2.28447499459946
 1  1.15810681688169 -3.92362647354735 -3.01390975107511
 1 -5.24604633193319 -2.62553117781778  2.43147368726873
 1  5.11953446594659  0.23491287268727 -1.14693504080408
 1  5.89636820422042  1.53044257235724 -0.08452202680268
 1 -2.90416663436344  0.04770256055606 -0.34406480398040
 1  0.52431966256626  1.90703054695470 -0.45531297679768
 1 -1.39325406120612 -4.48604317481748 -0.88416792659266
 1 -2.48772888388839 -3.47332791919192 -1.82742087518752
 1 -1.02179735963596 -4.39249631843184 -2.80756634593459
 1 -2.17371975827583 -3.27894762546255  1.03882654785479
 1  1.24939576887689 -5.14209690799080 -0.77796318621862
 1  2.73636974137414 -5.24417852475248 -1.74667004890489
 1  4.60787602060206 -0.96600776417642  1.12671240734073
 1  5.25186953235324  0.52220825952595  2.02945074817482
 1  4.77963848944894  4.54163457985799 -0.38339971177118
 1  5.40505359705971  3.39989752295229  0.78639442904290
 1  4.03619065166517  4.30588606070607  1.57137285418542
 1  1.66485726432643  4.99986916431643  0.58578965416542
 1 -7.67090865916592 -3.00504558805881  1.15998726832683
 1 -6.98708277217722 -4.47177355945594  1.80687652805281
 1 -6.67185288228823 -4.10934835093509  0.04138622702270
 1 -6.65284980728073 -0.54982589108911  0.72680068116812
 1 -4.84511348344834  1.44626944784478 -0.08486574787479
 1 -6.49307768516852  0.91104017901790 -1.05509982608261
 1 -4.76714602660266  0.22769293149315 -1.41309807460746
 1 -3.82003398889889  6.36873127822782  0.90884776127613
 1 -4.25422686088609  4.61949428132813  0.49365539183918
 1 -0.16213535803580  6.27280784618462  1.97563740534053
 1 -1.35610172047205  7.29095254995500  1.01874122582258
 1  0.20544971297130  7.28339062476248  0.19663062016202
 1 -3.42563047004700  6.08896652235224 -1.88390259275928
 1 -5.12078478567857  6.07773088918892 -1.31101097829783
 1 -4.56079955685569  4.62633280358036 -1.52861236923692
 1  3.66857525802580 -4.37604381688169  1.52289307170717
 1  7.46773479807981 -2.19389877887789  1.72205958895890

