%nproc=4
%Mem=2GB
# td=(NStates=1) B3LYP/SVP 

TD

0 1
 8 -4.23110462126213 -4.86952132333233  1.92538656705671
 8  3.15838986768677 -5.07081838863886  0.98844298159816
 8  7.00183648794880 -1.43777104680468  2.00116279577958
 8  3.70043510101010 -3.09263728872887 -0.10755409480948
 8  7.51083061966197 -0.55736563166317  0.04047801510151
 8 -3.04180976707671  2.45150320112011 -0.43034459585959
 7 -0.26019301400140 -0.50583477657766 -0.69352636553655
 7  1.54305279797980  1.82717314981498 -0.42798437603760
 7 -3.31942393139314 -3.24038515151515  0.58590490909091
 7 -0.85517401310131  2.88363951335133 -0.01248509430943
 6  0.70912317661766 -2.43045100350035 -1.38231052615262
 6  0.96343924622462 -1.04711194289429 -0.98002685158516
 6 -0.72727685638564 -2.64231259345935 -1.34659672237224
 6 -1.27479790179018 -1.44925523692369 -0.79056818681868
 6  3.80790925172517  1.48011117761776 -0.27129139593959
 6  2.48118022382238  0.79317114261426 -0.55889007400740
 6  2.25996124632463 -0.47677493539354 -0.84694416901690
 6  3.52738337843784  2.89715951815182  0.01367935823582
 6  1.66543794889489 -3.42641434273427 -2.00862820842084
 6 -5.43410231693169 -2.74728034293429  1.37479474377438
 6 -3.51341520082008 -1.89370434633463  0.14205013681368
 6  2.02289660176018  3.02124211841184 -0.00024240084008
 6 -4.96738943524352 -1.54913387728773  0.41161520542054
 6  5.13979924182418  0.83596851375138 -0.36035499419942
 6 -2.55924073977398 -0.99413796919692 -0.43274974877488
 6 -1.45098476057606 -3.77527728082808 -1.80245056185619
 6 -4.33185285368537 -3.77958219001900  1.42936806240624
 6  2.05536667036704 -4.48874789848985 -1.10437966476648
 6  5.35718452085209 -0.06834495799580  0.95180772797280
 6  4.48429449074908  3.93007585688569  0.46722892319232
 6  1.27857653605360  4.08873342364236  0.29358107870787
 6 -6.85756040664066 -3.39942472227223  1.25408447054705
 6 -5.83123270387039 -0.59129491349135 -0.00223305640564
 6 -0.16166408570857  3.94807305710571  0.23854566646665
 6 -1.15863096169617  5.16012354605461  0.48245671117112
 6 -2.37042651635163  4.60921242264226  0.26459236523652
 6  3.05996257825783 -4.08886155635563 -0.08919122992299
 6 -5.41355506500650  0.64278956755676 -0.75679714451445
 6  6.74810468946895 -0.76688215781578  0.91404230243024
 6 -3.71063860676068  5.30213127162716  0.38481299199920
 6 -2.21532108370837  3.21212617361736 -0.11526729652965
 6 -0.76983757485749  6.51305697569757  0.83106215781578
 6 -4.17185674827483  5.76099205590559 -1.02484157565757
 1 -0.35576716161616  0.43490035583558 -0.15229496919692
 1  3.22865022602260 -1.11159930113011 -1.00752083948395
 1  2.58022790409041 -2.91220281688169 -2.43190973807381
 1  1.17010801700170 -3.92703681458146 -2.87423578367837
 1 -5.44031575887589 -2.25991461616162  2.43444398429843
 1  5.04293680618062  0.30823020442044 -1.14225457275728
 1  6.04871343874387  1.44644417251725 -0.35367894249425
 1 -2.97144336203620  0.12701049134913 -0.70487088458846
 1  0.57301453205321  1.68545838973897 -0.59225667116712
 1 -1.23485822162216 -4.78132270277028 -1.24772428222822
 1 -2.62423253425343 -3.66274686108611 -1.92754088718872
 1 -1.26097127702770 -3.99346641544154 -2.73901949124912
 1 -2.42295468176818 -3.70312004270427  0.49514217941794
 1  1.30045087438744 -4.78762146044604 -0.52950834073407
 1  2.25439154355436 -5.31671577847785 -1.71891727362736
 1  4.76892212521252 -0.77663882728273  0.66881661776178
 1  5.16280062546255  0.46662270097010  1.81763956705670
 1  4.77264779037904  4.75656607300730 -0.31814318611861
 1  5.47911100280028  3.50196772997300  0.81510730033003
 1  4.12221925452545  4.21799727182718  1.48104382128213
 1  1.62883366196620  5.12958213561356  0.31820289548955
 1 -7.72233380168017 -2.76753183668367  1.41742301190119
 1 -7.12996706060606 -4.25779216131613  1.81722756315632
 1 -6.98407410441044 -3.63867128322832  0.09257134553455
 1 -6.83564808710871 -0.64961587008701  0.62430043114311
 1 -5.16937590969097  1.46479130003000 -0.15300256155616
 1 -6.29711808920892  0.91868094309431 -1.38355267136714
 1 -4.73043235523552  0.33101326352635 -1.56143290809081
 1 -3.57121910741074  6.38349275437544  0.97162403890389
 1 -4.54510594879488  4.62012434433443  0.80445647194719
 1 -0.05353449794979  6.47954852025202  1.70192003360336
 1 -1.68934504480448  7.00364381908191  1.18240759245925
 1 -0.24271510351035  7.23669595529553  0.03250420752075
 1 -3.71319922692269  6.72219984568457 -1.42626682918292
 1 -5.21931463866387  6.05073818991899 -0.89575945314531
 1 -4.16442991989199  4.88240841114111 -1.77755726372637
 1  3.78121652215222 -4.70393660616062  1.59812059445945
 1  7.94621264586459 -1.82313170217022  1.99985736873687

