%nproc=4
%Mem=2GB
# td=(NStates=1) B3LYP/SVP 

TD

0 1
 8 -4.32283379417942 -4.82147651885189  1.93968799719972
 8  2.95128915761576 -4.68964027082708  1.21531566886689
 8  6.90320662496250 -1.55319258895890  1.89887256675668
 8  3.80533559105911 -3.07054507950795 -0.17318065746575
 8  7.58849838643864 -0.51684157925793 -0.06203223592359
 8 -3.01626721282128  2.41508955975598 -0.39782134353435
 7 -0.29203619831983 -0.46579077217722 -0.60348736163616
 7  1.58765725842584  1.88170860336034 -0.29746132373237
 7 -3.30653264226423 -3.18961007400740  0.70572689128913
 7 -0.74240273597360  2.76091724112411 -0.05993983978398
 6  0.70676294059406 -2.33745170357036 -1.39941223632363
 6  0.95210811311131 -0.98752598429843 -1.04493334223422
 6 -0.69569369806981 -2.64037239943994 -1.20880294299430
 6 -1.35433585558556 -1.39830014141414 -0.77387651765177
 6  3.81035949674967  1.57181034753475 -0.37465173197320
 6  2.57804991079108  0.89490131563156 -0.69273345834583
 6  2.19577482768277 -0.37560481838184 -0.98906838143814
 6  3.51895253535354  2.79859966216622  0.10979897019702
 6  1.62834423952395 -3.38135983728373 -2.06301364696470
 6 -5.55079398609861 -2.78786440134013  1.31123838813881
 6 -3.61671553085309 -1.85033000890089  0.19017494929493
 6  2.06591090319032  3.01313130733073  0.08332595599560
 6 -5.03543623992399 -1.65032399629963  0.43762780668067
 6  5.09413467536754  0.83414833173317 -0.51048000670067
 6 -2.66092090779078 -1.06793534893489 -0.33568004180418
 6 -1.44736439853985 -3.82573232633263 -1.70841115791579
 6 -4.34652432083208 -3.78326255805581  1.38397352295230
 6  2.06230736443644 -4.43813283698370 -1.03451267806781
 6  5.37677648004800 -0.15872399589959  0.82756530373037
 6  4.49297535883588  3.98172102140214  0.62339453975398
 6  1.26952563096310  4.07300185048505  0.40036175677568
 6 -6.82973762436244 -3.48259303910391  0.92702176427643
 6 -5.77117669826983 -0.63744952895290  0.04292145904590
 6 -0.11386930623062  3.99060731053105  0.32859467136714
 6 -1.10265536413641  5.10038757245725  0.53083154865487
 6 -2.28421789548955  4.58146964836484  0.30014592059206
 6  2.96090267226723 -3.99719238943894 -0.00662297309731
 6 -5.40480418991899  0.59265455405541 -0.77869933473347
 6  6.74128400740074 -0.76341181078108  0.80262116031603
 6 -3.63865140804080  5.22877393589359  0.27332184288429
 6 -2.09209876147615  3.11188614961496 -0.06230200000000
 6 -0.63499409050905  6.52619828982898  0.81957100870087
 6 -4.20912047464746  5.49981593829383 -1.14416350785079
 1 -0.50769235413541  0.49676654245425 -0.37479721942194
 1  3.07220458145815 -1.01414955615562 -1.10276036343634
 1  2.56522640394039 -2.88943053965397 -2.59060560766077
 1  1.23703470967097 -3.80806491739174 -3.04156251635164
 1 -5.59482120942094 -2.43894251895190  2.38238877877788
 1  5.00595310781078 -0.00386100470047 -1.27499784708471
 1  5.83823239063906  1.65271479957996 -0.82593616821682
 1 -3.17622384008401 -0.08634084378438 -0.40317071457146
 1  0.53291052165217  2.02883272717272 -0.45547299279928
 1 -1.47947268306831 -4.64826939743974 -1.25427493729373
 1 -2.54057416841684 -3.44532511891189 -1.90945907900790
 1 -0.98788396829683 -4.12323939273927 -2.69065465476548
 1 -2.45987837413741 -3.56233596429643  0.70328299349935
 1  1.20293112241224 -5.07145984428443 -0.37147253715372
 1  2.56004210861086 -5.38813292019202 -1.47482286418642
 1  4.73541877487749 -1.11011217461746  0.73335307140714
 1  5.24550889628963  0.45048108680868  1.85125292839284
 1  4.29165969156916  4.97633805020502  0.10586921512151
 1  5.55514860656066  3.56060359355936  0.47116290589059
 1  4.50274730733073  4.25195066716672  1.84921063796380
 1  1.87913869246925  5.05627480488049  0.86016709190919
 1 -7.62674424272427 -2.70099518301830  0.64751602120212
 1 -6.91616568046805 -4.26107248934893  1.56151199159916
 1 -6.81132682968297 -3.92363978007801 -0.07146505810581
 1 -6.80919544184418 -0.74431534003400  0.30306830793079
 1 -4.77860683278328  1.41318613951395 -0.03906116741674
 1 -6.35829420682068  0.86220529552955 -1.24993931003100
 1 -4.90963027502750  0.39781994419442 -1.52401916671667
 1 -3.53162514801480  6.01686609170917  1.03307018351835
 1 -4.34489592779278  4.44945727762776  0.59603562986299
 1 -0.03582272677268  6.45931649704970  1.85315515711571
 1 -1.54261037133713  7.05024847954795  0.89894924662466
 1 -0.09767059905991  6.92681496719672 -0.25878492139214
 1 -3.78815672267227  6.37829545524552 -1.71740594309431
 1 -5.35641834903490  5.69648276437644 -0.77644752195220
 1 -4.03416689358936  4.41078124842484 -1.53734324232423
 1  3.54268266876688 -4.15612182468247  1.85989677207721
 1  7.68040606520652 -2.01642103110311  1.98568595159516

