%nproc=4
%Mem=2GB
# td=(NStates=1) B3LYP/SVP 

TD

0 1
 8 -4.31239275007501 -4.72400677187719  2.09360338873887
 8  2.74990901960196 -4.81311261806181  1.07503164046405
 8  7.16502280658066 -1.29632690239024  1.96565924542454
 8  3.76244130163016 -3.19439746474647 -0.05845918531853
 8  7.64042357895790 -0.44971486658666  0.10808477577758
 8 -3.07477306340634  2.44342239303930 -0.44345590699070
 7 -0.24444143884388 -0.51752594569457 -0.62930994389439
 7  1.50226871957196  1.87599803230323 -0.46890846844684
 7 -3.21826381538154 -3.08659977297730  0.75244156275628
 7 -0.85687418311831  2.78776992639264 -0.15154900070007
 6  0.69283154745475 -2.44006196459646 -1.46382867796780
 6  0.95924882718272 -1.02561979367937 -1.11871071997200
 6 -0.66098022672267 -2.59103746594659 -1.36288835153515
 6 -1.25557597959796 -1.39625993739374 -0.74730386038604
 6  3.84075253605361  1.41274444094409 -0.34455872267227
 6  2.47421952775277  0.88602042754275 -0.71067525252525
 6  2.24768001820182 -0.45746300420042 -1.11294076867687
 6  3.50253089318932  2.76021582378238 -0.01862387208721
 6  1.73174457955796 -3.37908961026103 -2.06940428602860
 6 -5.50832973967397 -2.80350596549655  1.27424468876888
 6 -3.60858471777178 -1.81348632453245  0.13511944374437
 6  2.13981829392939  3.01833182738274 -0.04171654825483
 6 -5.06922961926193 -1.69422838673867  0.46692073597360
 6  5.10126538843884  0.70815573247325 -0.44007296599660
 6 -2.57066188188819 -1.01881043644364 -0.32048852265227
 6 -1.46440610271027 -3.77869762286229 -1.78469878667867
 6 -4.29706937533753 -3.68992322412241  1.43753887948795
 6  2.07727886158616 -4.52760178387839 -1.21032025882588
 6  5.39998880128013 -0.03715183868387  0.95049759695970
 6  4.44169023032303  3.76325917521752  0.61514371467147
 6  1.24032271067107  4.10186473677368  0.49418113871387
 6 -6.80856550715071 -3.49362414221422  1.01249031113111
 6 -5.81536111671167 -0.61417720172017 -0.02164499759976
 6 -0.10272819211921  3.95486373617362  0.27094890679068
 6 -1.08026312491249  5.01331886558656  0.56868533403340
 6 -2.32406187988799  4.56518802020202  0.28829473547355
 6  2.93513009500950 -4.04769743994399 -0.03677598839884
 6 -5.64267797729773  0.57329261786179 -0.74154561936194
 6  6.83200307930793 -0.60031550115012  1.00618151635164
 6 -3.62920046294630  5.29565062356236  0.38980349104910
 6 -2.09370892249225  3.10136509750975 -0.16681245104510
 6 -0.73762435353535  6.47086275627563  0.86452550415042
 6 -4.19586914951495  5.59013497019702 -0.98446753825383
 1 -0.24400598549855  0.31760862666267 -0.14775451515152
 1  2.97218457945795 -1.17203534473447 -1.34964505190519
 1  2.53880376167617 -2.64241583818382 -2.47997454455446
 1  0.90234124032403 -3.65476958785879 -3.03888224832483
 1 -5.52573430073007 -2.17483610831083  2.29768030793079
 1  5.21754426692669 -0.21036165476548 -1.25359570687069
 1  5.74456302370237  1.48016754485449 -0.64486806140614
 1 -2.79290550825083 -0.06694890459046 -0.49230962846285
 1  0.45794302490249  1.88078792269227 -0.52881032653265
 1 -1.29904464026403 -4.44201877237724 -0.99829933973397
 1 -2.55041515251525 -3.55471605800580 -1.85148328142814
 1 -0.92767794769477 -4.09311638043804 -2.73593918321832
 1 -2.12894528082808 -3.31775150585058  0.80041270647065
 1  1.18826965626563 -5.25397809610961 -0.63329871977198
 1  2.59646575097510 -5.44011811871187 -1.92300768266827
 1  4.88961419441944 -1.12639380278028  0.84935467156716
 1  5.29250359575958  0.40930696939694  1.78410621372137
 1  4.10704122972297  4.79743015941594  0.30299892809281
 1  5.43877696939694  3.52938047124712  0.39768555815582
 1  4.34743177577758  3.69026449854985  1.72742845974597
 1  1.62513329192919  5.26218539593959  0.80172124732473
 1 -7.60127169546955 -2.65967105060506  1.10002127172717
 1 -7.13887795169517 -4.26404278637864  1.70312615301530
 1 -6.72240793779378 -3.83720113621362 -0.06238415001500
 1 -6.99820434273427 -0.71607251575157  0.36233423452345
 1 -5.09954892699270  1.34132895379538 -0.19806706800680
 1 -6.45490386778678  1.00899997499750 -1.22099641574157
 1 -4.90934024602460  0.55706586878688 -1.59460622542254
 1 -3.43791577707771  6.15506991209121  1.20497737423742
 1 -4.41637307550755  4.61087341924192  0.86350237653765
 1 -0.24531367586759  6.58320888628863  1.68056789838984
 1 -1.70167627792779  7.09579303400340  1.03036238793879
 1  0.00404957295730  6.93916620232023  0.15546650375037
 1 -3.43990189718972  6.29057668336834 -1.59214341684169
 1 -5.20927363456346  5.82557567366737 -0.91320119731973
 1 -4.36582005890589  4.48535870617062 -1.47806731473147
 1  3.50188858935894 -4.57251346384638  1.66641742414241
 1  8.13544156875687 -1.67380676967697  1.70080746374638

