%nproc=4
%Mem=2GB
# td=(NStates=1) B3LYP/SVP 

TD

0 1
 8 -4.00108161896190 -5.00371474267427  1.78907293569357
 8  2.73093712241224 -4.72223353015301  1.19475361266127
 8  6.74461076537654 -1.89209647934793  1.69623230273027
 8  3.87677273477348 -3.11727975297530  0.13898055865587
 8  7.47674721132113 -0.56598649374937 -0.01786781948195
 8 -2.97548313441344  2.44124217501750 -0.44835639703970
 7 -0.28694568926893 -0.52754694779478 -0.55607262016202
 7  1.64242273497350  1.87251768426843 -0.30829240684068
 7 -3.27026901590159 -3.21164227722772  0.51959827842784
 7 -0.75742423812381  2.93388453785379  0.01162731693169
 6  0.63926619091909 -2.32919087748775 -1.54214650975098
 6  0.88440134243424 -0.96068330003000 -0.95412426132613
 6 -0.74404853355336 -2.55938430063006 -1.24921698439844
 6 -1.36054647664766 -1.38558887028703 -0.78046717671767
 6  3.75172363316332  1.60905407190719 -0.19194346114611
 6  2.46438854465447  0.92006383188319 -0.44608879387939
 6  2.16337158735874 -0.38018527642764 -0.89621909650965
 6  3.50526116621662  2.90722052425243  0.16497448774877
 6  1.69005041014101 -3.29906160746075 -2.02490983658366
 6 -5.38367727442744 -2.95382099699970  1.41928919321932
 6 -3.59375323462346 -1.85830080598060  0.15601153295330
 6  2.10935524762476  3.14169416361636 -0.04627700430043
 6 -4.92836553285329 -1.64515347924792  0.56499054295430
 6  5.07562282418242  0.85952086898690 -0.31960091879188
 6 -2.59061387708771 -1.08470702610261 -0.35907238103810
 6 -1.36893655575558 -3.68994874797480 -1.94083440024002
 6 -4.22337200560056 -3.91714594639464  1.36607173277328
 6  2.09205033873387 -4.45027405110511 -1.08402762956296
 6  5.31515031743174 -0.21968009150915  0.82514506170617
 6  4.48814487578758  3.98619146844684  0.44723692399240
 6  1.24633331173117  4.18988353865386  0.26363808440844
 6 -6.77773242384238 -3.54465924572457  1.07352641474147
 6 -5.72783236383638 -0.64339012301230  0.24815198209821
 6 -0.13699161846185  4.02187043684368  0.30168198009801
 6 -1.03214831343134  5.14800233393339  0.48718718421842
 6 -2.33594306800680  4.70555205660566  0.17005291129113
 6  2.97799438143814 -3.93626629682968  0.15248293749375
 6 -5.44540825032503  0.61747703630363 -0.51360282508251
 6  6.59414929392939 -0.98433390299030  0.67477837603760
 6 -3.69255679857986  5.39390044854485  0.04835934663466
 6 -2.12412196379638  3.22982794379438 -0.25207097689769
 6 -0.65307589868987  6.48360403040304  1.06792584418442
 6 -4.30262982558256  5.53695965266527 -1.37232632413241
 1 -0.44360594549455  0.21976884268427  0.25733599389939
 1  3.09571693269327 -0.92715085628563 -1.18529861726173
 1  2.46861674297430 -2.85871746834683 -2.43488003510351
 1  1.13963496969697 -3.73695780668067 -2.93302166226623
 1 -5.35765749304931 -2.68780740544054  2.42033257315732
 1  5.19921243374337  0.34855423682368 -1.27902825012501
 1  5.87838640604060  1.59100862896290 -0.41384495909591
 1 -2.79322554025403  0.03182097239724 -0.41487188468847
 1  0.54155138573857  1.85163500740074 -0.62321976747675
 1 -1.79745448124812 -4.48247281778178 -1.06083559335934
 1 -2.29529964096410 -3.43747433383338 -2.49923805690569
 1 -0.61458663856386 -4.38572564136414 -2.68124371367137
 1 -2.24054644094410 -3.35649538023802  0.49177184238424
 1  1.25517634693469 -5.11220391869187 -0.84718010791079
 1  2.81981808620862 -5.14662876977698 -1.62546792869287
 1  4.53318855185519 -1.05304646804680  1.02421215731573
 1  5.24556890229023  0.30407644634463  1.59021682478248
 1  4.54712523812381  4.65208562496250 -0.61455282708271
 1  5.41710480218022  3.65694322752275  0.49725551515152
 1  4.06027305990599  4.45007047914792  1.44919063596360
 1  1.74155493409341  5.09560873827383  0.65841691689169
 1 -7.55139670797080 -2.76703178667867  1.05092636223622
 1 -6.85122918681868 -4.43750013211321  1.68983482388239
 1 -6.86765246224622 -4.11696911301130  0.00369245764576
 1 -6.77427194949495 -0.56087699619962  0.71455945704570
 1 -4.98247721982198  1.44892971387139  0.05975871457146
 1 -6.33798217561756  1.06534560956096 -1.00659497559756
 1 -4.64009332133213  0.45874603680368 -1.32553931873187
 1 -3.54411639713971  6.26273067816782  0.36438331483148
 1 -4.52258369656966  4.81403373527353  0.56273229952995
 1 -0.30774991949195  6.17066763216322  2.17535737733773
 1 -1.40181629192919  7.40150360506051  1.18082743444344
 1  0.29877904590459  6.97984026972697  0.45055601270127
 1 -3.65637354435444  6.13843146884689 -2.02356655915592
 1 -5.22384509170917  6.02234535063506 -1.28151802900290
 1 -4.37771124802480  4.35458562886289 -1.68511801980198
 1  3.35523392389239 -4.29490570307031  1.93429421182118
 1  7.71146917151715 -1.85149453845385  1.61684906790679

