%nproc=4
%Mem=2GB
# td=(NStates=1) B3LYP/SVP 

TD

0 1
 8 -4.24335584638464 -4.90342471367137  1.73760778917892
 8  3.10224425312531 -4.82280358715872  1.05744988228823
 8  7.09500580488049 -1.61232850255025  1.84709738923892
 8  3.82355741324132 -3.15559358435844 -0.14818815821582
 8  7.58422795939594 -0.47912780788079  0.07958192549255
 8 -2.99509509560956  2.34728277907791 -0.34391595299530
 7 -0.22059905460546 -0.49079327242724 -0.68280529342934
 7  1.50469896259626  1.82602303480348 -0.33298487608761
 7 -3.32172416141614 -3.13897501050105  0.68972529112911
 7 -0.81472996869687  2.87807895729573 -0.25867971377138
 6  0.67493975827583 -2.40180813921392 -1.37155945104510
 6  0.95435833813381 -1.03453068476848 -1.02662151105110
 6 -0.70652478117812 -2.55079344154415 -1.26126818951895
 6 -1.34006442844284 -1.38118843024302 -0.79670880088009
 6  3.76542500330033  1.49021218771877 -0.27475174197420
 6  2.47000910671067  0.85244707020702 -0.59125331033103
 6  2.24203945414541 -0.43251050895090 -0.90779025362536
 6  3.51851249134914  2.71576137833783  0.10538852915292
 6  1.58951035613561 -3.35734743604360 -2.00535788138814
 6 -5.47813672037204 -2.76369198409841  1.38200546484648
 6 -3.54209806910691 -1.76990196609661  0.21729766156616
 6  2.10458477057706  2.96039603380338  0.05705332873287
 6 -4.96131882818282 -1.59918888278828  0.59440348424842
 6  5.05594085598560  0.86948186508651 -0.29732869156916
 6 -2.59860467616762 -1.03271182658266 -0.39938641244124
 6 -1.44598426052605 -3.72069182228223 -1.83132344914491
 6 -4.34288395679568 -3.73911814361436  1.29173429902990
 6  2.11807294099410 -4.52309133283328 -1.01606083288329
 6  5.33027182958296 -0.10041816531653  0.93731627882788
 6  4.48008406970697  3.84944779407941  0.54067626792679
 6  1.24508318671867  4.06152070237024  0.30070179077908
 6 -6.77274192479248 -3.35920069986999  0.94662372447245
 6 -5.78101768236824 -0.58880466446645  0.28108527542754
 6 -0.15757367666767  3.98492674247425  0.19300111201120
 6 -1.15654075267527  5.11261879557956  0.35926439193919
 6 -2.37777725142514  4.60662216361636  0.23275918191819
 6  3.08629521152115 -4.09203187338734  0.06341403060306
 6 -5.57132084158416  0.71547683628363 -0.67118858365837
 6  6.76237611661166 -0.74438990859086  0.88544944314431
 6 -3.77043458635864  5.27300835933593  0.33861837253725
 6 -2.22537208880888  3.10274523552355 -0.13012878267827
 6 -0.64676526762676  6.50143581358136  0.82175122672267
 6 -4.32920248284828  5.65299125582558 -1.11514060556056
 1 -0.47630921582158  0.54819168496850 -0.29294903460346
 1  2.98213557455746 -1.28447658885889 -1.15037512491249
 1  2.56059594089409 -2.90824242084208 -2.45578212531253
 1  1.05842684888489 -3.89302341324132 -2.83550191029103
 1 -5.40689241654165 -2.65236386108611  2.43337387728773
 1  5.65533804630463  0.16367574897490 -1.00978132543254
 1  5.77189575697570  1.62153168126813 -0.12428600320032
 1 -3.03040925862586 -0.05686789648965 -0.39479987748775
 1  0.42173940454045  1.93303314721472 -0.79393683918392
 1 -1.47270200600060 -4.65359993049305 -1.07274678447845
 1 -2.55781589258926 -3.50446103250325 -1.94556268936894
 1 -1.15257043694369 -4.17385445424542 -2.87735332463246
 1 -2.58214060036004 -3.48389812051205  0.89260192539254
 1  1.39927075637564 -5.29482218051805 -0.76247163706371
 1  2.84096020042004 -5.33440754765477 -1.59413479537954
 1  4.61632686568657 -0.78811997539754  0.94475421152115
 1  5.18533287868787  0.43099913861386  1.81261906500650
 1  4.66887741334133  4.79647006340634 -0.13570494229423
 1  5.58115120682068  3.69817735093509  0.47623341294129
 1  4.27556458905891  4.25819129122912  1.44729044594459
 1  1.64229500810081  5.01374055145515  0.53983505870587
 1 -7.65780734903490 -2.75089017251725  1.27208847844784
 1 -6.95938000190019 -4.35829221132113  1.32270811121112
 1 -6.81928762576258 -3.27108452455246 -0.19754766636664
 1 -6.81925644794479 -0.74144505300530  0.70032803390339
 1 -5.06343531563156  1.35815063596360  0.05509824852485
 1 -6.55569394679468  1.24776385138514 -0.81379569566957
 1 -4.97569688168817  0.39787995019502 -1.38301506630663
 1 -3.84478646414642  6.18015242034203  1.00636751325132
 1 -4.44522596079608  4.49676200810081  0.79101512781278
 1 -0.20568971347135  6.48847941334133  1.79757959955996
 1 -1.58333444374437  7.20136359105911  0.97672702440244
 1  0.07177634563456  6.96242852855286 -0.04193323622362
 1 -3.64020192719272  6.28472609830983 -1.77414161666167
 1 -5.21642434963496  6.31831494759476 -0.95870574777478
 1 -4.37769124602460  4.76686685698570 -1.61774128212821
 1  3.88496689718972 -4.72761897439744  1.69607038943894
 1  7.98112613721372 -1.92586197519752  1.71820920392039

