%nproc=4
%Mem=2GB
# td=(NStates=1) B3LYP/SVP 

TD

0 1
 8 -4.22665417621762 -4.92124649584959  1.86980100850085
 8  2.87902193089309 -4.92517382418242  1.09714385168517
 8  6.96403270757076 -1.63665093479348  1.85542822232223
 8  3.66678173567357 -3.15506353135313  0.02766942754275
 8  7.58789832643264 -0.45860575567557 -0.00056608930893
 8 -3.04544013011301  2.37492554335434 -0.34581614301430
 7 -0.22154914961496 -0.49195338843884 -0.58409542244224
 7  1.60368886158616  1.89745017751775 -0.39863144074407
 7 -3.26251824082408 -3.14326543954395  0.61855817441744
 7 -0.73526202190219  2.84652580198020 -0.12229607540754
 6  0.70928319261926 -2.36376433483348 -1.40198249334934
 6  0.87956085838584 -0.99829706140614 -0.93661251015101
 6 -0.71256538523852 -2.50364872707271 -1.33869593229323
 6 -1.20494091609161 -1.35078538993899 -0.73448257825783
 6  3.82026048684868  1.59634280078008 -0.28056232303230
 6  2.54267637343734  0.96863868936894 -0.50504468946895
 6  2.28016326652665 -0.42601985988599 -0.85459493409341
 6  3.56369700980098  2.82610241244124  0.01569956025603
 6  1.63468487358736 -3.23843554485449 -2.03463080868087
 6 -5.51595050175017 -2.85253086798680  1.35671293559356
 6 -3.60188404770477 -1.83935891179118  0.26981291309131
 6  2.19814412651265  3.04960495469547  0.01094871827183
 6 -5.09961265756576 -1.59873883778378  0.51309535343534
 6  5.10622588448845  0.81553647054705 -0.28490744944494
 6 -2.59427424312431 -0.96913546894689 -0.19679615341534
 6 -1.55256491859186 -3.68160791389139 -1.81077139393939
 6 -4.28729839823982 -3.86037026882688  1.32494762036204
 6  2.08315944964496 -4.51443046674668 -1.16827605440544
 6  5.32687148954895 -0.08604672817282  0.89455200240024
 6  4.58444450575058  3.89743259255926  0.34201640194019
 6  1.30592927132713  4.16994154445445  0.31878359895990
 6 -6.83264791539154 -3.44343912371237  0.92070113221322
 6 -5.84737431803180 -0.58021380538054  0.14463163006301
 6 -0.10064798409841  4.06320457025703  0.19879169106911
 6 -0.99722482108211  5.13923145684568  0.43697216271627
 6 -2.24635410911091  4.67890939233923  0.31377728372837
 6  2.97415399739974 -4.11562423262326  0.03036072527253
 6 -5.60384409390939  0.54613990259026 -0.85319678447845
 6  6.74599447844785 -0.65414088368837  0.88398929712971
 6 -3.68690623352335  5.17755881438144  0.28576308700870
 6 -2.04761431303130  3.14248920992099 -0.05689145894589
 6 -0.62029262036204  6.53136880688069  0.87715676727673
 6 -4.44281384398440  5.23239919661966 -1.08039713121312
 1 -0.58928051295130  0.47099396519652 -0.29146888658866
 1  3.10899826082608 -1.36243438463846 -1.07475756315632
 1  2.51201108240824 -2.81489308590859 -2.47590413751375
 1  1.27973898009801 -3.79644375527553 -2.99767812791279
 1 -5.91326305360536 -2.51753037773777  2.18434897479748
 1  5.11094360686069  0.15085446684668 -1.10179052635264
 1  5.95209377677768  1.59496902500250 -0.33452702730273
 1 -2.88951516921692  0.02871066136614 -0.40874127162716
 1  0.53346057665767  2.08415825972597 -0.64054149964997
 1 -1.81229596539654 -4.41866643714371 -1.06363587338734
 1 -2.51467157815782 -3.35568615501550 -2.12690082318232
 1 -1.10170535043504 -4.17969503830383 -2.87875346464646
 1 -2.22328471477148 -3.39384911561156  0.69214187938794
 1  1.21127195649565 -4.95502820112011 -0.72394778467847
 1  2.52562866726673 -5.27994210111011 -1.91173655555556
 1  4.54237947094710 -1.01119228262826  0.96991672777278
 1  5.12544689008901  0.36715275397540  1.98569637273727
 1  4.44994552015202  4.78655907230723 -0.32932430423042
 1  5.64380747244725  3.65604313751375  0.12012780238024
 1  4.37784481708171  4.39983545564557  1.41898761566157
 1  1.83903468206821  5.06823600100010  0.54309538473847
 1 -7.76684825312531 -2.84799988348835  1.11090235983598
 1 -6.90765482938294 -4.30795717781778  1.60206604700470
 1 -6.72726842384238 -3.77888530463046 -0.08212612421242
 1 -6.90268479077908 -0.48271918041804  0.58952695379538
 1 -5.03922289438944  1.37903272417242 -0.24700196149615
 1 -6.43411178857886  1.13934300930093 -1.05262957905791
 1 -4.84282359435944  0.29236939913991 -1.74471123592359
 1 -3.63428541404140  6.35209961506151  0.70667754425443
 1 -4.30783222142214  4.55193752565257  0.97682370867087
 1 -0.35385452995299  6.38196876227623  2.12926276787679
 1 -1.61140725102510  7.00297375207521  0.71685103680368
 1  0.16062523052305  7.00291257695770  0.18344930203020
 1 -3.95977388438844  5.74088171387139 -1.76189039153915
 1 -5.72544525172517  5.21018413451345 -1.07681755895590
 1 -4.43498697559756  4.11782195249525 -1.66480598859886
 1  3.52573097359736 -4.41786799929993  1.71851263366337
 1  7.73945196979698 -2.13599298829883  1.44179156215622

