%nproc=4
%Mem=2GB
# td=(NStates=1) B3LYP/SVP 

TD

0 1
 8 -4.28837034783478 -4.98306267746775  1.65052908130813
 8  2.83141717041704 -4.88562986978698  1.19898403570357
 8  6.85222152645265 -1.69127639733973  1.82448512801280
 8  3.84729978747875 -3.17612563756376  0.08580524112411
 8  7.62649218581858 -0.24224411951195  0.23938790609061
 8 -3.00826641274127  2.35704375517552 -0.40688224962496
 7 -0.28877587228723 -0.54070826392639 -0.69191620452045
 7  1.54729322202220  1.89090952345235 -0.45534711231123
 7 -3.15402739173917 -3.13974508750875  0.64569088768877
 7 -0.81358985468547  2.84297544694469 -0.18302214801480
 6  0.65200746504650 -2.43675163356336 -1.47591988708871
 6  0.99615251755176 -1.03405063676368 -1.08947779667967
 6 -0.74197832653265 -2.58222658485849 -1.27063912661266
 6 -1.29433985598560 -1.34662497389739 -0.75296442644264
 6  3.78277673847385  1.52019518601860 -0.35122938973897
 6  2.49880198599860  0.88783060856086 -0.62781696669667
 6  2.20676592679268 -0.40920817871787 -1.06049552415242
 6  3.47001764186419  2.79388919111911  0.08747673797380
 6  1.67991939703970 -3.40956265756576 -1.98914626022602
 6 -5.46508541524152 -2.75352096699670  1.49618688298830
 6 -3.49203306260626 -1.84618959485949  0.19162509430943
 6  2.09136344844484  3.06220621482148 -0.07556993359336
 6 -4.90480317661766 -1.57042600650065  0.56747079097910
 6  5.11133639553955  0.84025894279428 -0.37989694839484
 6 -2.57243205890589 -1.01060961636164 -0.42263873767377
 6 -1.42065172727273 -3.91195094819482 -1.73226354315432
 6 -4.24833450185019 -3.83753798559856  1.28762388798880
 6  2.09600073377338 -4.46455547924792 -0.96336556335634
 6  5.24909371177118 -0.22082020552055  0.69023157035704
 6  4.54024008530853  3.83768661796180  0.51431363166317
 6  1.28928760716072  4.13082763306331  0.14137585818582
 6 -6.78621327192719 -3.41025580538054  1.07340640274027
 6 -5.71430101070107 -0.58227401140114  0.17886505340534
 6 -0.09703762306231  4.03679192899290  0.13739555145515
 6 -1.09030412901290  5.13981151485148  0.47163562906291
 6 -2.30347982168217  4.68251975337534  0.32765867186719
 6  2.93661024302430 -4.11432410261026  0.12250994019402
 6 -5.56346005550555  0.38995428402840 -0.79160062486249
 6  6.65361524052405 -0.66009147874787  0.87803870207021
 6 -3.65284282718272  5.35441650015002  0.42449696039604
 6 -2.21498104970497  3.25298025902590 -0.12152792259226
 6 -0.72358294939494  6.56633230323032  1.01675072667267
 6 -4.22139170177018  5.80607656435644 -0.91630072157216
 1 -0.46844842974297  0.40660752655266 -0.32333207290729
 1  3.03120048104810 -0.90832897409741 -1.22785287268727
 1  2.54791467276728 -2.90068166476648 -2.42566911401140
 1  1.25131613781378 -3.79132324322432 -2.86033439353935
 1 -5.42714444174417 -2.53281190589059  2.43246378627863
 1  5.15582809530953  0.23649303070307 -1.55993634093409
 1  6.04951351875187  1.66473600170017 -0.39192276687669
 1 -2.89224544224422 -0.01696390609061 -0.54085448294830
 1  0.53079030963096  1.83489333323332 -0.70889833533353
 1 -1.34412914871487 -4.64756932743274 -0.95391490129013
 1 -2.54007411841184 -3.82770335673567 -2.02198033113311
 1 -0.95578075797580 -4.33467053585358 -2.61768735803580
 1 -2.38274066036604 -3.73224295499550  0.50096276147615
 1  1.05364619391939 -4.99889258755876 -0.76241163106311
 1  2.75857196159616 -5.06162026892689 -1.67050243214321
 1  4.61219645264526 -1.00364152755276  0.42867260336034
 1  4.93894824022402  0.04935097379738  1.81197900100010
 1  4.66325685128513  4.79462987938794 -0.15603697549755
 1  5.64613770547055  3.45596312951295  0.61553734333433
 1  4.29299633223322  4.39421489358936  1.47436315321532
 1  1.95389616821682  5.07688686608661  0.16566764196420
 1 -7.64543611191119 -2.70755583908391  1.33538480808081
 1 -7.13087715161516 -4.28248463056306  1.63796963736374
 1 -7.17637333433343 -3.69976739283928  0.06850893929393
 1 -6.79686420872087 -1.01817272577258  0.57144514561456
 1 -4.77168614071407  1.19757457835784 -0.28851611291129
 1 -6.41976035343534  0.94590366536654 -1.35425974207421
 1 -4.79766907890789  0.14586474867487 -1.65159192399240
 1 -3.75681766726673  6.18087249234924  1.00589746624663
 1 -4.37339877807781  4.45025735763576  0.75844187048705
 1  0.03691454695470  6.24628519391939  1.89132897449745
 1 -1.59787589788979  7.10602405710571  1.29018837053705
 1 -0.18812964496450  7.06116840254025  0.15403636073607
 1 -3.72230013701370  6.66229385508551 -1.17047124962496
 1 -5.38344105130513  6.13903701980198 -0.81211108830883
 1 -4.30978445534554  4.89455962626263 -1.79458896689669
 1  3.39311771227123 -4.56117232973297  1.83542432483248
 1  7.75045306990699 -1.89182857185719  1.59508689168917

