%nproc=4
%Mem=2GB
# td=(NStates=1) B3LYP/SVP 

TD

0 1
 8 -4.27867937873787 -5.00925529672967  1.72592662106211
 8  3.03559758845885 -4.84856616341634  1.00342447974797
 8  7.13665997029703 -1.46252352205221  1.85671835133513
 8  3.84143920142014 -3.12214023902390 -0.10473381278128
 8  7.69966950355036 -0.47532742784278 -0.08252428512851
 8 -2.97730331643164  2.25901395219522 -0.22091365276528
 7 -0.31444843954395 -0.50923511661166 -0.60887790069007
 7  1.51240973367337  1.78563899639964 -0.23211478907891
 7 -3.33087507650765 -3.13461457445745  0.80097641624162
 7 -0.76424492019202  2.92400354975498 -0.01388523432343
 6  0.67547981228123 -2.36124408280828 -1.34498679377938
 6  0.88587148944894 -1.05463269496950 -0.95807465636564
 6 -0.80060418911891 -2.57034539673967 -1.26419848254825
 6 -1.27518794079408 -1.35768608000800 -0.70489961996200
 6  3.76253471427143  1.49674284078408 -0.23197746454645
 6  2.48425053085309  0.80424224972497 -0.48111229622962
 6  2.26358160836084 -0.42475973387339 -0.89358883348335
 6  3.51655229532953  2.70957075927593  0.08568655895590
 6  1.57567897299730 -3.38131983328333 -2.06682402800280
 6 -5.49747865456546 -2.77066268116812  1.35834309860986
 6 -3.66209006830683 -1.86987196309631  0.27667359915992
 6  1.97236154825483  2.92401239543954  0.08950657405741
 6 -4.96016871317132 -1.64464342824282  0.51253529742974
 6  5.14905016691669  0.81168608550855 -0.30482944164416
 6 -2.72849766546655 -1.11271982738274 -0.34050052385239
 6 -1.54504416651665 -3.63049280238024 -1.70734105090509
 6 -4.36529619801980 -3.84529876167617  1.33302842844284
 6  2.01331246494649 -4.48111713541354 -1.17629685648565
 6  5.34746354875488 -0.07832595609561  0.91380392759276
 6  4.56121218251825  3.89951280058006  0.57843004330433
 6  1.35602428082808  4.12290684098410  0.38962068266827
 6 -6.87554220482048 -3.40620540034003  1.10165922802280
 6 -5.77608718931893 -0.64634041804180 -0.02697553065307
 6 -0.11841976127613  4.07994624442444  0.27413922582258
 6 -1.06522162076208  5.18419595329533  0.34351281678168
 6 -2.36101557525753  4.60485198659866  0.19806571257126
 6  3.04266084808481 -4.07503017321732 -0.08063037383738
 6 -5.42628633813381  0.53997928652865 -0.85446691149115
 6  6.83091297029703 -0.70369583918392  0.79735063326333
 6 -3.63399094199420  5.32332339083908  0.07052156285629
 6 -2.12824237583758  3.16733169416942 -0.06182195199520
 6 -0.85866645774577  6.63351902190219  0.78113716531653
 6 -4.18464802740274  5.71038699539954 -1.22470156165617
 1 -0.36431801670167  0.53295016081608 -0.22035177487749
 1  3.17711507250725 -1.12469061026103 -1.01043113051305
 1  2.45361524282428 -2.87535913251325 -2.42975952305230
 1  0.99918092429243 -3.72404651555155 -2.97716607670767
 1 -5.41570329762976 -2.46308493319332  2.38507904780478
 1  5.08724123662366  0.10403978537854 -1.20839118641864
 1  5.96699526692669  1.69128865696570 -0.40901447604761
 1 -2.86199241694169 -0.06581879157916 -0.06527692519252
 1  0.59158638923892  1.68183802770277 -0.56132357785779
 1 -1.67010174597460 -4.48188275877588 -1.04507401720172
 1 -2.73009312031203 -3.69588017441744 -1.98779691279128
 1 -1.07358253815382 -4.06071314011401 -2.64612020132013
 1 -2.33406579287929 -3.53086281698170  0.65755842104210
 1  1.13105393469347 -4.97502020032003 -0.77929331923192
 1  2.38118422282228 -5.33857796469647 -1.79319470137014
 1  4.47166239923992 -0.78913007640764  1.05192492859286
 1  5.21191553695370  0.58765480418042  1.73196099919992
 1  4.07571809740974  5.00385080148015  0.24834346254625
 1  5.52944603630363  3.58267580078008  0.04444023362336
 1  4.66131316391639  3.92895836793679  1.84964068096810
 1  1.81135191379138  4.95285446284629  0.74959603480348
 1 -7.83344491279128 -2.75739082258226  1.33943521312131
 1 -6.96861092499250 -4.16637301940194  1.85798163856386
 1 -6.94056975397540 -3.67857527362736 -0.04376228782878
 1 -6.89389391169117 -0.87458836733673  0.10155815691569
 1 -4.85271424352435  1.06649147004700 -0.04651191249125
 1 -6.18696707410741  1.12362143714371 -1.30138445454545
 1 -4.83532284428443  0.25533569576958 -1.66060282508251
 1 -3.63573555905591  6.24503890899090  0.65440231673167
 1 -4.52689412761276  4.53831616351635  0.72027805410541
 1 -0.28487763226323  6.40466103150315  1.74356419801980
 1 -1.79213532383238  7.34742819751975  0.76287563926393
 1  0.04762393039304  7.18099038473847  0.20755171227123
 1 -3.38787669466947  6.27409503520352 -1.89551375387539
 1 -5.04164687188719  6.34407752385239 -1.10012989018902
 1 -4.57739121602160  4.88255842614261 -1.75867537553755
 1  3.75145354585459 -4.27260347284728  1.31596237863786
 1  7.94578260286029 -1.85921531053105  1.70499788278828

