%nproc=4
%Mem=2GB
# td=(NStates=1) B3LYP/SVP 

TD

0 1
 8 -4.51815332613261 -5.04162853405341  1.56097012541254
 8  2.94125815451545 -4.57684899169917  1.25184932223222
 8  7.16264256855686 -1.35442271197120  1.87909058855886
 8  3.93950900840084 -3.14757278227823 -0.12636597599760
 8  7.58686822342234 -0.70282017711771 -0.18176420912091
 8 -3.11187677377738  2.35358340914091 -0.36606816821682
 7 -0.20796779147915 -0.45194938803880 -0.47227424032403
 7  1.56569506220622  1.85094552705271 -0.40342191979198
 7 -3.30744273327333 -3.13414452745275  0.73554987358736
 7 -0.78748724442444  2.89783093249325  0.09693584778478
 6  0.66839910421042 -2.33074103250325 -1.32899519461946
 6  0.98485138743874 -1.10373760546055 -0.80878972787279
 6 -0.73344747344734 -2.55930429262926 -1.12807487018702
 6 -1.30706112811281 -1.35559587098710 -0.64413354335434
 6  3.80153861466147  1.49413257975798 -0.36689095589559
 6  2.54618672447245  0.87053887938794 -0.70158434343434
 6  2.20493574377438 -0.43409066696670 -0.83041251585158
 6  3.54459509960996  2.83114291649165 -0.08520052975298
 6  1.63295470057006 -3.41111281258126 -1.83617096269627
 6 -5.58955786248625 -2.90146576147615  1.15785304960496
 6 -3.58548240754075 -1.81203617951795  0.35942187398740
 6  2.10245455755576  3.04923491769177  0.04369199259926
 6 -5.09942263856386 -1.64629359325933  0.42144618851885
 6  5.09409467136714  0.77417233413341 -0.43205216391639
 6 -2.58998381408141 -0.98340689608961 -0.21919839363936
 6 -1.52750241234123 -3.78181793489349 -1.59710002680268
 6 -4.50053972237224 -3.85532976477648  1.15306043164316
 6  2.12194332803280 -4.49074809850985 -0.92852207900790
 6  5.49944874727473 -0.12674079757976  0.75754830203020
 6  4.51065712701270  3.84304715401540  0.25954815511551
 6  1.27622630103010  4.12310686098610  0.31045276587659
 6 -6.89879453005301 -3.43415819561956  0.59363842594259
 6 -5.88040762136214 -0.59994577857786  0.01562872977298
 6 -0.13813173247325  4.07011526132613  0.34019583148315
 6 -1.13530862946295  5.14988252195220  0.51710017551755
 6 -2.40724019771977  4.64661616301630  0.40391629762976
 6  3.11373795579558 -3.98176084628463  0.03504119331933
 6 -5.42821653115312  0.59254454305431 -0.69960142494249
 6  6.77635751475148 -0.76028149774977  0.71748264646465
 6 -3.64551209410941  5.36596765526553  0.38250276097610
 6 -2.08747829942994  3.14583954495450  0.02387661786179
 6 -0.67313790489049  6.53556922692269  0.77050610221022
 6 -4.16921648424842  5.45678163486349 -1.06162525402540
 1 -0.36732831773177  0.30921778757876  0.05551581188119
 1  2.98887624862486 -1.14643278447845 -1.15869595699570
 1  2.57791767306731 -2.96890848744875 -2.26789333643364
 1  1.33574458065807 -3.63376748764877 -2.90832919301930
 1 -5.83092481978198 -2.59803842854285  2.25767630753075
 1  5.28046055855586  0.21272065346535 -1.38379872717272
 1  5.78252682008201  1.60012954105410 -0.60653422802280
 1 -2.86477269496950 -0.03707591729173 -0.34503490099010
 1  0.41693892449245  1.91851169506951 -0.41668911441144
 1 -1.23985872167217 -4.85625019551955 -1.13563307310731
 1 -2.82221233223322 -3.85800638703870 -1.56238437153715
 1 -1.22699787968797 -4.08230529932993 -2.67826341564156
 1 -2.45365775207521 -3.67888761946195  0.52725539073907
 1  1.12874370367037 -4.66967966626663 -0.51270666056606
 1  2.42010811521152 -5.40072417931793 -1.52360774267427
 1  4.93794902790279 -1.13585474887489  0.73865360146015
 1  5.23794814021402  0.35873191189119  1.77650545364536
 1  4.43834436003600  4.62070248664867 -0.53619499129913
 1  5.55171826352635  3.59798733193319  0.34471026062606
 1  4.37203423602360  4.40623609570957  1.28760447734774
 1  1.75448622722272  5.04986416381638  0.80151122632263
 1 -7.73882545084509 -2.65081016451645  0.69203047264726
 1 -6.91993605750575 -4.32904928702870  1.29837567796780
 1 -6.94299999699970 -3.73612102820282 -0.20138805040504
 1 -6.96856137843784 -0.93356426492649  0.48227622872287
 1 -4.84984395649565  1.29927474837484 -0.08051531283128
 1 -6.35032340974097  1.02001107610761 -0.99366368246825
 1 -4.89372868486849  0.39792995519552 -1.59946671147115
 1 -3.62163414891489  6.31067547264727  0.94912178867887
 1 -4.38405984418442  4.55977830973097  0.75922194849485
 1 -0.03510265476548  6.48769933533353  1.66567640924092
 1 -1.46041215151515  7.19912336703670  1.13092244394439
 1  0.00189935793579  6.79126141184118 -0.01726076897690
 1 -3.34581248824882  5.92980060576058 -1.83917812031203
 1 -5.22548525572557  5.82533564966497 -1.09474935213521
 1 -4.23914739163916  4.29581975227523 -1.30880038803880
 1  3.83575197569757 -4.41906811931193  1.80624140654065
 1  8.04747277187719 -1.54696408540854  1.73862124512451

