%nproc=4
%Mem=2GB
# td=(NStates=1) B3LYP/SVP 

TD

0 1
 8 -4.14920643144314 -4.76372074327433  1.97265129352935
 8  3.19168319701970 -4.75953726052605  0.99479361666167
 8  6.78369467376738 -1.65155242494249  1.96628930843084
 8  3.83696875437544 -2.99092711771177 -0.25516885628563
 8  7.35778531513151 -0.85717561266127 -0.13933996669667
 8 -3.03929951605161  2.34906295709571 -0.49104066546655
 7 -0.30705770047005 -0.44225841894189 -0.58768578147815
 7  1.54148264096410  1.84336476897690 -0.16121769936994
 7 -3.25685767476748 -3.09570068306831  0.67842416101610
 7 -0.85231372707271  2.81910305970597  0.01615776997700
 6  0.60735299959996 -2.45961391979198 -1.39991228632863
 6  0.95649855215522 -1.02769000070007 -0.98376722562256
 6 -0.72667679637964 -2.63296165836584 -1.29068113081308
 6 -1.26055647764776 -1.34648495989599 -0.69149827982798
 6  3.78375683648365  1.53791695819582 -0.27486175297530
 6  2.56522862866287  0.89506133163316 -0.43029721472147
 6  2.24696994719472 -0.40436769466947 -0.90418989358936
 6  3.54980562066207  2.86205600780078  0.11550954125413
 6  1.63626503160316 -3.36775847714771 -2.02207955355536
 6 -5.51368027472747 -2.69449506440644  1.39546681098110
 6 -3.56374023332333 -1.81478645454545  0.23457938973897
 6  2.07334164626463  3.03764375857586  0.15033265666567
 6 -5.00872356865687 -1.58577754165417  0.44424846874687
 6  5.18055331723172  0.85355027192719 -0.29982894159416
 6 -2.53882869856986 -1.03529208460846 -0.35140161396140
 6 -1.50583024512451 -3.86742649574958 -1.73234355115512
 6 -4.22239190759076 -3.67172140394039  1.44995012061206
 6  2.14991612531253 -4.55446447014701 -1.12762198899890
 6  5.22563136553655 -0.15925404890489  0.85108765596560
 6  4.54280034133413  3.95667851715171  0.44824702500250
 6  1.20943962236224  4.18200275057506  0.36456817741774
 6 -6.67376202680268 -3.50920570037004  0.88104716681668
 6 -5.78867844844484 -0.48005378937894  0.17566473337334
 6 -0.19024694399440  3.98066631643164  0.27525933783378
 6 -1.12278737733773  5.11786932063206  0.43624208970897
 6 -2.35891536523652  4.67608911031103  0.16482238823882
 6  3.18492507450745 -4.00861353155316 -0.13974628542854
 6 -5.39088279777978  0.50918620722072 -0.87281874667467
 6  6.54441432043204 -0.86412188178818  0.84769566776678
 6 -3.80303784668467  5.22577363586359  0.27810232093209
 6 -2.16283583518352  3.11543650465047 -0.14200997079708
 6 -0.79195978707871  6.53797946794680  0.86814586618662
 6 -4.15396495909591  5.64511046774677 -1.14886397789779
 1 -0.46652823772377  0.51342820862086  0.06927718801880
 1  3.15982334333433 -1.23235137633763 -0.89638972637264
 1  2.52409229052905 -2.80412200880088 -2.46058260536054
 1  1.35150615681568 -3.91599571047105 -3.06136449654965
 1 -5.61257298459846 -2.35528415311531  2.26805734563456
 1  5.30658317081708  0.36720610201020 -1.27243759105911
 1  6.10859942734273  1.59012854095410 -0.37140071467147
 1 -3.01713793149315  0.08923671397140 -0.32206260376038
 1  0.44232146274627  1.68489833373337 -0.36572401790179
 1 -1.26398113391339 -4.67999256975698 -1.05909541934193
 1 -2.59536964796480 -3.91012159855986 -1.78238637173717
 1 -1.06696187608761 -4.01642871167117 -2.72696828612861
 1 -2.10414280058006 -3.32213194389439  0.88187085228523
 1  1.22971380068007 -4.94709740804080 -0.64632002190219
 1  2.61771787618762 -5.42833694059406 -1.80934631653165
 1  4.29453468646865 -0.94068523192319  0.76494623072307
 1  5.20748509390939  0.44309034773477  1.70174797789779
 1  4.20819134473447  5.00219063546355  0.02898152635264
 1  5.63347643934393  3.73278081128113  0.51389717931793
 1  4.35139217181718  4.27163263536354  1.53418913581358
 1  1.52387316591659  5.10042922032203  0.68542961816182
 1 -7.50561212951295 -2.73262834633463  0.94351562116212
 1 -6.62642670657066 -4.23641002310231  1.55772161256126
 1 -6.70523622062206 -3.97071448754876 -0.04373228482848
 1 -6.82698722102210 -0.56624753325333  0.30680868196820
 1 -4.96705567766777  1.43580840174017 -0.36820408170817
 1 -6.42766114351435  0.85879495449545 -1.28320263636364
 1 -4.56332564456446  0.30945110731073 -1.55473223802380
 1 -3.84458644414441  5.92329673477348  1.10099697619762
 1 -4.52612405060506  4.36292862476248  0.66229225552555
 1  0.02670352585259  6.59194976037604  1.62421226282628
 1 -1.73549966026603  7.07755120982098  1.20395974767477
 1 -0.25100593259326  6.87986027172717 -0.25710475337534
 1 -3.38460636763676  6.37776540224023 -1.52361656415642
 1 -5.17067977517752  6.03597671377138 -1.38306818401840
 1 -3.98477195409541  4.67370754105411 -1.85254476247625
 1  3.82309070957096 -4.33779999249925  1.62200298269827
 1  7.77284530913091 -2.09038842784278  1.67215459845985

