%nproc=4
%Mem=2GB
# td=(NStates=1) B3LYP/SVP 

TD

0 1
 8 -4.26682819361936 -4.84217858905891  1.90441446984698
 8  3.10239426812681 -4.90651195799580  0.94537867516752
 8  7.03863016731673 -1.35276254595460  2.12866554605461
 8  3.84475953345335 -3.15505353035304 -0.11063440284028
 8  7.52319185578558 -0.62245214031403 -0.03744977767777
 8 -2.97931351745175  2.44458250905091 -0.48624018541854
 7 -0.23132012671267 -0.54879907300730 -0.67566457935794
 7  1.50765925862586  1.85523595609561 -0.47678925652565
 7 -3.32861485048505 -3.07077819081908  0.77534385298530
 7 -0.81353984968497  2.96743789318932 -0.17987183298330
 6  0.65749801410141 -2.42954091249125 -1.48651094619462
 6  0.97364026632663 -1.06161339303930 -1.01406025492549
 6 -0.68506263496350 -2.64824318651865 -1.31998406110611
 6 -1.30218064006401 -1.45055536693669 -0.69682881288129
 6  3.72358081888189  1.48932209870987 -0.35020928772877
 6  2.49162126792679  0.82825465096510 -0.53479766476648
 6  2.21524677487749 -0.42090934883488 -1.04038351295130
 6  3.48548918901890  2.73803360556056  0.11877986828683
 6  1.60710211531153 -3.40674237553755 -2.15594293989399
 6 -5.48571747844785 -2.80119573447345  1.47136440074007
 6 -3.58547240654065 -1.76243121902190  0.28617454925493
 6  2.05589990209021  2.99077907210721  0.01534915831583
 6 -4.99678237453745 -1.55409437333733  0.59085312921292
 6  5.13382864476448  0.76728164506451 -0.25516447514751
 6 -2.62319713541354 -1.06264481988199 -0.39784625842584
 6 -1.40444010611061 -3.77420717381738 -1.92334265106511
 6 -4.33242291069107 -3.76338056985699  1.40196532213221
 6  1.98905003870387 -4.49526855055506 -1.15031425822582
 6  5.34293309570957 -0.19179730323032  1.02228477567757
 6  4.47289335063506  3.86498934823482  0.56414861516152
 6  1.27082576097610  4.17134168446845  0.22059377997800
 6 -6.84760941154115 -3.35544032383238  0.98141720382038
 6 -5.75637521812181 -0.53506929092909  0.16962412931293
 6 -0.12591051035104  4.15477372717272  0.21751356325633
 6 -1.08227332593259  5.15749328302830  0.44425289078908
 6 -2.30725019871987  4.62970447184718  0.27522342834283
 6  3.05135171717172 -4.07290996119612 -0.09816212701270
 6 -5.30355406490649  0.57594288288829 -0.74423588838884
 6  6.71844172317232 -0.66137160676068  0.96125702390239
 6 -3.76847439033903  5.11714277277728  0.29171368206821
 6 -2.14747429902990  3.29017397839784 -0.15937170697070
 6 -0.68900949204920  6.53462913291329  0.93002205380538
 6 -4.45207477007701  5.46878283498350 -1.00628972047205
 1 -0.33515510041004  0.41401826762676 -0.31178091779178
 1  2.94671203220322 -1.21182932413241 -1.34651473887389
 1  2.62392227352735 -2.91239283588359 -2.43684023112311
 1  1.01143214941494 -3.91354546544654 -3.12768112821282
 1 -5.45612734003400 -2.40489911461146  2.51304184408441
 1  5.20122263476348  0.20583996539654 -1.34833518081808
 1  5.90832940034003  1.44842437053705 -0.21260483508351
 1 -2.96142235993599  0.01777956825683 -0.58615901340134
 1  0.61392862346235  1.69737958185819 -0.52616006150615
 1 -1.19083381918192 -4.75997056755676 -1.22794230403040
 1 -2.40430054105411 -3.38009859625963 -1.84598273137314
 1 -1.13861904180418 -4.20352742154216 -2.89785537483748
 1 -2.36250863716372 -3.51839156985699  0.51335400060006
 1  0.99872070137014 -4.87743044134413 -0.54674006390639
 1  2.33079918431843 -5.47690179707971 -1.55207058895890
 1  4.54199943294329 -0.96319748314831  0.90236997309731
 1  5.04216856225623  0.46592263096310  1.77296509960996
 1  4.46784731033103  4.94636505290529  0.08449707790779
 1  5.40445353705371  3.41112864606461  0.76623241284128
 1  4.28026505910591  3.97515298739874  1.74336005290529
 1  2.03115389398940  4.84804398179818  0.88649972517252
 1 -7.64918648694869 -2.60987607110711  1.30682195179518
 1 -6.88279234313431 -4.30939732183218  1.66883272367237
 1 -6.85398109510951 -3.60047746384638 -0.08122603420342
 1 -6.77884240654065 -0.58063897239724  0.68408640974097
 1 -4.81956092819282  1.30068488938894 -0.37680494179418
 1 -6.10533891129113  1.01061013601360 -1.35571988808881
 1 -4.56271558355836  0.06714687688769 -1.54379114391439
 1 -3.74578656415642  5.99762416751675  0.79092596909691
 1 -4.42909434763476  4.40790312221222  0.80455648194819
 1  0.10817167266727  6.34217478287829  1.75205504710471
 1 -1.37635374567457  7.31665512021202  1.06805615731573
 1  0.07739690769077  6.97744002970297  0.24785574267427
 1 -3.88607651465146  6.35227285298530 -1.63330753325333
 1 -5.47517022422242  5.83842695879588 -0.74684456165617
 1 -4.56847032393239  4.39231940224022 -1.57218672667267
 1  3.71089949044904 -4.49571578407841  1.65030581298130
 1  7.98994701930193 -1.79338872787279  2.13074045704570

