%nproc=4
%Mem=2GB
# td=(NStates=1) B3LYP/SVP 

TD

0 1
 8 -4.09563107390739 -4.83310768196820  1.94827885628563
 8  2.74896892559256 -4.86103741054105  1.01501563886389
 8  6.79451575587559 -1.64677194689469  1.90271295079508
 8  3.77160221772177 -3.12897092209221 -0.06205954535454
 8  7.64576411301130 -0.47341723682368  0.18568253555356
 8 -3.06458204430443  2.36056410721072 -0.53015457685769
 7 -0.14937193189319 -0.50931512461246 -0.70639765266527
 7  1.59660815351535  1.87606803930393 -0.36401797939794
 7 -3.29166115511551 -3.05811692469247  0.63082940154015
 7 -0.78241673737374  2.84912606200620 -0.04822866866687
 6  0.65783804810481 -2.38481644004400 -1.54936723182318
 6  1.06178908120812 -1.07167439913991 -1.15945479437944
 6 -0.62590671937194 -2.59730809300930 -1.24659672237224
 6 -1.23582400440044 -1.42016232763276 -0.65263439343934
 6  3.75724418521852  1.47672083858386 -0.26061032783278
 6  2.47414952075208  0.96049787528753 -0.64616880188019
 6  2.26757200740074 -0.44764202210221 -1.02011148574857
 6  3.59449008910891  2.83081288348835  0.13647163746375
 6  1.68846025112511 -3.33228492979298 -2.20443778937894
 6 -5.43669257595760 -2.77028264316432  1.53731099539954
 6 -3.49775363466347 -1.78548352425243  0.28628456025603
 6  2.14327863996400  3.05001499569957  0.09434705810581
 6 -4.94781747804780 -1.61945090899090  0.55054909880988
 6  5.09579484138414  0.70250516741674 -0.43142210091009
 6 -2.51872668836884 -0.96399495489549 -0.34238071187119
 6 -1.47238690079008 -3.75627538063806 -1.79418973577358
 6 -4.18385805420542 -3.69581381318132  1.42406753235324
 6  2.09759089278928 -4.48952797649765 -1.21709093589359
 6  5.35377417981798 -0.13879200270027  0.92177472467247
 6  4.43288935023502  3.84475732503250  0.63659585988599
 6  1.22730140854085  4.13631818211821  0.39159087968797
 6 -6.83014766536654 -3.32930771057106  1.14826388848885
 6 -5.86096567716772 -0.64575035903590  0.16695386228623
 6 -0.19178709800980  4.00327857765777  0.22561437333733
 6 -1.15501059965997  5.07843537723772  0.40455892139214
 6 -2.39149862356236  4.65985748714871  0.17594350035003
 6  2.96334291629163 -4.08722139233923 -0.00370268106811
 6 -5.44051776127613  0.45843113171317 -0.82194365916592
 6  6.72977285628563 -0.72108757835784  0.85594649284928
 6 -3.77627517041704  5.29919097759776  0.27353186388639
 6 -2.16005555715572  3.14298925992599 -0.18594436423642
 6 -0.74131472257226  6.47311298129813  0.96342539413941
 6 -4.35579514211421  5.54386034273427 -1.15584467596760
 1 -0.29278086298630  0.45781264706471 -0.30011975167517
 1  3.12998035903590 -0.92987112831283 -1.19621970937094
 1  2.53773365466547 -2.78110970757076 -2.42170871797180
 1  1.29617062326233 -3.62922703360336 -3.32537089718972
 1 -5.30114184148415 -2.44707333203320  2.52106264616462
 1  4.88621113361336 -0.05667628622862 -1.29986033333333
 1  6.06697526492649  1.34629415751575 -0.80777435203520
 1 -2.80426664436444 -0.02811502120212 -0.51460185768577
 1  0.65002223282328  1.79169901380138 -0.51496894239424
 1 -1.66105084088409 -4.56178074857486 -0.93132264206421
 1 -2.58800891189119 -3.42487307370737 -2.22660079317932
 1 -0.94606978687869 -4.35899296809681 -2.64996058535854
 1 -2.30521290759076 -3.25224495519552  0.74667733293329
 1  1.36393722302230 -5.20122282058206 -0.98986437633763
 1  2.77595369976998 -5.06555066196620 -1.78068345024502
 1  4.63422865586559 -0.83797496089609  1.24632436853685
 1  5.45600994639464  0.55019105780578  1.64231203430343
 1  4.38856938253825  4.72331274767477 -0.08981035283528
 1  5.43781687338734  3.70784831803180  0.83432922252225
 1  4.04459149174918  4.23444891699170  1.56166188308831
 1  1.70600137873787  4.92939211661166  0.84488556375638
 1 -7.54897646594659 -2.53397848134813  1.55498676827683
 1 -6.94689875377538 -4.37672405450545  1.47842368276828
 1 -6.81547724472447 -3.46778419451945 -0.06699461106111
 1 -6.96955147744775 -0.48861977047705  0.62265026612661
 1 -4.95049402150215  1.28402322322232 -0.45801306260626
 1 -6.42174055145515  1.06337541254125 -1.08416273237324
 1 -4.84823413541354  0.24256441864186 -1.65643240804080
 1 -3.63551553705371  6.23123752885289  0.83628050455046
 1 -4.31458289648965  4.59114144604460  0.91624765106511
 1 -0.41136028052805  6.46458702410241  2.08830867246725
 1 -1.63840995129513  7.10861431613161  0.91772112381238
 1  0.20317948594859  6.88652093779378  0.45352630973097
 1 -3.76453436043604  6.14877250295030 -1.73868807130713
 1 -5.35586829402940  6.09021213731373 -0.99262914011401
 1 -4.57328080498050  4.60272044234423 -1.68111761976198
 1  3.13195159565957 -4.69320553305331  1.71620240264026
 1  7.69497752235223 -2.00799018801880  1.68071545454545

