%nproc=4
%Mem=2GB
# td=(NStates=1) B3LYP/SVP 

TD

0 1
 8 -4.47806931773177 -4.83187755895590  1.94587861626163
 8  3.03512754145415 -5.07794910171017  0.94277841514151
 8  6.90607691199120 -1.52138940864086  1.86050873037304
 8  3.68185324282428 -3.10962898789879 -0.05167850725073
 8  7.73202273887389 -0.17429732483248  0.14315828312831
 8 -3.05199078517852  2.40048809960996 -0.50384194559456
 7 -0.08980597529753 -0.43970816391639 -0.53892090499050
 7  1.60467896059606  1.71456188868887 -0.35032661026103
 7 -3.34550653965397 -3.13475458845885  0.85813213181318
 7 -0.80777927362736  2.82802395179518 -0.12205605140514
 6  0.70718298259826 -2.33980193859386 -1.43722601770177
 6  1.00186308860886 -1.05605283698370 -1.03958280718072
 6 -0.74451858055806 -2.60886924912491 -1.21727379007901
 6 -1.19956037803780 -1.40935124652465 -0.59984911491149
 6  3.81892035283528  1.52243541004100 -0.29523379017902
 6  2.52910501630163  0.79049087458746 -0.60462464746475
 6  2.33487873807381 -0.53978123602360 -0.85988546314631
 6  3.53685432553255  2.84027382958296  0.08481647194719
 6  1.57681908700870 -3.31463316461646 -2.09635698129813
 6 -5.59222812951295 -2.80754636953695  1.35198246254625
 6 -3.53655751505151 -1.90290526642664  0.27696362816282
 6  2.06125043714371  2.87446744094409  0.06816443984398
 6 -4.94072676897690 -1.56548551245125  0.47788183208321
 6  5.15510077197720  0.89855477237724 -0.43397235593559
 6 -2.60986580228023 -1.01323987938794 -0.23723019681968
 6 -1.54673433553355 -3.70891064416442 -1.80737105390539
 6 -4.42976264466447 -3.77166139793979  1.33687881348135
 6  2.04115524922492 -4.47748677237724 -1.14058328512851
 6  5.35378418081808 -0.10197832133213  0.76772932013201
 6  4.44485054635464  3.79737258655866  0.53433563386339
 6  1.27302598099810  4.04733928422842  0.26220794139414
 6 -6.90810546114611 -3.59378415821582  0.85452451455146
 6 -5.78545812641264 -0.53280906490649  0.11789895679568
 6 -0.07205512481248  3.96377462726273  0.28297010891089
 6 -1.10921602020202  5.12704023772377  0.46863532903290
 6 -2.27382685638564  4.62025352675268  0.18272417841784
 6  3.01051763376338 -4.10904357455746 -0.00765307610761
 6 -5.45541925142514  0.64273956255626 -0.74384584938494
 6  6.82060193919392 -0.58806427602760  0.82866376457646
 6 -3.62752029492949  5.27007806630663  0.20328483918392
 6 -2.14336388798880  3.16474143514351 -0.16335210501050
 6 -0.79846043714371  6.63557922792279  0.91853090469047
 6 -4.27428699129913  5.55533148984899 -1.01956104760476
 1 -0.47982956785679  0.40643750955096 -0.30116985668567
 1  2.97922528352835 -1.16993513471347 -1.20084017141714
 1  2.62020190149015 -2.57714931153115 -2.21106765386539
 1  1.23650465666567 -3.73172728362836 -3.12758111821182
 1 -5.70302202950295 -2.38769739443944  2.31438197809781
 1  5.25764827732773  0.40628000940094 -1.51274162146215
 1  5.77541610901090  1.85639516761676 -0.24883845844584
 1 -2.78726494419442  0.01987977827783 -0.39532993049305
 1  0.62412964356436  1.60773061696170 -0.58859630513051
 1 -1.51302603840384 -4.69269383988399 -1.00291980178018
 1 -2.63599371037104 -3.41489207560756 -1.95700383348335
 1 -1.11169634953495 -4.25050211901190 -2.73627921722172
 1 -2.29616200250025 -3.55778550925093  0.74203686888689
 1  1.31733256255626 -5.20842354065407 -0.74082947284729
 1  2.50097620202020 -5.17794190109011 -1.79092447434743
 1  4.53679891289129 -1.01591275467547  0.73188292439244
 1  5.15535988138814  0.35965200390039  1.70143794689469
 1  4.37531805740574  4.84690510691069 -0.05236660846085
 1  5.57266035773577  3.51683921712171  0.69215500510051
 1  4.25197222982298  4.08587405950595  1.60433615051505
 1  1.89855063366337  4.98138731613161  0.29073014821482
 1 -7.69067063536354 -2.83070815431543  1.16333760336034
 1 -6.96606066996700 -4.36314269636964  1.39454529492949
 1 -6.77578327532753 -3.72568998509851 -0.05635354695470
 1 -6.81158568086809 -0.44560546904691  0.84734273537354
 1 -4.87502647474748  1.53056787768777 -0.14842210351035
 1 -6.35980435783578  0.96189526452645 -1.21038535463546
 1 -4.40647995999600  0.25773593579358 -1.36210297509751
 1 -3.40082206770677  6.16412081718172  0.73214009050905
 1 -4.36730816901690  4.84269660156016  1.06462248854885
 1 -0.09812895739574  6.47126769216922  1.70465030663066
 1 -1.69347545784578  7.21472492719272  0.98347769946995
 1 -0.02683351535154  6.87032931863186 -0.01685072797280
 1 -3.76791469846985  6.25273289898990 -1.52871707420742
 1 -5.28444115131513  5.94804792089209 -0.87248712591259
 1 -4.40660413731373  4.67159733003300 -1.61756126412641
 1  3.84000240074007 -4.71324753725373  1.38973975637564
 1  7.67724574917492 -1.98294768376838  1.94676205920592

