%nproc=4
%Mem=2GB
# td=(NStates=1) B3LYP/SVP 

TD

0 1
 8 -4.34317582838284 -4.96751112231223  1.78744277267727
 8  3.12765679437944 -4.79100040684068  1.13676781408141
 8  7.10031633593359 -1.56968423812381  1.90396307580758
 8  3.90663572107211 -3.07436546154615 -0.08027136653665
 8  7.55430496709671 -0.82996289138914 -0.23124915761576
 8 -3.06371195729573  2.43897194799480 -0.33536509790979
 7 -0.26879387408741 -0.56886107920792 -0.53825083798380
 7  1.51201969466947  1.80335076757676 -0.31701327892789
 7 -3.30259224822482 -3.17924903790379  0.70333665226523
 7 -0.81197969366937  3.00929207860786 -0.17226107190719
 6  0.65972823712371 -2.42257021542154 -1.37538983408341
 6  0.93823672597260 -1.05229246094609 -0.91967081598160
 6 -0.65197932663266 -2.59323768596860 -1.11122318501850
 6 -1.31017143914391 -1.45973628502850 -0.63630276027603
 6  3.75186364716472  1.48798196469647 -0.24567883468347
 6  2.49132123792379  0.92934475997600 -0.49327351235124
 6  2.27754300450045 -0.47655491339134 -0.73969344394439
 6  3.41772241234123  2.79250905310531  0.08543653395340
 6  1.62814421952195 -3.34777647894790 -1.99623696929693
 6 -5.55007391409141 -2.89136475137514  1.28718598289829
 6 -3.58574243354335 -1.86565154105411  0.20928686048605
 6  2.04750906300630  2.99369936413641  0.04344196759676
 6 -5.10140283658366 -1.58821778567857  0.50336438033803
 6  5.13486874877488  0.84655957285729 -0.27024598329833
 6 -2.61917673337334 -1.05017357275728 -0.34543101690169
 6 -1.34097375947595 -3.77238699179918 -1.71410172697270
 6 -4.38274794319432 -3.89654388618862  1.23043816941694
 6  2.06901803550355 -4.42913193689369 -1.06141536833683
 6  5.47527633003300 -0.11381950545055  0.84358690589059
 6  4.50303636493649  3.85385823512351  0.35914811511151
 6  1.24359303770377  4.07438198849885  0.23267498809881
 6 -6.81115576617662 -3.50980576037604  0.83076213831383
 6 -5.83741332193219 -0.62420820482048  0.03638080498050
 6 -0.15608352765277  4.06485473527353  0.19392120402040
 6 -1.13582868146815  5.19321685538554  0.54364282978298
 6 -2.33365283898390  4.71617311871187  0.29867577357736
 6  3.16628321032103 -4.01262393259326 -0.00187249804980
 6 -5.55345905540554  0.62164745334533 -0.63953541834183
 6  6.84305418441844 -0.79359482908291  0.72062296049605
 6 -3.70098764166417  5.39530058855886  0.29277378807881
 6 -2.19224877647765  3.27002196319632 -0.10049581938194
 6 -0.76357694879488  6.61655732573257  0.85034408600860
 6 -4.29888945154516  5.82579853655366 -1.13142223372337
 1 -0.52707429232923  0.43249011481148 -0.17765750545055
 1  3.05953331433143 -1.14631277247725 -0.85166525392539
 1  2.36478635993599 -2.77886948354836 -2.40336688378838
 1  1.13607461366137 -3.73293740464046 -2.85934429452945
 1 -5.78299002630263 -2.44627325202520  2.25363590349035
 1  5.21256376887689  0.37152653405340 -1.24616496379638
 1  5.81316988438844  1.59138866696670 -0.40071364596460
 1 -2.98442466016602 -0.01177338703870 -0.60999139663966
 1  0.71079831043104  1.69606945084508 -0.58476592209221
 1 -1.20079481528153 -4.80231480198020 -1.29209871967197
 1 -2.57778788978898 -3.81706229262926 -1.67014514761476
 1 -1.10413559345935 -3.97259432823282 -2.83928951825183
 1 -2.38914130043004 -3.46135586628663  0.87539020422042
 1  1.00734156345635 -4.88053075137514 -0.37989337923792
 1  2.67571367576758 -5.36011011791179 -1.52221760366037
 1  4.75633086608661 -0.83995515891589  1.11729146524652
 1  5.45288963436344  0.52634867356736  1.88504630773077
 1  4.47721824742474  4.58406882328233 -0.57288866066607
 1  5.47016010771077  3.33391092429243  0.34711050065007
 1  4.42941997459746  4.54128960106011  1.23000871777178
 1  1.69409018761876  4.96525570297030  0.75518659385939
 1 -7.70387195549555 -2.84656974047405  0.58066933653365
 1 -7.09979404330433 -4.34558094019402  1.49199503990399
 1 -6.61803750075008 -3.97984540064006 -0.22286019761976
 1 -7.01717623992399 -0.80248115661566  0.29743774487449
 1 -5.06048502060206  1.26092091299130 -0.00706796809681
 1 -6.39250762816282  1.11728080308031 -1.07643195929593
 1 -4.81754106610661  0.54589475167517 -1.61793855865587
 1 -3.68605059055906  6.21539594469447  1.01239811631163
 1 -4.48719015721572  4.46748908080808  0.57018304460446
 1  0.01674252975298  6.37550811621162  1.55182502410241
 1 -1.60793690399040  7.27044049874987  1.45585493719372
 1 -0.23756458845885  7.08046033173317  0.10702165926593
 1 -3.57632553955396  6.61741936763676 -1.88171237373737
 1 -5.27230993819382  6.29677279337934 -1.14497437463746
 1 -4.23205668256826  4.97946811711171 -1.90705021302130
 1  3.98478687918792 -4.43795000750075  1.68920970337034
 1  7.98658668326833 -2.01608099709971  1.74427181018102

