%nproc=4
%Mem=2GB
# td=(NStates=1) B3LYP/SVP 

TD

0 1
 8 -4.28580009080908 -4.77063143434343  1.99072310071007
 8  2.92849687838784 -4.83851515831583  1.18892302960296
 8  6.99531583588359 -1.53868113781378  1.78345102460246
 8  3.85234029152915 -3.12306033103310 -0.09608294769477
 8  7.56717625422542 -0.36044593969397 -0.07876390909091
 8 -3.10104569066907  2.34807285808581 -0.37017857925793
 7 -0.20605760046005 -0.48437263036304 -0.69548656155616
 7  1.54623311601160  1.80419085158516 -0.34500607820782
 7 -3.28422041104110 -3.06269738273827  0.76066238483848
 7 -0.86391488718872  2.77970912031203  0.04935108930893
 6  0.67445971027103 -2.41980993939394 -1.43779607470747
 6  1.02166506880688 -1.08215544724472 -1.00265911481148
 6 -0.71100522922292 -2.70954931713171 -1.22023408610861
 6 -1.22034245624562 -1.42509282068207 -0.67786691669167
 6  3.79670813161316  1.51014418091809 -0.34998926572657
 6  2.46786889268927  0.85122694819482 -0.52973715871587
 6  2.29622487268727 -0.39988724662466 -0.90258973357336
 6  3.61465210531053  2.78724852705270  0.15912390269027
 6  1.67073847894789 -3.32776447774777 -1.99951729732973
 6 -5.52597150385039 -2.74612022692269  1.24640190449045
 6 -3.56392025132513 -1.80071504740474  0.16349228102810
 6  2.16562087418742  2.95816581078108  0.15810343374337
 6 -5.06989968626863 -1.61019998389839  0.41436548044804
 6  5.10226548844884  0.92739765666567 -0.42867182588259
 6 -2.64000881658166 -1.00172872827283 -0.36147262106211
 6 -1.56236589868987 -3.86869662276228 -1.68747906470647
 6 -4.35442511091109 -3.73693792559256  1.40723584918492
 6  2.08081921562156 -4.39282830653065 -1.04512373917392
 6  5.35653445584558 -0.12933105660566  0.74634718191819
 6  4.46672273357336  3.88769161846185  0.40045224552455
 6  1.27018569696970  4.06478102840284  0.37651937253725
 6 -6.75109976057606 -3.44782956275628  0.74706376847685
 6 -5.89019860046005 -0.67858364236424 -0.05667850095009
 6 -0.20766868616862  3.94407265706571  0.35154696659666
 6 -1.07427252585259  5.13733126682668  0.51175964146415
 6 -2.26267574127413  4.62180368176818  0.22951885788579
 6  2.95193177517752 -4.03997666786679  0.03270095929593
 6 -5.50030373987399  0.59711500010001 -0.88007947274727
 6  6.79321920092009 -0.68870434003400  0.76865776397640
 6 -3.69392693559356  5.33878493699370  0.25348985968597
 6 -2.20533008460846  3.10191515251525 -0.00169593939394
 6 -0.53243383448345  6.48438410841084  0.94584363596360
 6 -4.25354491709171  5.54326028272827 -1.06228532003200
 1 -0.29485107000700  0.40592745854585 -0.25063480318032
 1  3.06078343934393 -1.02569071027103 -1.27661774917492
 1  2.63032291359136 -2.88993058965897 -2.31934848194819
 1  1.16638764496450 -3.86858096899690 -2.79454781488149
 1 -5.79548127542754 -2.31112973767377  2.45998653855386
 1  5.30387289978998  0.41255063646365 -1.52776312361236
 1  6.03150171757176  1.64340386848685 -0.09213278787879
 1 -2.90086630433043  0.01766955725573 -0.58282868036804
 1  0.71398862946295  1.72416226012601 -0.84573201870187
 1 -1.49577431323132 -4.70381495199520 -1.09781929172917
 1 -2.67263737473747 -3.68972955935594 -1.87225535863586
 1 -0.96551173107311 -4.35652272107211 -2.48565415471547
 1 -2.19795218151815 -3.22461219191919  0.97708037323732
 1  1.12942377167717 -5.18253095139514 -0.55298068796880
 1  2.74998110251025 -5.32090619751975 -1.43751913381338
 1  4.58955418841884 -1.03588475187519  0.91517125322532
 1  5.16114045944594  0.46297233593359  1.62698050115012
 1  4.39006953255326  4.73926434283428 -0.25277664946495
 1  5.52507559925993  3.35727326052605  0.43768955855586
 1  4.60916794939494  4.16752222432243  1.48212392929293
 1  1.79693047164716  4.99140831823182  0.70844191939194
 1 -7.69708127642764 -2.71357644114411  0.75050632023202
 1 -7.14262832673267 -4.23789017111711  1.54778061846185
 1 -6.75018071507151 -3.86761417751775 -0.31679959155916
 1 -6.96421094339434 -0.61901280978098  0.34275227632763
 1 -5.37481645374537  1.48591341224122 -0.12206946824682
 1 -6.45504388178818  0.85761483648365 -1.36621093719372
 1 -4.86839615161516  0.51935209740974 -1.62672943774377
 1 -3.82629461496150  6.32274667976798  1.02444932143214
 1 -4.42167360556056  4.58091042294229  0.96494252055206
 1 -0.00658980348035  6.28644921032103  1.98937877947795
 1 -1.45793190349035  7.12290574527453  1.00827017871787
 1 -0.01933276527653  7.04555684138414  0.21935289238924
 1 -3.64029193619362  6.20011763746375 -1.81146534903490
 1 -5.36892960016002  5.88673178927893 -0.94922479967997
 1 -4.33619709660966  4.53944411471147 -1.50628013601360
 1  3.32318071857186 -4.19376558905891  1.91759254165416
 1  7.90379840444044 -1.98153754275428  1.69356673967397

