%nproc=4
%Mem=2GB
# td=(NStates=1) B3LYP/SVP 

TD

0 1
 8 -4.30234174497450 -4.94403877507751  1.79364339273927
 8  3.11433546224622 -5.02381368816882  0.92514665196520
 8  6.65942224652465 -1.75273254295430  1.93017569706971
 8  3.73708876637664 -3.09539756475648 -0.15379871927193
 8  7.63045258185819 -0.40051994709471  0.35319928722872
 8 -2.98799438553855  2.38737678847885 -0.39992155355536
 7 -0.31220821552155 -0.43834802790279 -0.68002501540154
 7  1.54689318201820  1.93655408790879 -0.45201677927793
 7 -3.22234422342234 -3.16780789378938  0.81327764636464
 7 -0.80860935663566  2.91757290669067 -0.07823166896690
 6  0.65502776707671 -2.29163712211221 -1.50617291239124
 6  0.97699060136014 -0.95044227592759 -1.11757060596060
 6 -0.74396852555256 -2.60828919111911 -1.27704976767677
 6 -1.32389281128113 -1.41448175957596 -0.78164729472947
 6  3.72264072487249  1.53171633813381 -0.30919518631863
 6  2.45124723052305  0.95860768626863 -0.65725991099110
 6  2.22509775997600 -0.36446370427043 -0.98174764936494
 6  3.56729736983698  2.86849665186519  0.05248323862386
 6  1.60345175027503 -3.28039974127413 -2.16761410701070
 6 -5.37878678537854 -2.80567618251825  1.49544680898090
 6 -3.45275913521352 -1.84228920482048  0.25775170697070
 6  2.12581689378938  3.07357735193519  0.02036966036604
 6 -4.81963465976598 -1.50049901380138  0.61033507740774
 6  5.04748000990099  0.82434735163516 -0.38555751445145
 6 -2.64360917661766 -1.05303385878588 -0.36456293009301
 6 -1.47506716881688 -3.89777953105311 -1.68607892469247
 6 -4.25119478787879 -3.81424565636564  1.36382150775077
 6  1.96984811851185 -4.51622064576458 -1.20864009080908
 6  5.19518832123212 -0.18233635713571  0.88630117731773
 6  4.55161122242224  3.84616746604660  0.54795699599960
 6  1.23586226462646  4.11267581788179  0.37469919051905
 6 -6.68269291989199 -3.48863364316432  1.03273233533353
 6 -5.69136871747175 -0.54344012801280  0.26279344624462
 6 -0.14192211151115  4.01694994479448  0.24868668056806
 6 -1.05199029762976  5.22905043874387  0.35345381088109
 6 -2.36758623232323  4.63560506190619  0.09513541954195
 6  3.06823340534053 -4.06870954115412 -0.08205051585159
 6 -5.46709041854185  0.53895918451845 -0.64939640444044
 6  6.58113799279928 -0.81170664026403  1.01845274347435
 6 -3.71024856775678  5.32789384788479  0.19038354905491
 6 -2.15891544314431  3.18806376737674 -0.15815158495850
 6 -0.59344993609361  6.56366203620362  0.85776482808281
 6 -4.26447601020102  5.50482643934393 -1.07488658015802
 1 -0.68025961086109  0.49245611141114 -0.42080181988199
 1  3.06334369536954 -0.92980112131213 -1.01686177357736
 1  2.56974685598560 -2.69532112871287 -2.36038258535854
 1  1.15085609180918 -3.56460057095710 -3.13684204430443
 1 -5.33451517881788 -2.42067069176918  2.62533307320732
 1  5.29357186968697  0.22072145354535 -1.04528487578758
 1  5.95923449084908  1.32928245634563 -0.29519309390939
 1 -2.89837605530553  0.02989077937794 -0.29079947744774
 1  0.62267949854985  2.00571041494149 -0.43942138763876
 1 -1.28781351715171 -4.54905947644764 -0.74664417421742
 1 -2.60885099609961 -3.79340992739274 -1.80018815191519
 1 -1.15360053995400 -4.44141120992099 -2.52423801310131
 1 -2.30903328962896 -3.66222595329533  0.84843750895089
 1  1.15141597089709 -5.27224992329233 -0.74302969286929
 1  2.56944304870487 -5.38434254115412 -1.75790117201720
 1  4.41540677367737 -1.05333649704970  0.90396013211321
 1  4.96450079547955  0.29471551025103  1.84723252635264
 1  4.63749427502750  4.66645706210621 -0.04534590639064
 1  5.45902899459946  3.50444797799780  0.43375916551655
 1  4.28942597519752  4.58484395649565  1.41864758165817
 1  1.48864964356436  5.20846002340234  0.84387546274627
 1 -7.69029059735974 -2.82111719521952  1.03523479307931
 1 -6.82400646454646 -4.41843822592259  1.68399423982398
 1 -6.67925362236224 -3.69890730683068 -0.09836774837484
 1 -6.75260978327833 -0.75252616111611  0.64145214631463
 1 -5.04888386048605  1.61015583648365 -0.38115537683768
 1 -6.57555593299330  0.67967704270427 -1.02783709980998
 1 -4.93508282028203  0.22734289648965 -1.66439320412041
 1 -3.77272925842584  6.19539394449445  0.81175805230523
 1 -4.21708314651465  4.42446477837784  0.66795282158216
 1  0.12729358485849  6.39356992239224  1.68909875147515
 1 -1.30157626792679  7.29069252395240  1.09406875857586
 1 -0.09885071707171  7.04094638033803  0.02303326042604
 1 -3.70906881388139  6.53459108480848 -1.50416461896190
 1 -5.35929863706371  5.74218733483348 -1.12648252545255
 1 -4.29894337123712  4.50175034533453 -1.76518602660266
 1  3.97348574907491 -4.82428864136414  1.54753553595360
 1  7.73820184478448 -2.00819020802080  2.21761914491449

