%nproc=4
%Mem=2GB
# td=(NStates=1) B3LYP/SVP 

TD

0 1
 8 -3.98846035683568 -4.98094246544655  1.59272330073007
 8  2.93985801450145 -5.01693300010001  1.05421955925593
 8  6.97095339963996 -1.37198446814681  2.02566524602460
 8  3.72675773327333 -3.21284930993099  0.03740040064006
 8  7.57120665726573 -0.52564245934593  0.05121908920892
 8 -3.12981856795680  2.35695374617462 -0.29533109450945
 7 -0.22431942664266 -0.53487768086809 -0.57949496239624
 7  1.53541203390339  1.79137957045705 -0.53471504910491
 7 -3.13561555055506 -2.99880099309931  0.62164848344834
 7 -0.85922441814181  2.91457260666067 -0.10948479427943
 6  0.62655491979198 -2.39438739713971 -1.51284357945795
 6  0.90661356365637 -1.08742597429743 -0.92364121302130
 6 -0.81999612831283 -2.46406476867687 -1.27728979167917
 6 -1.33830425242524 -1.35492580398040 -0.78302743274327
 6  3.80073853465347  1.45971913841384 -0.32366663346335
 6  2.46807891369137  0.81426325182518 -0.59145333033303
 6  2.24311956215622 -0.54683194109411 -0.83101257585759
 6  3.45349598969897  2.83274307650765  0.05678366866687
 6  1.61503290839084 -3.43965566686669 -2.00968831443144
 6 -5.36455536223622 -2.81392700760076  1.38281554585459
 6 -3.49206306560656 -1.65400037593759  0.23716964876488
 6  2.16719103120312  3.00032002620262 -0.14597697429743
 6 -4.88661135743574 -1.56940590449045  0.67978202210221
 6  5.14943020492049  0.79983490039004 -0.35411437013701
 6 -2.63777859355936 -0.94820337573757 -0.35603207700770
 6 -1.73298296039604 -3.54215396849685 -1.91470178697870
 6 -4.17001667006701 -3.78686291809181  1.25692081768177
 6  1.95628676237624 -4.49035805950595 -1.11967119391939
 6  5.37144594699470 -0.16546466996700  0.84027657485749
 6  4.35952201350135  3.91311416071607  0.55138733903390
 6  1.30295897429743  4.12989754005401  0.32870459105911
 6 -6.68771342194219 -3.42194697449745  0.81144020612061
 6 -5.73450303090309 -0.47658344234423  0.41136830373037
 6 -0.15433335263526  3.98523677347735  0.22672448434843
 6 -1.14820991959196  5.13975150885089  0.39235770127013
 6 -2.37306678037804  4.66494799619962  0.19743564956496
 6  2.96226280828083 -4.04638730893089  0.01810950015002
 6 -5.45838954845485  0.65098038663866 -0.49334079887989
 6  6.76680655965597 -0.70538600820082  0.97832873107311
 6 -3.82533007590759  5.22508356685669  0.29089360006001
 6 -2.14582413401340  3.13002796379638 -0.12839860966097
 6 -0.63745433653365  6.48968463846385  0.81974102570257
 6 -4.23279284188419  5.37168312501250 -1.16173526502650
 1 -0.32178376327633  0.09858672447245  0.16701696199620
 1  3.11393875487549 -1.24131227242724 -1.19693978137814
 1  2.57289717101710 -2.91742333893389 -2.50246679377938
 1  1.13974498069807 -3.92630674157416 -2.90580894099410
 1 -5.36522825012501 -2.34962358705871  2.52074261416142
 1  5.39892240474047  0.08757813921392 -1.19493984128413
 1  5.78789735713571  1.55534506260626 -0.29493306790679
 1 -2.95029124682468  0.13604139443944 -0.58478887638764
 1  0.45199242984298  1.88464830873087 -0.78890633613361
 1 -1.89283401920192 -4.39974454495450 -1.08336784658466
 1 -2.70755086608661 -3.26657724412441 -2.08277641074107
 1 -1.42582776267627 -3.97064413321332 -2.62487807710771
 1 -2.06891927822782 -3.37810754145415  0.82363502870287
 1  1.01604243354335 -4.95583828212821 -0.56875226512651
 1  2.44726083048305 -5.35999010591059 -1.63813919581958
 1  4.78399363236324 -1.11513267666767  0.87027676377638
 1  5.15136948234823  0.44887092579258  1.71075887898790
 1  4.25279580518052  4.77287770417042 -0.24219559135914
 1  5.42625571727173  3.55262279547955  0.54126991659166
 1  3.99066609920992  4.32425789788979  1.45084080098010
 1  1.89981075967597  4.89377855525553  0.75739681488149
 1 -7.46107767606761 -2.57435251875187  0.83379464906491
 1 -7.23993805770577 -4.45292167426743  1.30565640604060
 1 -6.25189088608861 -3.59316673277328 -0.23431134273427
 1 -6.87307182948295 -0.45477638613861  0.74535253635364
 1 -4.96479545164517  1.54041886278628 -0.01318858015802
 1 -6.32920129752975  1.12877195219522 -0.91049536563656
 1 -4.73550286228623  0.29308947114712 -1.23306007080708
 1 -3.62680466596660  6.17570197529753  0.84976185268527
 1 -4.37086852505251  4.25304763666367  0.85444147044704
 1  0.04211506700670  6.44489505490549  1.77152699429943
 1 -1.40613672397240  7.11982543724372  1.02055140684068
 1  0.14349351735174  7.02419470517052  0.26117707480748
 1 -3.51667957495750  5.96796442214221 -1.94904910741074
 1 -5.08248095529553  5.91179429552955 -1.32848272547255
 1 -4.29288276517652  4.51997216751675 -1.79392890089009
 1  3.44325272577258 -4.68783499599960  1.85257604000400
 1  7.81230925552555 -1.51156054505451  1.84107149014901

