%nproc=4
%Mem=2GB
# td=(NStates=1) B3LYP/SVP 

TD

0 1
 8 -4.25855736653665 -4.87190156135614  1.93439746814681
 8  2.95256928562856 -4.92485379217922  1.04206834413441
 8  7.07102340664066 -1.65034230393039  1.82507518701870
 8  3.92189724722472 -3.17299532453245 -0.15486882628263
 8  7.53536307290729 -0.64622451755175 -0.11274730743074
 8 -3.05994158025803  2.40111816261626 -0.51465302670267
 7 -0.27738473317332 -0.50657485058506 -0.71969898279828
 7  1.57099559225923  1.76384681718172 -0.39027060466047
 7 -3.30129211821182 -3.04605571857186  0.76054237283728
 7 -0.78628712441244  2.90185133453345 -0.05164901070107
 6  0.68731099539954 -2.36439439783978 -1.45231752685269
 6  0.93029593189319 -1.02908013971397 -1.06777562646265
 6 -0.67773190189019 -2.51500986318632 -1.21237330003000
 6 -1.18849927192719 -1.35550586198620 -0.66569569956996
 6  3.83100156095610  1.56362952945295 -0.35055932273227
 6  2.51085319111911  0.97832965846585 -0.64637882288229
 6  2.21732698289829 -0.40359761766177 -0.89104857945795
 6  3.49770041014101  2.81044084628463  0.13352134243424
 6  1.59228063316332 -3.37873957525753 -1.92714005960596
 6 -5.54746365306531 -2.72467808270827  1.37968523282328
 6 -3.57015087438744 -1.75332030793079  0.19759569136914
 6  2.02441675377538  2.91816181038104  0.06598422182218
 6 -4.95392808910891 -1.54548351225123  0.43529757365737
 6  5.19381464336434  0.83155807270727 -0.27395635433543
 6 -2.60063487918792 -0.94317287268727 -0.35697217101710
 6 -1.44072373447345 -3.74317407050705 -1.57506782358236
 6 -4.32249191759176 -3.72638687048705  1.41992711831183
 6  2.21580271397140 -4.55356438013801 -1.18896812361236
 6  5.37918672107211 -0.12666078957896  0.97700024722472
 6  4.40264632593259  3.95857870717072  0.62656485678568
 6  1.26463514191419  4.11979652995300  0.34064578517852
 6 -6.83856850745074 -3.52437721752175  0.97519658175818
 6 -5.81430101070107 -0.52695847984798  0.08712587948795
 6 -0.14863278257826  4.08278652845285  0.29303111501150
 6 -1.17851294989499  5.10327786148615  0.50130859635964
 6 -2.45021449514951  4.57885938733873  0.28229413541354
 6  3.13048963096310 -4.11762443264326 -0.08595090589059
 6 -5.41211492099210  0.58603389198920 -0.84484594939494
 6  6.76387626662666 -0.81293676327633  0.80663156135614
 6 -3.74091163406341  5.39970102860286  0.22807731843184
 6 -2.24979453105311  3.18373333433343 -0.08361413121312
 6 -0.77866845794579  6.44753042304230  0.91099015061506
 6 -4.34463402600260  5.43109906660666 -1.18429752125213
 1 -0.32452403730373  0.29006587238724 -0.22857259695970
 1  3.10694805580558 -1.06736487768777 -1.17179726712671
 1  2.56621650295029 -2.82069366596660 -2.28671521862186
 1  0.87121812801280 -3.65489960086009 -2.80300866096610
 1 -5.56237796509651 -2.46492511721172  2.49250979087909
 1  5.12028454095410  0.26766614801480 -1.09514986228623
 1  5.83812237963796  1.64738426652665 -0.37486106070607
 1 -2.78161437913791  0.23202099239924 -0.35505590309031
 1  0.45673290389039  1.84701454535454 -0.58264571007101
 1 -1.73220795659566 -4.56212078257826 -0.63050256005601
 1 -2.37674778577858 -3.52126271267127 -2.02512064516452
 1 -0.77659283918392 -4.39161623042304 -2.26967255655566
 1 -2.27383977027703 -3.45797552825283  1.01507417261726
 1  1.53055388468847 -5.29619231753175 -0.82766815671567
 1  2.92624872927293 -4.88846295319532 -2.19194457635763
 1  4.63872910591059 -0.99699086248625  1.17490722682268
 1  5.42267661306131  0.43553959265927  2.15218302140214
 1  4.16610713631363  4.89985040144014  0.30187881608161
 1  5.40658375007501  3.63134066726673  0.80258604820482
 1  4.11057809040904  4.07442291439144  1.69677539443944
 1  1.83569434803480  5.04686386378638  0.48673974917492
 1 -7.72411397969797 -2.87837292079208  1.11799306890689
 1 -7.03871793569357 -4.34771115321532  1.75970181058106
 1 -6.70285598259826 -3.82493991009101 -0.21229914151415
 1 -6.97241176347635 -0.57670857935794  0.42236023712371
 1 -5.01064003610361  1.43776859775978 -0.47205446674668
 1 -6.20841921932193  1.01558063306331 -1.27568188428843
 1 -4.73072238423842  0.19313947614761 -1.68521528632863
 1 -3.44060604610461  6.33447785288529  0.70469734623462
 1 -4.46382782098210  4.85378771067107  0.84198022432243
 1 -0.37939708420842  6.46799736513651  1.93391323292329
 1 -1.52787889818982  7.22659611431143  0.88153750545054
 1  0.16401556955696  6.76069835553555  0.25194615171517
 1 -3.55712361936194  5.96325395109511 -1.89241344384438
 1 -5.34569727692769  5.92375549164917 -1.24412428962896
 1 -4.44101757865787  4.39510968126813 -1.57341684968497
 1  3.70778917941794 -4.58285449794979  1.62061284368437
 1  7.79238726332633 -2.25855524452445  1.68806618961896

