%nproc=4
%Mem=2GB
# td=(NStates=1) B3LYP/SVP 

TD

0 1
 8 -4.21802331313131 -4.83749812101210  1.89397342574257
 8  2.65799982868287 -4.87267857465747  1.14570870817082
 8  6.93335964026403 -1.57061433113311  1.80349302880288
 8  3.77227228472847 -3.25628365336534 -0.10162350175018
 8  7.40797033363336 -0.66637653275328 -0.18827486018602
 8 -2.98654424052405  2.33371142194219 -0.32883444484448
 7 -0.29992698739874 -0.47556174927493 -0.74450146304630
 7  1.55008350105010  1.91114154665467 -0.42031360896090
 7 -3.22833482248225 -3.16466757975798  0.70965728432843
 7 -0.74174266996700  2.95226637603760 -0.10704455025503
 6  0.69964222852285 -2.45805376377638 -1.45128742384238
 6  0.95173807610761 -1.05091232293229 -0.95611446034603
 6 -0.61001513021302 -2.67899626182618 -1.36832889558956
 6 -1.26605702770277 -1.46626693809381 -0.70989011901190
 6  3.80610907170717  1.55141830833083 -0.26058032483248
 6  2.45209731553155  0.91864368986899 -0.46114029902990
 6  2.25280053025303 -0.34613187108711 -0.90238971357136
 6  3.53396403650365  2.88008781098110  0.06186417671767
 6  1.73684508960896 -3.37865956725673 -2.00842818841884
 6 -5.45676458315832 -2.80265588048805  1.36087335163516
 6 -3.50708456775678 -1.94047902380238  0.22691862366237
 6  2.10346465856586  3.20198019221922  0.08336595999600
 6 -4.90249294559456 -1.63731269516952  0.58169221312131
 6  5.10598586048605  0.73725864276428 -0.36271523022302
 6 -2.58382319801980 -1.00983953935394 -0.39391586538654
 6 -1.48573823592359 -3.81161091419142 -1.88422873967397
 6 -4.26733640204020 -3.75561979377938  1.40349547514751
 6  1.97485861956196 -4.48908793249325 -1.09389861666167
 6  5.37377618001800  0.05525740224022  0.93646619381938
 6  4.54688074937494  3.88136098539854  0.69968216851685
 6  1.24527320572057  4.23487803810381  0.33325504610461
 6 -6.69854450505051 -3.43656843664366  0.94363342544254
 6 -5.61959153975398 -0.59567535153515  0.19519668656866
 6 -0.18464638393839  4.06148439823982  0.28399021092109
 6 -1.15073017161716  5.17870540424042  0.43852231773177
 6 -2.34353382708271  4.65369687108711  0.25641154715472
 6  2.78713529552955 -4.08433110331033  0.03281097029703
 6 -5.22455616511651  0.45382067066707 -0.80889235403540
 6  6.73021290029003 -0.74286975657566  0.82477337553755
 6 -3.73839138203820  5.25281634013401  0.29230374107411
 6 -2.09999955155516  3.22195715671567 -0.16383215301530
 6 -0.75666625772577  6.49467513751375  0.91934098569857
 6 -4.31648121072107  5.49277523422342 -1.15777486898690
 1 -0.50204178907891  0.47288415421542 -0.25860560026003
 1  3.19440680168017 -0.94262240344034 -1.24801488888889
 1  2.70538041934193 -2.96814841144114 -2.13078962606261
 1  1.38014902110211 -3.66003011391139 -3.04080244034403
 1 -5.57918964626463 -2.25707433213321  2.29755029492949
 1  5.19036154865487  0.16052543394339 -1.13852419971997
 1  5.90126869426943  1.55044457255726 -0.61536511111111
 1 -2.86335255295530  0.13356114641464 -0.21780217771777
 1  0.49410664126413  1.92551239513951 -0.60335778127813
 1 -1.55988072387239 -4.62118668916892 -1.21234074387439
 1 -2.44164427542754 -3.36021660806081 -2.11575970907091
 1 -1.25152033193319 -4.14302137093709 -2.72653824312431
 1 -2.26878926522652 -3.67007673837384  0.62115478067807
 1  0.97004783408341 -4.86144884318432 -0.69510490039004
 1  2.57413351775178 -5.30996510341034 -1.59270465236524
 1  4.70058529152915 -0.80667183058306  1.19735947204720
 1  5.61629597499750  0.70519655835584  1.81981978507851
 1  4.44583510911091  5.00395081148115  0.36004463266327
 1  5.69292238393839  3.73254078727873  0.55745153475348
 1  4.04310134273427  4.04520999309931  1.70191590849085
 1  1.79586036463646  5.19480865826583  0.31757283248325
 1 -7.60927249554955 -2.87140222372237  0.98241951155116
 1 -7.00967503140314 -4.41010739283928  1.42656849724973
 1 -6.54926062306231 -3.83323073917392 -0.12399031063106
 1 -6.67582210451045 -0.75806671517152  0.56923492459246
 1 -5.00286925902590  1.40593541444144 -0.17200446174617
 1 -6.17973635103510  0.68393746874687 -1.50864518061806
 1 -4.22153146514651  0.25335549774978 -1.45513227802780
 1 -3.51043302880288  6.16640104520452  0.82879975647565
 1 -4.51252269046905  4.63277560946095  0.92299832613261
 1 -0.00478962346235  6.72785335073507  1.78654849644964
 1 -1.54134024432443  7.27176063076308  1.25833518521852
 1 -0.30345117711771  6.88545083078308  0.05057601470147
 1 -3.64570247724772  6.12887051275128 -2.11151535403540
 1 -5.29832253945395  6.05790890699070 -1.15155503270327
 1 -4.49055253215322  4.54729489978998 -1.47666717471747
 1  3.31102950345035 -4.59267548004800  1.88973975637564
 1  7.77320534513451 -1.93460284928493  1.68574595759576

