%nproc=4
%Mem=2GB
# td=(NStates=1) B3LYP/SVP 

TD

0 1
 8 -4.28505001580158 -4.97023139433943  1.73246727512751
 8  3.19493352205221 -4.86118742554255  1.06342047934793
 8  6.82820912521252 -1.57000427012701  1.91543422292229
 8  3.99261431893189 -3.09995802080208 -0.12116545594559
 8  7.37737727432743 -0.67390728582858 -0.03627966066607
 8 -3.13903949004901  2.57012506330633 -0.43936549794980
 7 -0.36446344104410 -0.53129732283228 -0.59483649654966
 7  1.50390888358836  1.84774520702070 -0.30994257185719
 7 -3.25906789578958 -3.23608472147215  0.66845316391639
 7 -0.84950344604460  2.94507565696570 -0.10768461426143
 6  0.61564382868287 -2.34462242064206 -1.53249554465447
 6  0.82563546584658 -1.06961419311931 -0.94080292919292
 6 -0.71185531423142 -2.73495185738574 -1.31372343504350
 6 -1.25819624162416 -1.52899321072107 -0.75059418941894
 6  3.72346080688069  1.44108727522752 -0.32880714751475
 6  2.42972507830783  0.89348117361736 -0.59955414041404
 6  2.05045029522952 -0.39840709860986 -1.04171364596460
 6  3.46515715581558  2.77914771697170  0.07114510481048
 6  1.71366277137714 -3.24266596789679 -1.98257560316032
 6 -5.49872877957796 -2.83481909680968  1.43407067136714
 6 -3.54410827012701 -1.87923289918992  0.25146107790779
 6  2.06982129422942  3.12601259545955  0.10184780818082
 6 -5.01483417971797 -1.61941090499050  0.60153419731973
 6  5.08030329222922  0.80005492239224 -0.35563452215222
 6 -2.62030684638464 -1.09545810121012 -0.41837831163116
 6 -1.42368203030303 -3.92762251535154 -1.72622293909391
 6 -4.32844251265127 -3.88557278907891  1.32351747734773
 6  2.19186031973197 -4.39660868456846 -0.97338656545655
 6  5.28096689908991 -0.16773489698970  0.94079662686269
 6  4.52020808210821  3.88813166246625  0.39521172147215
 6  1.25305398379838  4.10571512181218  0.41575329592959
 6 -6.86373102370237 -3.45006978677868  0.87555661776178
 6 -5.68416799739974 -0.57480326432643  0.21075824272427
 6 -0.17545546484648  4.11256950675067  0.25538735063506
 6 -0.99930502910291  5.23397093079308  0.54782324782478
 6 -2.34809428312831  4.78010951235124  0.20639654565457
 6  3.29656623862386 -3.98036070627063  0.00288797799780
 6 -5.34528823832383  0.58272356095610 -0.51970343514351
 6  6.55338521752175 -0.83008847844784  0.83154405260526
 6 -3.68133567646765  5.33158421692169  0.15358986968697
 6 -2.11035058665867  3.30709567056706 -0.11212698249825
 6 -0.58034862596260  6.56963263326333  0.97553660526053
 6 -4.11803136573657  5.66953290999100 -1.29047813931393
 1 -0.63287487238724  0.37902476827683 -0.35268500820082
 1  3.12148950995099 -0.91013915511551 -1.24223431083108
 1  2.54706458775878 -2.69966156275628 -2.22400894799480
 1  1.09093009920992 -3.82211632253225 -2.78822718281828
 1 -5.73128485578558 -2.76879550425043  2.57541808170817
 1  5.24213672617262  0.20404978637864 -1.28805915321532
 1  5.77721628902890  1.51882141024102 -0.47371094569457
 1 -2.74982119981998 -0.01854406410641 -0.29784018151815
 1  0.68773600420042  1.88459830373037 -0.31210865636564
 1 -1.28840357615762 -4.91601617211721 -0.96842635243524
 1 -2.61909202020202 -3.73077366376638 -1.60248838193819
 1 -0.90411559145915 -4.37075414421442 -2.68614420372037
 1 -2.42634502080208 -3.65900563126313  1.00860352555255
 1  1.26358718801880 -4.85329802810281 -0.61436682658266
 1  2.66348245264526 -5.17940204710471 -1.65363074497450
 1  4.36647188018802 -0.94225538893889  1.10666040214021
 1  5.14312865826583  0.58458449714971  1.57431523462346
 1  4.41561208680868  4.82981339773977 -0.27901927372737
 1  5.54792788448845  3.28535606880688  0.30023581318132
 1  4.47509454205421  4.11636710881088  1.31449716661666
 1  1.48772955155516  5.18948812621262  0.72908398359836
 1 -7.76626819511951 -2.82869795329533  1.40448171777178
 1 -6.92990705460546 -4.56300268236824  1.26249208960896
 1 -7.20857655465547 -3.48033544964496 -0.49646755835584
 1 -6.86776129842984 -0.69961086958696  0.52386038713871
 1 -4.79907887998800  1.34784960586059  0.36500923962396
 1 -6.09868824622462  1.03148222322232 -1.17310162626263
 1 -4.61700101210121  0.41943210541054 -1.34981174597460
 1 -3.88921090659066  6.26888129322932  0.58122499899990
 1 -4.37525896409641  4.47357968986899  0.62777880418042
 1 -0.23592273677368  6.76573713911391  1.97397723932393
 1 -1.42712882318232  7.35543899859986  0.67185653735374
 1  0.24645381338134  6.97266955265527  0.42916387348735
 1 -3.34716262326233  6.31579920562056 -1.74617882038204
 1 -5.04823753095309  6.08209132523252 -1.09648952615261
 1 -4.30254373127313  4.59703987428743 -1.74478398639864
 1  3.88769717021702 -4.54539075157516  1.56111689408941
 1  7.76465449004900 -1.92272166116612  1.81545892889289

