%nproc=4
%Mem=2GB
# td=(NStates=1) B3LYP/SVP 

TD

0 1
 8 -4.24067557835784 -4.82262663386339  1.90961498989899
 8  2.89477350605061 -4.79449075587559  1.18738287558756
 8  6.94702100640064 -1.61019828952895  1.72129480898090
 8  3.62805786328633 -3.03681170617062 -0.02075541494149
 8  7.60735027162716 -0.61011090619062 -0.10688672137214
 8 -2.99361494759476  2.40635868666867 -0.36482804420442
 7 -0.33654064876488 -0.53672786588659 -0.62162917581758
 7  1.58359685238524  1.82628306080608 -0.33444502210221
 7 -3.28433042204220 -3.10204131713171  0.65072139073907
 7 -0.75528402410241  2.90047119651965  0.07259341354135
 6  0.73253551785179 -2.46514447284728 -1.39845214031403
 6  0.87464036633663 -1.02284951665166 -0.97598644754475
 6 -0.70168429712971 -2.62213057525753 -1.29462152485249
 6 -1.32488291029103 -1.47706801820182 -0.72782191219122
 6  3.73130159095910  1.49414258075808 -0.29523379017902
 6  2.41936404220422  0.86460828632863 -0.47933211821182
 6  2.16524177437744 -0.36153341124112 -0.88033750835083
 6  3.52957359745975  2.91942174437444  0.09930792109211
 6  1.69214061916192 -3.41016271757176 -1.96025337093709
 6 -5.53974288098810 -2.87536315121512  1.36102336663666
 6 -3.56673053235324 -1.81264624052405  0.18730466226623
 6  2.11171548364836  3.09114910911091  0.04959258265827
 6 -5.02911560786079 -1.69839880378038  0.45606965086509
 6  5.14362962486249  0.86770168706871 -0.37517647634763
 6 -2.64696951265127 -0.98038659405941 -0.42890936473647
 6 -1.39902956505651 -3.86954670777078 -1.79761007780778
 6 -4.37903757215722 -3.77125135693569  1.29613473907391
 6  2.14598573227323 -4.47283630733073 -1.00160938773877
 6  5.50566936933693 -0.01209933343334  0.86387893509351
 6  4.51842790409041  3.97209005830583  0.42622482278228
 6  1.31983066146615  4.14443899419942  0.34058577917792
 6 -6.80519517011701 -3.48731351115112  0.86466552865287
 6 -5.85969555015502 -0.55100088408841  0.05946311321132
 6 -0.12817073637364  4.00889913971397  0.34263607550755
 6 -1.05888098669867  5.10435796949695  0.59637810331033
 6 -2.30253972767277  4.58599010041004  0.25682158815882
 6  2.98617519951995 -4.03987665786579  0.12092978217822
 6 -5.48035174467447  0.53535882448245 -0.84570603540354
 6  6.81168104710471 -0.74362983258326  0.68585948414841
 6 -3.69186672957296  5.23100415891589  0.26347085778578
 6 -2.10493004460446  3.17573253425343 -0.14131990179018
 6 -0.66987757885789  6.59851552155216  0.88330738233823
 6 -4.33376293889389  5.48684464116412 -1.08573766526653
 1 -0.62577416231623  0.41858872467247 -0.29215895559556
 1  3.06212357335734 -0.90956909810981 -1.17093718111811
 1  2.60618049934993 -2.90060165676568 -2.44150069716972
 1  1.12609361556156 -3.86988109900990 -2.65865422552255
 1 -5.54507623492349 -2.41116974167417  2.30130066996700
 1  5.27729024152415  0.08514789618962 -1.39925027232723
 1  5.94265283268327  1.76376590469047 -0.29542311691169
 1 -2.71806802450245 -0.02842505220522 -0.86034643214321
 1  0.52679991059106  1.86400624452445 -0.46143358885889
 1 -1.34253898969897 -4.84278884938494 -1.03451296109611
 1 -2.44257436843684 -3.88965955235524 -1.94704283738374
 1 -1.12356753665367 -4.16285335413541 -2.91444703400340
 1 -2.20567295359536 -3.46211594229423  0.76482914811481
 1  1.22375320462046 -4.88733143144314 -0.60514590449045
 1  2.48906501090109 -5.30005411231123 -1.55658104000400
 1  4.74709994299430 -0.80762192559256  0.84573430953095
 1  5.67436178157816  0.53355939463946  1.97642544564456
 1  4.24933545914592  4.98141855825583  0.00288891709171
 1  5.58981207290729  3.52493002620262 -0.23997820822082
 1  5.01418845144514  4.09354482658266  1.57119283618362
 1  1.46154693329333  5.24741391879188  0.62426350155015
 1 -7.70647221552155 -2.78873395689569  0.92038330793079
 1 -6.95520958485849 -4.43374975707571  1.52896873727373
 1 -6.66179187618762 -3.75858327442744 -0.26127403900390
 1 -6.83246776907691 -0.57643855235523  0.50247824892489
 1 -5.09489846194619  1.35526034693469 -0.22975023632363
 1 -6.24998337573757  1.35114418941894 -1.23659797589759
 1 -4.89891920392039  0.27414757695770 -1.73472023682368
 1 -3.73658564406441  6.04828923402340  0.91112798929893
 1 -4.16147758595860  4.31974430633063  0.79176520282028
 1  0.07284814031403  6.61676224162416  1.86393623522352
 1 -1.71872798309831  7.15940939563956  1.03911326302630
 1 -0.00110094209421  7.18777106280628  0.15793675077508
 1 -3.53262116911691  6.12240986668667 -1.71777598009801
 1 -5.16971967916792  5.73068618471847 -1.05870574777478
 1 -4.44961843874388  4.62385255555556 -1.62802231023102
 1  3.46030443094309 -4.61285749824982  1.89239002140214
 1  7.67790581518152 -2.23213260226023  1.52591997499750

