%nproc=4
%Mem=2GB
# td=(NStates=1) B3LYP/SVP 

TD

0 1
 8 -4.21185269606961 -4.82280665186519  1.85620964936494
 8  3.08690271897190 -4.89546085288529  1.00806494379438
 8  6.95591189548955 -1.63694096379638  1.85103778327833
 8  3.81469652715272 -3.17328535353535 -0.14423776317632
 8  7.65340487708771 -0.50256015111511  0.00618458575858
 8 -3.06581216731673  2.38424647544754 -0.38095965736574
 7 -0.29059605430543 -0.53088728182818 -0.64492150505051
 7  1.55587408010801  1.81546197869787 -0.38239981758176
 7 -3.25554754375438 -3.04908602160216  0.74540085868587
 7 -0.83207170287029  2.87154830423042 -0.21446529232923
 6  0.62772503680368 -2.42074003240324 -1.49273156825683
 6  1.00134303660366 -1.02957018871887 -1.05000384928493
 6 -0.75665979467947 -2.67998636083608 -1.18430049274928
 6 -1.36462688468847 -1.46935724712471 -0.76373550355036
 6  3.81864032483248  1.61866503300330 -0.31752601940194
 6  2.53071517731773  0.81306313181318 -0.55083926892689
 6  2.27832308250825 -0.46729398729873 -0.82355182978298
 6  3.50897153725373  2.82803260546055  0.10296828712871
 6  1.55393679877988 -3.41397309860986 -2.00264761036104
 6 -5.47062596929693 -2.72294790969097  1.45201246554655
 6 -3.59980383968397 -1.84291926782678  0.17086301810181
 6  2.03656796889689  3.03672366656666  0.00193781718172
 6 -5.02716541284128 -1.63664262816282  0.52376642054205
 6  5.12060732263226  0.88665358225823 -0.25824478317832
 6 -2.58429324502450 -1.02220077547755 -0.34275074887489
 6 -1.55638530063006 -3.76386613971397 -1.84448476527653
 6 -4.33346301470147 -3.68401263306331  1.41013613921392
 6  2.05899703340334 -4.48346737043704 -1.10606983378338
 6  5.37190599299930 -0.06725484898490  0.95945849304930
 6  4.43838990029003  3.96088893819382  0.49679187948795
 6  1.23817249564956  4.16810136043604  0.31114283488349
 6 -6.78151280188019 -3.48291307110711  0.96691575367537
 6 -5.82126170677068 -0.62435821982198  0.01436860376038
 6 -0.22141006030603  4.00313856365637  0.28245005690569
 6 -1.14347944654465  5.08898643234323  0.57666613211321
 6 -2.35784525822582  4.54737623902390  0.27714362036204
 6  3.02930951295130 -4.08292096229623 -0.00717302810281
 6 -5.34744845434544  0.67980326892689 -0.68886035083508
 6  6.76798667766777 -0.70589605920592  0.80383128132813
 6 -3.69807735063506  5.20780183868387  0.18965347604760
 6 -2.11261081268127  3.16109107010701 -0.09260503030303
 6 -0.73946453755376  6.50639630963096  0.97350640224022
 6 -4.15731529412941  5.58222417911791 -1.22140123162316
 1 -0.45809739463946  0.35453231903190 -0.08485822552255
 1  2.98312567356736 -1.14141228242824 -1.09382947034704
 1  2.41737161846185 -2.97385898249825 -2.23647019411941
 1  1.14604561076108 -3.93499761066107 -2.89010737083708
 1 -5.74518624592459 -2.27070569526953  2.35336587648765
 1  5.31577408990899  0.35562494389439 -1.18025837313731
 1  5.89465803320332  1.71780130823082 -0.29151272587259
 1 -2.73357957565757  0.09480727102710 -0.44274467196720
 1  0.52470970157016  1.83907375127513 -0.45255270077008
 1 -1.60670540634063 -4.54174874537454 -1.26752626242624
 1 -2.72886299729973 -3.62202278867887 -2.05759389248925
 1 -1.23858903880388 -3.96062313111311 -2.87173276257626
 1 -2.42554494079408 -3.52749247994800  0.59980264546455
 1  1.13650447974798 -4.91413411171117 -0.65675106500650
 1  2.48843494789479 -5.33589769666967 -1.63224860676068
 1  4.60267550055006 -0.94641580498050  0.82193192929293
 1  5.17601194659466  0.51881792049205  1.91449925302530
 1  4.29028955455546  4.80411082748275  0.03200182838284
 1  5.51218431013101  3.64011154435444  0.24733052265227
 1  4.38485551815181  4.20675614771477  1.69309502640264
 1  1.75811659025903  5.13256243364336  0.34255533073307
 1 -7.73194476277628 -2.92073715721572  1.20810207980798
 1 -6.95732979687969 -4.48438482058206  1.80831667206721
 1 -6.67247294429443 -3.85780319641964 -0.22796070767077
 1 -6.85852037433743 -0.76485739423942  0.45146314741474
 1 -4.88435740784078  1.46496131703170 -0.08294555585559
 1 -6.07069544694469  1.46324539953995 -1.20763507960796
 1 -4.52236154815481  0.48799896209621 -1.25514227902790
 1 -3.51661364686469  6.16167057215722  0.87463433993399
 1 -4.43502494069407  4.49714204610461  0.54884091039104
 1 -0.38998814331433  6.51220178557856  1.84738458005801
 1 -1.71662777307731  7.15400885558556  0.96090544224422
 1 -0.21903273527353  6.95659794549455  0.12863382048205
 1 -3.43508141514151  6.41065869156916 -1.65166936943694
 1 -5.08444115131513  6.12403551965197 -1.29710958815882
 1 -4.05286876377638  4.57872804310431 -1.82955246324632
 1  3.74211261176118 -4.69532574507451  1.77914869726973
 1  7.86690471507151 -1.97395678467847  2.00048743174317

