%nproc=4
%Mem=2GB
# td=(NStates=1) B3LYP/SVP 

TD

0 1
 8 -4.19072058285829 -4.97237160836084  1.75771980038004
 8  2.99513354205421 -4.82028333513351  1.05213935123512
 8  6.86703300760076 -1.74489175887589  1.87235991549155
 8  3.85355041254125 -3.09656768176818 -0.05649898929893
 8  7.51857139373937 -0.72462235733573  0.05380934823482
 8 -3.02761834793479  2.48432648344835 -0.28476003740374
 7 -0.29315631033103 -0.53071726482648 -0.45467248014801
 7  1.55629412211221  1.82078251075108 -0.30619219681968
 7 -3.30545253425343 -3.17230834383438  0.59167548614861
 7 -0.72843133883388  2.92281343074307  0.06723287748775
 6  0.60295255955596 -2.30456841524152 -1.39110140524052
 6  0.91088399069907 -1.08760599229923 -0.97406625552555
 6 -0.80036416511651 -2.56987534973497 -1.25683774647465
 6 -1.26388681068107 -1.38593890529053 -0.61205033503350
 6  3.87512597339734  1.59729289578958 -0.25181944874487
 6  2.54112621842184  0.93312513801380 -0.53136732173217
 6  2.26216146634663 -0.44046130403040 -0.88638811341134
 6  3.60787142724272  2.85633543574357  0.10554854515452
 6  1.54879628472847 -3.30092179347935 -2.09286663226323
 6 -5.49559846654665 -2.96746236113611  1.26515377967797
 6 -3.62193605290529 -1.97493246914691  0.12953888568857
 6  2.18039235133513  3.05021501570157  0.02162978637864
 6 -4.98468116441644 -1.74821378527853  0.49836388028803
 6  5.14274953685369  0.95391030793079 -0.18134709340934
 6 -2.66301111681168 -1.04847340274027 -0.32813928772877
 6 -1.56858652075208 -3.76516626972697 -1.85928624542454
 6 -4.29952962136214 -3.85737996979698  1.22483760936094
 6  2.03231436513651 -4.46278530223022 -1.11500072687269
 6  5.32624142654265 -0.09413753725373  0.91997454465447
 6  4.53791985328533  4.04262711201120  0.34460666096610
 6  1.28634731313131  4.15484003430343  0.32362408300830
 6 -6.78394304490449 -3.59605438523852  0.96359542164216
 6 -5.73051263186319 -0.56056184018402  0.26268343524352
 6 -0.11978989828983  4.11042929272927  0.21402321422142
 6 -1.05962106070607  5.21524905860586  0.39483794929493
 6 -2.27989746344634  4.71181268266827  0.21702760876088
 6  3.08916549854986 -3.96078874907491 -0.00511282208221
 6 -5.49802351185119  0.60357564616462 -0.59913137793779
 6  6.66924680368037 -0.89166463606361  0.81442234043404
 6 -3.66713425632563  5.39755081358136  0.25889039973997
 6 -2.07708726032603  3.25011997299730 -0.09363513331333
 6 -0.63636422752275  6.63042871287129  0.51298034963496
 6 -4.43872343494349  5.42208816551655 -1.11185027652765
 1 -0.63133471837184  0.35562242804280 -0.18430817051705
 1  3.01170853185319 -1.09777791899190 -1.18433852125213
 1  2.49401928322832 -2.75186678327833 -2.20959750685069
 1  1.20616162236224 -3.73467757865787 -3.08302666276628
 1 -5.57604933223322 -2.56139476417642  2.35373591349135
 1  5.34468698119812  0.33500288168817 -1.07226757405741
 1  5.88561712911291  1.63393292139214 -0.40500407500750
 1 -2.85089130683068  0.01643943424342 -0.46322672017202
 1  0.57061429202920  1.74890473437344 -0.16162360786079
 1 -1.90981571737174 -4.63571814231423 -0.98044755455546
 1 -2.40045015601560 -3.15435602200220 -2.20577871097110
 1 -0.87345252515251 -4.13490055885589 -2.61852744204420
 1 -2.39956234253425 -3.43706343704370  0.43862652785278
 1  1.23842467176718 -5.06893959225923 -0.58757414731473
 1  2.57440354475448 -5.43396750365037 -1.85106048794879
 1  4.64329956295629 -0.95187635103510  0.96909664576458
 1  5.16378072347235  0.38316435513551  1.92693049614961
 1  4.17853837943794  4.88642905930593 -0.39403077487749
 1  5.45026811851185  3.78125565876588 -0.09167337773777
 1  4.62410944354435  4.48205367746775  1.34786050295030
 1  1.89806058465847  5.13526270367037  0.80072114731473
 1 -7.62391395969597 -2.79773485698570  1.18755002460246
 1 -7.04964902880288 -4.41343772587259  1.71391723212321
 1 -6.75757145414542 -4.05873328942894 -0.07450536213621
 1 -6.78434295659566 -0.59011992049205  0.77250525162516
 1 -4.96818579067907  1.42271709260926  0.04691743044304
 1 -6.62846122352235  0.75850492549255 -0.96092040814081
 1 -4.98139745174517  0.43325348754875 -1.50680744554455
 1 -3.74609659515952  6.41226563166317  0.88212508900890
 1 -4.30142158035804  4.80679301120112  1.03264929122912
 1  0.11444229972997  6.80984154955495  1.39231907350735
 1 -1.53341945224522  7.36095955065506  0.76250560226023
 1 -0.35140597259726  7.15439772547255 -0.36953599649965
 1 -3.93167107410741  5.85642326802680 -1.89477367986799
 1 -5.39646235343534  5.90308342444245 -1.13743362056206
 1 -4.69702317921792  4.42905307560756 -1.54607411541154
 1  3.75815421592159 -4.60235644814481  1.65973675607561
 1  7.80198822342234 -1.97242663166317  1.73381076407641

