%nproc=4
%Mem=2GB
# td=(NStates=1) B3LYP/SVP 

TD

0 1
 8 -4.33435494629463 -4.87278164936494  1.87456148454845
 8  2.82860688938894 -4.95501680848085  1.11323546084608
 8  7.10527683198320 -1.25449271897190  2.02776545604560
 8  3.72699775727573 -3.20058808380838  0.03386004660466
 8  7.56558609520952 -0.46884677977798 -0.03279931263126
 8 -2.95065065116512  2.33086113691369 -0.21047260866087
 7 -0.21069806450645 -0.50232442554255 -0.65145215811581
 7  1.61608010071007  1.91025145764576 -0.36483806140614
 7 -3.28983097209721 -3.14214532753275  0.67265358395840
 7 -0.75567406310631  2.85201635103510 -0.06387023282328
 6  0.69142140644064 -2.36291424982498 -1.44873716881688
 6  0.98349125142514 -1.02125935763576 -0.97110595949595
 6 -0.69748387708771 -2.68020638283828 -1.23130519321932
 6 -1.25636605860586 -1.47400771217122 -0.77436656665667
 6  3.74168262906291  1.52545571207121 -0.23641790859086
 6  2.45687779357936  0.90981280678068 -0.54531871687169
 6  2.19561481168117 -0.44268152605261 -0.89116859145915
 6  3.48159879998000  2.85886568876888 -0.00830283998400
 6  1.68125953105311 -3.40489219051905 -2.07423476907691
 6 -5.60998990569057 -2.74852046694669  1.28039530383038
 6 -3.60512437173717 -1.85451042694269  0.17120305210521
 6  2.18711302340234  3.05270526472647 -0.02618499509951
 6 -4.91410410671067 -1.54880384428443  0.41936598049805
 6  5.12010727262726  0.79062397929793 -0.41115007370737
 6 -2.56797161286129 -1.01803035843584 -0.31322779657966
 6 -1.44709437153715 -3.80654040714071 -1.91127144394439
 6 -4.37075674407441 -3.75358959075908  1.29468459405941
 6  2.03186432013201 -4.57201622532253 -1.06011523832383
 6  5.36783558595860 -0.16250437393739  0.80158270547055
 6  4.45796185748575  3.95198804810481  0.29201140144014
 6  1.31313999239924  4.05717026732673  0.33139486008601
 6 -6.97440209080908 -3.33905868566857  0.92561162326233
 6 -5.76401598219822 -0.45064084808481  0.14636180308031
 6 -0.13289120842084  3.96021427122712  0.20692250415042
 6 -1.10529562816282  5.05877341104110  0.50940940644064
 6 -2.30947042074207  4.57149865126513  0.17330323632363
 6  2.95017159915992 -4.06139881008101  0.02702039123912
 6 -5.47424113361336  0.52151744034403 -0.82140360516052
 6  6.84912479147915 -0.57839330893089  0.90406130433043
 6 -3.71648919181918  5.19710076857686  0.46470098079808
 6 -2.10939049064906  3.18365332633263 -0.09140491029103
 6 -0.63590418151815  6.48397406740674  0.89743879547955
 6 -4.41140070267027  5.45140109680968 -0.91618070957096
 1 -0.17617920282028  0.36946381218122 -0.01885162486249
 1  3.10859822082208 -1.11114925612561 -0.88223831123112
 1  2.68587846914691 -2.81517311391139 -2.31862840994099
 1  1.27035804200420 -3.67259137003700 -3.00443880398040
 1 -5.62794452175218 -2.22005062976298  2.26235677557756
 1  5.20360287278728  0.28904828622862 -1.53180352765277
 1  5.99629819721972  1.52083161126113 -0.83667724232423
 1 -2.70682690039004  0.13848163846385 -0.26588698619862
 1  0.64520175077508  1.93270311421142 -0.51059850535054
 1 -1.91251598739874 -4.84496906740674 -1.19616912671267
 1 -2.46393650465047 -3.55545613201320 -2.44917305040504
 1 -0.85045022492249 -4.25764283308331 -2.77341293059306
 1 -2.35600798709871 -3.41048077877788  0.83368603380338
 1  1.02830365966597 -5.18409110741074 -0.65277066696670
 1  2.72713881828183 -5.17671177807781 -1.70637601950195
 1  4.70781601460146 -0.89553071647165  0.62580231633163
 1  5.15699004440444  0.20656669536954  1.85036283938394
 1  4.02773329892989  5.05717613401340 -0.28801017281728
 1  5.54587767946795  3.67991552475247 -0.19502371277128
 1  4.32624965756576  4.02504797689769  1.37802351925193
 1  1.81232201080108  4.97091626902690  0.58882995819582
 1 -7.78600016831683 -2.62539762326233  1.15761703130313
 1 -7.11764582848285 -4.12164854695469  1.76539237963796
 1 -7.09469516651665 -3.52104952105211 -0.21574948654865
 1 -6.73425794809481 -0.70912182068207  0.29257725882588
 1 -4.91211018311831  1.40069489038904 -0.54480174147415
 1 -6.34926330373037  0.80995007000700 -1.34763908000800
 1 -4.63415272727273 -0.05066490429043 -1.44350111491149
 1 -3.45495748124812  6.10053445854586  1.07359423592359
 1 -4.20942238043804  4.41015334723472  0.82360838713871
 1 -0.07461660616062  6.52409297469747  1.77230707230723
 1 -1.24692080238024  7.31056451115111  0.84611396309631
 1  0.21797096509651  6.68824110981098  0.10270122722272
 1 -3.89024693169317  6.31630925662566 -1.46144034653465
 1 -5.54189689688969  5.76658977507751 -0.66846672387239
 1 -4.53378685558556  4.52424259455946 -1.50203971197120
 1  3.62335073557356 -4.78591480398040  1.74632541494149
 1  8.08535656025603 -1.50734012301230  2.02731011401140

