%nproc=4
%Mem=2GB
# td=(NStates=1) B3LYP/SVP 

TD

0 1
 8 -4.31307281808181 -4.77240161136114  1.96590061846185
 8  3.15681971067107 -4.73171447824782  1.09349348664866
 8  7.03298960326033 -1.44769203890389  1.85867854735474
 8  3.87742279977998 -3.05085311031103 -0.09085242464246
 8  7.42918245484548 -0.88222811791179 -0.29874590729073
 8 -3.05080066616662  2.45910396119612 -0.24466602800280
 7 -0.23657065176518 -0.51597579067907 -0.57334434733473
 7  1.52495098779878  1.81161159365937 -0.37021859945995
 7 -3.27916990599060 -3.11062217521752  0.74504082268227
 7 -0.77975647134713  2.91373252265227  0.12836899109911
 6  0.65141740604060 -2.44344230263026 -1.41479377447745
 6  0.98726162846285 -1.13968119981998 -1.03786263516352
 6 -0.72489661836184 -2.67335569776978 -1.21072313501350
 6 -1.21561198319832 -1.39333964536454 -0.69088821882188
 6  3.78664712551255  1.49495266176618 -0.36432069886989
 6  2.49806191199120  0.86380820632063 -0.65451963696370
 6  2.23104835503550 -0.44934219211921 -0.88465794039404
 6  3.52988362846285  2.87331713391339  0.10647863816382
 6  1.65847725282528 -3.32709441074107 -1.95436278187819
 6 -5.58929783648365 -2.79622523742374  1.24535179947995
 6 -3.61768562786279 -1.78466344224422  0.20804673647365
 6  2.07759207130713  3.04682467666767  0.04876249964996
 6 -5.05246794309431 -1.64515347924792  0.41917596149615
 6  5.07226248814881  0.79833475037504 -0.37105606430643
 6 -2.56407122282228 -1.01788034343434 -0.34382085588559
 6 -1.46194585668567 -3.88717847094709 -1.67976829362936
 6 -4.37999766816682 -3.69411364316432  1.33426855245525
 6  2.09716084978498 -4.47745676937694 -0.98262748954895
 6  5.31596039843984 -0.17535565906591  0.74215676287629
 6  4.57679374067407  3.84376722602260  0.74060626092609
 6  1.28914759315932  4.16631118141814  0.29389110971097
 6 -6.85276992759276 -3.53363814361436  0.74730379247925
 6 -5.80239982058206 -0.61743752775278 -0.10368320142014
 6 -0.11311923122312  4.10009825962596  0.35956776867687
 6 -1.07046214481448  5.26008354205421  0.52334079957996
 6 -2.34684415811581  4.64906640804080  0.41662756875688
 6  3.11258784078408 -3.99611228142814  0.01141883108311
 6 -5.38216192569257  0.52536782538254 -1.00653211801180
 6  6.69823970297030 -0.79483495309531  0.71131202940294
 6 -3.70899844274427  5.36525758425843  0.28070258095810
 6 -2.13618316991699  3.26186114711471  0.08785301550155
 6 -0.64836542764276  6.62299796979698  0.69421847344734
 6 -4.45126468906891  5.34610056675668 -1.00718981048105
 1 -0.55951753665367  0.19886675247525  0.22389264956496
 1  3.14603196419642 -1.03286142734273 -0.94619470687069
 1  2.58304818611861 -2.90823241984198 -1.99990653775377
 1  1.23630463666367 -3.86103021392139 -2.83548190829083
 1 -5.77181890919092 -2.37664628932893  2.33589412931293
 1  5.33567608010801  0.20601998339834 -1.25374572187219
 1  5.90914948234823  1.64808433653365 -0.63902747734773
 1 -2.76891310901090  0.08240603090309 -0.36831722922292
 1  0.38587581818182  1.89223906780678 -0.37231467696770
 1 -1.31596633243324 -4.56492106260626 -0.74713422322232
 1 -2.50589070007001 -3.72009259565957 -2.06600473357336
 1 -0.85980116001600 -4.42125919471947 -2.33053864316432
 1 -2.25736812311231 -3.36333606430643  0.75406807200720
 1  1.43576440574057 -5.05978867716772 -0.30284567446745
 1  2.53648975337534 -5.33086719361936 -1.49663504540454
 1  4.75236046904690 -1.06502766616662  0.60335007110711
 1  5.19039338473847  0.40080611931193  1.74647245034503
 1  4.65774630023002  4.89792020842084  0.32001062926293
 1  5.58739183088309  3.49682721592159  0.81005679527953
 1  4.02220925352535  3.96565203730373  1.72455817271727
 1  1.71902268086809  5.30760993839384  0.47351842704271
 1 -7.72723429172917 -2.68610369386939  0.37972924252425
 1 -7.39374343824382 -4.19545592769277  1.55933177357736
 1 -6.49067476447645 -3.96631404750475 -0.12745065666567
 1 -6.93768829112911 -0.76320722922292  0.30154815591559
 1 -5.32203117521752  1.51935675657566 -0.45318257955796
 1 -6.26087446484648  0.49445852085209 -2.07032134823482
 1 -4.31223053505351  0.26664682688269 -1.46715348014801
 1 -3.65317730323032  6.32795720082008  0.90767764426443
 1 -4.35129656785679  4.71641397329733  1.00165619191919
 1 -0.16276542104210  6.82997356275628  1.70903074467447
 1 -1.58249435973597  7.20922437713771  0.59504885658566
 1 -0.02227305930593  7.09593187888789 -0.37361640454045
 1 -4.06878478547855  6.16090371607161 -1.64244844734473
 1 -5.58190089728973  5.66677979407941 -1.02221209840984
 1 -4.42136561346135  4.31186135643564 -1.34731423942394
 1  3.75621402190219 -4.33848006050605  1.80389117151715
 1  7.82185020962096 -1.81380076907691  1.75637302030203

