%nproc=4
%Mem=2GB
# td=(NStates=1) B3LYP/SVP 

TD

0 1
 8 -4.23099461026103 -4.95070944214421  1.76065009340934
 8  3.00727475617562 -4.98035934273427  1.10122425972597
 8  6.93032933723372 -1.65999326902690  1.85765844534453
 8  3.73741879937994 -3.13276130113011  0.03891055165517
 8  7.63116265286529 -0.59357925302530  0.12474644194419
 8 -3.09110469656966  2.36044409520952 -0.48481004240424
 7 -0.24072106680668 -0.53619781288129 -0.68597561046105
 7  1.62900139283928  1.96707714021402 -0.45442702030203
 7 -3.21518350735074 -3.10722183518352  0.70560687928793
 7 -0.82220071577158  2.93200434983498 -0.15395924172417
 6  0.66355862016202 -2.46545450385038 -1.49104139923992
 6  0.96313921622162 -1.10423765546555 -1.14681353025303
 6 -0.70603473217322 -2.70381874407441 -1.34221628432843
 6 -1.28666908890889 -1.50932124352435 -0.81301043104310
 6  3.77464592539254  1.53483665016502 -0.37964223102310
 6  2.54859696549655  0.93196502200220 -0.68578276327633
 6  2.24006925712571 -0.36922418031803 -1.05919539413941
 6  3.54016465656566  2.83816361856186  0.13267125742574
 6  1.60013141824182 -3.43850555185519 -1.94943228882888
 6 -5.44121302800280 -2.75694130903090  1.41019828412841
 6 -3.49019287858786 -1.83838881478148  0.28587451925192
 6  2.15107942004200  3.10543053725373 -0.04525690229023
 6 -4.90108280458046 -1.60143910781078  0.55786983088309
 6  5.08627388928893  0.79288420532053 -0.28320727942794
 6 -2.70657547324732 -0.99703825922592 -0.51631810561056
 6 -1.49859952205221 -3.87240699379938 -1.82614293109311
 6 -4.26038570697070 -3.85096932873287  1.31359648524852
 6  2.11719285298530 -4.54384340804080 -1.00882010881088
 6  5.36574537693769 -0.11160928442844  0.83597614481448
 6  4.45276133743374  3.91626447574757  0.63898609890989
 6  1.30294897329733  4.18283283358336  0.25753747434743
 6 -6.84878952955296 -3.41594637443744  1.08143720582058
 6 -5.72473205380538 -0.57305308930893  0.16066323322332
 6 -0.20446836613661  4.10234848464846  0.14677648954895
 6 -1.04791989058906  5.20628816251625  0.41826029152915
 6 -2.37365683938394  4.66844834623462  0.27544345034503
 6  3.06272285428543 -4.11995466566657  0.06487417661766
 6 -5.51447515701570  0.59366465506551 -0.71248271307131
 6  6.72625250425043 -0.73186865646565  0.88677957615762
 6 -3.72022956585659  5.27019807830783  0.38232274297430
 6 -2.20066961856186  3.23723868486849 -0.15408117791779
 6 -0.78693928502850  6.61928759875988  0.94224327592759
 6 -4.28895845844584  5.78172412911291 -0.92656174767477
 1 -0.33727531243124  0.38839570537054 -0.34514425412541
 1  2.97426478747875 -1.04837297849785 -1.31931201860186
 1  2.62423230453045 -2.93420501710171 -2.01878842594259
 1  1.20680168636864 -4.09621373227323 -2.92004036413641
 1 -5.48020974827483 -2.30841946664666  2.51539207910791
 1  5.15507802030203  0.49418880028003 -1.44683503080308
 1  5.95193376077608  1.53294282238224 -0.24224779937994
 1 -3.15815203290329  0.04669245954595 -0.78261865936594
 1  0.45311254185419  1.86543638753875 -0.76318376387639
 1 -1.47016175197520 -4.61146571707171 -1.05920543034303
 1 -2.43721383238324 -3.54134472087209 -2.25220335343534
 1 -1.08280346024602 -4.28236530533053 -2.54009959925993
 1 -2.30130251655166 -3.78153788448845  0.75290795599560
 1  1.22842367166717 -5.07162986128613 -0.55525091499150
 1  2.68581468586859 -5.45074918181818 -1.41123650555055
 1  4.47722295529553 -0.94808597199720  0.76980671677168
 1  5.36284062946295  0.35792183088309  1.74819262236224
 1  4.27303782938294  4.96567698409841  0.03698232643264
 1  5.49284237593759  3.75939347254725  0.74921071067107
 1  4.06879391199120  4.49886535863586  1.72608832573257
 1  1.57876865546555  5.17945712311231  0.66616769196920
 1 -7.67110867916792 -3.02013709720972  1.17543881348135
 1 -6.97999206310631 -4.28035441754175  2.03090893129313
 1 -6.67671336833683 -3.94643205930593  0.12430451885188
 1 -6.73486800910091 -0.70779168766877  0.39555755685569
 1 -4.85912488458846  1.33928874977498 -0.03007026832683
 1 -6.46061443884388  1.09556863186319 -1.01310562666267
 1 -4.86867617961796  0.43392355455546 -1.43171993679368
 1 -3.97925991149115  6.07134153925393  1.14484136063606
 1 -4.23853529172917  4.46254858675868  0.94697072337234
 1 -0.22274141864186  6.60966153155316  1.71952179377938
 1 -1.72676878717872  7.20442389708971  1.16544589628963
 1 -0.39694052605260  7.18344062976298 -0.02005104800480
 1 -3.58626653365337  6.73632125782578 -1.34127833033303
 1 -5.33033574077408  6.04974809090909 -0.77449732693269
 1 -4.46784026092609  5.15991616191619 -1.73403291129113
 1  3.69416781728173 -4.69299551205120  1.83989477187719
 1  7.70337836243624 -2.18014740374037  1.69732711571157

