%nproc=4
%Mem=2GB
# td=(NStates=1) B3LYP/SVP 

TD

0 1
 8 -4.24722623342334 -4.85141951315132  1.93826785518552
 8  3.10045407410741 -4.79035034183418  1.17387152445245
 8  6.86387269156916 -1.87532480218022  1.56852953245325
 8  3.79515457295730 -2.89674769976998 -0.03504684408441
 8  7.63269280588059 -0.36425632073207 -0.09606563926393
 8 -3.06173175927593  2.42508055885589 -0.48643020442044
 7 -0.30947794249425 -0.49744393749375 -0.58725573847385
 7  1.54175266796680  1.84028446094609 -0.28688026562656
 7 -3.38868085708571 -3.20316142914291  0.62784910351035
 7 -0.78172666836684  2.92545369476948 -0.09330317611761
 6  0.62364462876288 -2.48506646504650 -1.39861215631563
 6  0.84996789908991 -1.10839807150715 -1.02181103000300
 6 -0.80329445814581 -2.66982534473447 -1.21625368806881
 6 -1.35523594559456 -1.41956226762676 -0.71673080308031
 6  3.75653411421142  1.50925409190919 -0.21480574737474
 6  2.41266337213721  0.86162798829883 -0.41972615761576
 6  2.05463071327133 -0.38423568146815 -0.94576405100510
 6  3.55973661376138  2.83801360356036  0.18368635893589
 6  1.74969637473747 -3.29178087938794 -2.00326767236724
 6 -5.55618452515252 -2.75947156205621  1.33027029132913
 6 -3.62395625492549 -1.89221419731973  0.26113204500450
 6  2.08358267036704  3.05127512171217  0.16177380078008
 6 -5.05935863216322 -1.63669263316332  0.39654369826983
 6  4.99170443234323  0.81596651355136 -0.38344730343034
 6 -2.63689850555056 -1.06355491089109 -0.32143861766177
 6 -1.49076873897390 -3.96717647074707 -1.70129044584458
 6 -4.36243591199120 -3.80436466826683  1.39718484408441
 6  2.23868500220022 -4.42290131383138 -1.09627885468547
 6  5.46971577397740 -0.02203032653265  0.88040058725873
 6  4.46876293759376  3.77982083138314  0.53961616191619
 6  1.32834151255125  4.16973152345235  0.39459117971797
 6 -6.86323097369737 -3.45865064486449  0.88176723882388
 6 -5.70828040864086 -0.55099088308831  0.08514568146815
 6 -0.05748366766677  4.01042929272927  0.33198501040104
 6 -1.04490958955896  5.15599313301330  0.60855932143214
 6 -2.33190266396640  4.69671117251725  0.20510641664166
 6  3.17216379837984 -3.97468013821382  0.07343503270327
 6 -5.41076478597860  0.62734802340234 -0.79663112791279
 6  6.78440831983198 -0.82287775737574  0.64281517971797
 6 -3.65353289618962  5.36178723722372  0.12791730243024
 6 -2.14879443104310  3.19813477447745 -0.17379314911491
 6 -0.61511210231023  6.57077274727473  0.96040509210921
 6 -4.32112167476748  5.35667162386239 -1.26357544904490
 1 -0.29461104600460  0.48898576437644 -0.17515725542554
 1  3.09886724772477 -1.02905104630463 -0.95202528992899
 1  2.56237611891189 -2.73336493309331 -2.35807235433543
 1  1.25868687488749 -3.90895500640064 -2.77193555365537
 1 -5.70882260956096 -2.40224884958496  2.33887442734273
 1  4.97297981048105  0.05236461786179 -1.15187553485349
 1  5.87101566896690  1.50289981808181 -0.50527410201020
 1 -2.88815503320332 -0.02070428012801 -0.41490188768877
 1  0.44815204580458  1.92135197909791 -0.40498794429443
 1 -1.16279101490149 -4.80625519601960 -1.17461697149715
 1 -2.52311242224222 -3.61857244364436 -1.91592972607261
 1 -0.94313949384939 -4.12568963776378 -2.62685827512751
 1 -2.52301468776878 -3.66826655735574  0.54308697389739
 1  1.45464629392939 -5.02492519081908 -0.49145453535354
 1  2.92826893129313 -4.97183129002900 -1.56286166806681
 1  4.48765399839984 -0.77382854625463  1.15176491259126
 1  5.50308465386539  0.66613265196520  1.71329913301330
 1  4.22050257585759  4.65953637003700  0.02877150535054
 1  5.51762485418542  3.36611414461446  0.24106989658966
 1  4.52551958455846  3.98299377147715  1.65751146804681
 1  1.64337511611161  5.08374755215522  0.65719679487949
 1 -7.68810037833783 -2.98602368586859  0.90176144574457
 1 -6.79850391429143 -4.27556393849385  1.49181502190219
 1 -6.54457015401540 -4.02071948804881 -0.05925383698370
 1 -6.88661318361836 -0.57949885838584  0.21456945804580
 1 -5.08966793889389  1.66922174307431 -0.28344560586059
 1 -6.31461983938394  0.89520859585959 -1.34580889698970
 1 -4.72302161416142  0.29528969116912 -1.70104686948695
 1 -3.37010899639964  6.60992539763976  0.47025390189019
 1 -4.16141757995800  4.87201953385339  1.05879190549055
 1 -0.01241038553855  6.46931749714972  2.07301714331433
 1 -1.35771188148815  7.23242669736974  0.94767411911191
 1  0.18629779777978  7.07932021772177  0.17632858995900
 1 -3.72267017401740  5.90028765446545 -1.93179738223822
 1 -5.16456916411641  5.85923904000400 -0.95818569576958
 1 -4.53363684058406  4.29429960026003 -1.46192570057006
 1  3.77499590009001 -4.45691190369037  1.70129091149115
 1  7.78407643224322 -2.29893928292829  1.57529491249125

