%nproc=4
%Mem=2GB
# td=(NStates=1) B3LYP/SVP 

TD

0 1
 8 -4.18329984078408 -4.96951132233223  1.81551557995800
 8  3.18311233993399 -5.01440274707471  0.80100423772377
 8  6.85477178147815 -1.40317758745875  2.06349902940294
 8  3.75742079957996 -3.03149117411741 -0.08457179657966
 8  7.50159969656966 -0.86508640374037  0.03482745004500
 8 -3.11922750885089  2.38067611841184 -0.18118968036804
 7 -0.22719971467147 -0.46485067816782 -0.44068108100810
 7  1.51286977967797  1.87012744524452 -0.35476705430543
 7 -3.14865685468547 -3.25126623962396  0.65181149974997
 7 -0.91054955065507  2.87746889628963 -0.06516036183618
 6  0.57639990429043 -2.33959191759176 -1.33054534963496
 6  0.93417631993199 -1.06969420112011 -0.88389723862386
 6 -0.81774590329033 -2.62409077127713 -1.22039410211021
 6 -1.26746716871687 -1.39731004240424 -0.62921205120512
 6  3.73968242904290  1.54203737023702 -0.28493276007601
 6  2.51810391619162  0.93794562006201 -0.59337352235224
 6  2.20502575277528 -0.44874213211321 -0.74016349094909
 6  3.58070871097110  2.80070987318732  0.11240923122312
 6  1.59631103620362 -3.24808650995100 -2.10112745834584
 6 -5.46961586828683 -2.82753836873687  1.35078234253425
 6 -3.55818967826783 -1.95858083398340  0.22878881068107
 6  2.14790910301030  3.04051404560456 -0.01443381998200
 6 -4.97079977627763 -1.66213517741774  0.50889493339334
 6  5.06867212911291  0.85148006490649 -0.32012097079708
 6 -2.61150596629663 -1.08639719511951 -0.28228470227023
 6 -1.54389405150515 -3.70842059515952 -1.90150046684668
 6 -4.30018968736874 -3.88595282708271  1.35014013961396
 6  2.12617375107511 -4.47126615031503 -1.16390561736174
 6  5.29046784918492  0.03352522902290  0.95333788098810
 6  4.54875093639364  3.86428927822782  0.36671887218722
 6  1.28402708110811  4.15825037533753  0.26767848844884
 6 -6.79320397099710 -3.36145092489249  0.92298136023602
 6 -5.83317289788979 -0.74036982098210  0.09067623452345
 6 -0.19064698399840  3.96426467626763  0.18414022592259
 6 -1.00027512611261  5.19805733943394  0.34437290279028
 6 -2.32889236293629  4.75095659705971  0.17502340834083
 6  3.07697427942794 -4.08237090729073 -0.08958126892689
 6 -5.43979768926893  0.54232952155216 -0.66613807860786
 6  6.58913879287929 -0.82207767736774  0.92339323752375
 6 -3.64823236613661  5.46086714521452  0.25348985968597
 6 -2.22552210381038  3.29956491749175 -0.07650342014201
 6 -0.58927951905191  6.55364103410341  0.64788383998400
 6 -4.24781434403440  5.58464442114211 -1.11328041954195
 1 -0.28230981588159  0.31973883968397  0.11410167046705
 1  3.16964432543254 -0.88057619881988 -0.95601568896890
 1  2.47584746604660 -2.77027862446245 -2.31267781488149
 1  1.11238224442444 -3.69823393429343 -3.05712407250725
 1 -5.36122785008501 -2.59167779247925  2.44769530943094
 1  5.17246975947595  0.36645602700270 -1.39390973827383
 1  5.86304487188719  1.51438096619662 -0.46029960456046
 1 -2.93304952265227 -0.06584879457946 -0.36088648614861
 1  0.48484571517152  1.81390123402340 -0.48065551105110
 1 -1.69156389218922 -4.57935250575057 -1.31455096489649
 1 -2.63013312431243 -3.21488207460746 -2.06764489758976
 1 -1.07050223012301 -4.07791486028603 -2.74860044934493
 1 -2.34231661796180 -3.66190592129213  0.71058372357236
 1  1.26195702500250 -5.04013671197120 -0.73066845674567
 1  2.60024612901290 -5.27683179007901 -1.76192157405741
 1  4.50009524252425 -0.62820398379838  1.05393512961296
 1  5.46005035043504  0.81568760746075  1.64464226732673
 1  4.21150167576758  4.88860927732773  0.03892252045204
 1  5.57016010771077  3.68469600280028 -0.20371458185819
 1  4.52568960156016  4.09814528662866  1.57098281518152
 1  1.78975975457546  5.18179735713571  0.45321639683968
 1 -7.44028559685969 -2.56169125262526  1.18677994759476
 1 -7.06072013591359 -4.18885526762676  1.46699253965397
 1 -7.04162985998600 -3.41284870097010 -0.32951086268627
 1 -6.84929945224522 -0.90745165366537  0.36144414551455
 1 -4.98752772487249  1.27018183908391  0.07779051775178
 1 -6.47406578397840  1.11025010001000 -1.12660697679768
 1 -4.79988930093009  0.33530369256926 -1.38341510631063
 1 -3.46309829532953  6.38878328342834  0.74969184568457
 1 -4.31584302250225  4.94250658255826  0.86148217451745
 1  0.14156501200120  6.74640520592059  1.60779062066207
 1 -1.33076918721872  7.49798325302530  0.84065341704170
 1  0.16766593459346  6.96525881158116 -0.13323236613661
 1 -3.59240714771477  6.23594121982198 -1.85647985048505
 1 -5.19953266046605  5.95425854195420 -0.75881575877588
 1 -4.34803828072807  4.74947511781178 -1.66398590659066
 1  4.02879127962796 -5.01596780928093  1.41865264766477
 1  7.69660768536854 -1.87766715571557  2.08685606860686

