%nproc=4
%Mem=2GB
# td=(NStates=1) B3LYP/SVP 

TD

0 1
 8 -4.21631314211421 -4.74788916011601  1.97793182158216
 8  2.98473250195019 -5.12386369316932  0.73124726202620
 8  6.96294259855986 -1.31910918061806  1.95873855335534
 8  3.75859091659166 -3.14934295929593 -0.19766310571057
 8  7.69928946554655 -0.26631652675268  0.13857782508251
 8 -3.00540612671267  2.23238128892889 -0.33711527292729
 7 -0.25890288498850 -0.46931112421242 -0.44037105000500
 7  1.57133562626263  1.72061249374937 -0.15877745534553
 7 -3.31062305130513 -3.11543265626563  0.61715803440344
 7 -0.84196269196920  2.79823097249725  0.03650980518052
 6  0.64757702200220 -2.36366432483248 -1.42655495059506
 6  0.95720862316232 -1.10643787548755 -0.94954380328033
 6 -0.86181030973097 -2.55700406260626 -1.23610567326733
 6 -1.30826124812481 -1.30371068246825 -0.68446757675768
 6  3.85706416721672  1.51487465396540 -0.16450071687169
 6  2.58609071487149  0.72861468696870 -0.34336852185219
 6  2.30873612381238 -0.48528578647865 -0.87031650625062
 6  3.55797643774377  2.80060986318632  0.05768375867587
 6  1.64706611171117 -3.17255895719572 -2.13485083068307
 6 -5.48379728642864 -2.76975259015902  1.40013727802780
 6 -3.65306916621662 -1.78582355825583  0.18103403520352
 6  2.06728104020402  2.95564555875588  0.09545716911691
 6 -5.08456115241524 -1.66139510341034  0.58864290819082
 6  5.18091335323532  0.79163408030803 -0.30609956865687
 6 -2.68900371607161 -1.00900945634563 -0.42227870167017
 6 -1.53171283338334 -3.68549830293029 -1.75003532033203
 6 -4.27834750315032 -3.66657088888889  1.36467159275928
 6  2.04658579227923 -4.42896191989199 -1.33522274907491
 6  5.25816461886189 -0.21821994549455  0.91899444664466
 6  4.53374943624362  3.91488433773377  0.42452465276528
 6  1.25880455885589  3.98400295059506  0.29786150675067
 6 -6.81599625022502 -3.40912569236924  1.07550661276128
 6 -5.72968254885489 -0.61200698469847  0.17183435033503
 6 -0.18209612891289  3.95458370817082  0.22238405030503
 6 -1.05034013261326  5.10600813451345  0.37217568306831
 6 -2.32868234193419  4.54968647004701  0.14174008000800
 6  3.02446902890289 -4.11155382558256 -0.16077838863886
 6 -5.49826353585359  0.62355764436444 -0.76239770457046
 6  6.77815769476948 -0.61390686028603  0.88805970417042
 6 -3.73802134503450  5.13998505700570  0.17665217591759
 6 -2.14124367596760  3.08617357835784 -0.17802357215722
 6 -0.71501209230923  6.59973564356436  0.73017206880688
 6 -4.21728129072907  5.62859881658166 -1.22004109560956
 1 -0.31434301920192  0.55973283908391 -0.05439517921792
 1  3.25927328832883 -1.23397153835384 -0.87245733313331
 1  2.44645452675268 -2.62245384198420 -2.45019156625663
 1  1.24319532573257 -3.37114122502250 -3.10842920302030
 1 -5.51481320862086 -2.33385200990099  2.42379291919192
 1  5.18709122162216  0.22949233063306 -1.22676302360236
 1  5.99949851725172  1.47492702080208 -0.45622919751975
 1 -2.85087130483048  0.06028381868187 -0.52757315481548
 1  0.41358858945895  1.69747959185919 -0.28988643414341
 1 -1.50409514531453 -4.32605717621762 -0.89172868266827
 1 -2.55167527852785 -3.57883847024702 -1.97996612971297
 1 -1.04249942984298 -4.11869893869387 -2.67001259055906
 1 -2.38009039533953 -3.54610434113411  0.73784644984498
 1  1.15445627492749 -4.73418611691169 -0.83298868876888
 1  2.91715782018202 -4.89248335523552 -1.96289167106711
 1  4.76207144014401 -1.27449861326133  0.80564030013001
 1  4.92328667406741  0.05192123082308  1.94807261036104
 1  4.10556108170817  4.86967738413841 -0.08637000880088
 1  5.73630672237224  3.69146667986799  0.07925371497150
 1  4.88766579917992  4.05522099419942  1.70617633453345
 1  1.42646342494249  5.00444962236224  0.47208828402840
 1 -7.93866543484348 -2.87587267076708  1.27771904150415
 1 -7.21138520242024 -4.28126450855085  1.73105894629463
 1 -6.87142283928393 -3.71918933503350  0.05241733013301
 1 -6.88410293259326 -0.52485339383938  0.52310031113111
 1 -5.01585055715572  1.52436725762576 -0.04962222352235
 1 -6.45520389778978  0.94522359735974 -1.29780409650965
 1 -4.80671998399840  0.14532469466947 -1.37405417021702
 1 -3.78562054755476  5.90677508260826  0.79057593409341
 1 -4.36738817701770  4.39807213911391  0.60702672897290
 1 -0.30161930643064  6.69514007940794  1.63861370297030
 1 -1.77034314461446  7.34335779047905  0.65131448314831
 1 -0.09739057105711  7.04211649734973 -0.05871491439144
 1 -3.35417332433243  6.27611523722372 -1.67171137363736
 1 -5.18850155735574  6.39638275437544 -1.43133301050105
 1 -4.37206068296830  4.63326349664967 -1.79455896389639
 1  3.43332173267327 -5.20241645414541  1.62807358975898
 1  7.95513353795380 -1.67577696669667  1.95361274427443

