%nproc=4
%Mem=2GB
# td=(NStates=1) B3LYP/SVP 

TD

0 1
 8 -4.30702221302130 -4.83372774397440  2.08754278267827
 8  2.95947997669767 -4.94489579637964  1.11829596689669
 8  7.00207651195119 -1.60970824052405  1.72482516201620
 8  3.78434349184918 -3.11632965796580  0.05780244084408
 8  7.45855539213921 -0.61815171027103 -0.31536756945695
 8 -2.96416200230023  2.42954100490049 -0.49788134953495
 7 -0.30114710941094 -0.45527972107211 -0.55331234413441
 7  1.58153664636464  1.84113454595460 -0.31018259585959
 7 -3.33447543654365 -3.21398251125113  0.65879219781978
 7 -0.82310080578058  2.95533668306831 -0.07039088488849
 6  0.68491075537554 -2.36031398979898 -1.41821411651165
 6  0.94038694099410 -1.03388061976198 -1.01458030693069
 6 -0.64162829152915 -2.63435179737974 -1.20220228292829
 6 -1.24487490949095 -1.44027433883388 -0.65886501650165
 6  3.78747720852085  1.54288745524552 -0.31752601940194
 6  2.50615272107211  0.89136096159616 -0.61257544254425
 6  2.29329457965797 -0.46079333723372 -0.83940341494149
 6  3.43362400250025  2.77063686588659  0.09278726902690
 6  1.69199060416042 -3.25453715501550 -2.01657900350035
 6 -5.58475738243824 -2.83468908380838  1.27961522582258
 6 -3.60239409870987 -1.97591256715672  0.18149408120812
 6  2.06836114821482  2.99332932713271  0.07546516991699
 6 -5.00319301560156 -1.69223818771877  0.47198124202420
 6  5.13504876677668  0.87765268216822 -0.26604556325633
 6 -2.50000481618162 -1.10163871927193 -0.31432790659066
 6 -1.38107776987699 -3.88161791489149 -1.64073439023902
 6 -4.35179484788479 -3.87962219401940  1.32809793539354
 6  2.12336347004700 -4.40727975167517 -1.03835306210621
 6  5.38321712411241  0.00214209070907  0.94108665586559
 6  4.48431449274928  3.86037888718872  0.45659786008601
 6  1.31580025842584  4.19384393469347  0.33834555515552
 6 -6.95374002460246 -3.51088586838684  0.79481854395440
 6 -5.73698327892789 -0.64240002400240 -0.00406323942394
 6 -0.15616353565357  4.06211446124612  0.31743355525553
 6 -1.10032513111311  5.16632416611661  0.57587605310531
 6 -2.34149362306231  4.58531003240324  0.24149005500550
 6  3.03393997599760 -4.05086775697570  0.05825351455146
 6 -5.32414612411241  0.57451273987399 -0.79716118091809
 6  6.74480435943594 -0.73431890149015  0.70533143134313
 6 -3.65674321722172  5.31336239473947  0.22338684938494
 6 -2.14024357595760  3.21534649564957 -0.19276504630463
 6 -0.78546913801380  6.49052472247225  1.03043209480948
 6 -4.31766132873287  5.80829678637864 -1.11982107360736
 1 -0.49026061096110  0.52259912571257 -0.02942268196820
 1  3.23235059605961 -1.12564070527053 -1.15638572597260
 1  2.59208909020902 -2.63944554115412 -2.19307585468547
 1  1.34501550775078 -3.85800991189119 -2.94364272437244
 1 -5.61475320262026 -2.47000562526253  2.53529406930693
 1  5.25709822232223  0.38410779217922 -1.29196954425443
 1  5.94189275667567  1.69724925302530 -0.45524909950995
 1 -2.88902512021202  0.09495728602860 -0.36336673417342
 1  0.50158738933893  1.96022586648665 -0.63476092159216
 1 -1.62765750155015 -4.56656122662266 -0.75110462026203
 1 -2.42660277127713 -3.51746233263326 -1.85458359145915
 1 -0.65586076597660 -4.39037610641064 -2.35338092739274
 1 -2.43766615291529 -3.51683141384138  0.93485615081508
 1  1.10550137943794 -4.85163786208621 -0.57207259715972
 1  2.24490059445945 -5.08650275717572 -1.92153753565357
 1  4.75693092609261 -0.96372753615362  1.02040177627763
 1  5.47455180058006  0.48267430613061  1.92630043314331
 1  4.36520704630463  4.80820123652365 -0.10119149094910
 1  5.47104019571957  3.54905243844384  0.14325011461146
 1  4.43256028862886  3.83004847694769  1.49190490739074
 1  1.68601938053805  5.12139131653165  0.40521159635964
 1 -7.82906447474747 -2.64599968346835  0.61973324292429
 1 -7.13978804270427 -4.28593497559756  1.57301314171417
 1 -6.68346404340434 -4.04010142624262 -0.26997490909091
 1 -6.83853837613761 -0.80812172067207  0.11655965706571
 1 -4.70239921202120  1.10129495039504 -0.02135939723972
 1 -6.24555293269327  1.23221229622962 -1.00239455555556
 1 -4.77976728872887  0.24023418561856 -1.62733949874988
 1 -3.46589857535754  6.27945235033503  0.88948582508251
 1 -4.32646408460846  4.72490482238224  0.66709273557356
 1 -0.66072521702170  6.52346291169117  2.12496233783378
 1 -1.67488359865987  7.29242269696970  0.58633798549855
 1  0.24895406340634  6.81299358505851  0.53151410851085
 1 -3.57665557255726  6.63826145184518 -1.65324952745275
 1 -5.22167487468747  6.26453957005701 -0.97096697389739
 1 -4.55233871077108  5.02429259955996 -1.80242975097510
 1  3.41913031353135 -4.48901511401140  1.75886666906691
 1  7.75436346094610 -2.16095548454845  1.59369675267527

