%nproc=4
%Mem=2GB
# td=(NStates=1) B3LYP/SVP 

TD

0 1
 8 -4.21724323512351 -4.99274364556456  1.82948697709771
 8  3.25164919361936 -5.02891419821982  0.94887902520252
 8  6.77079338363836 -1.62332960266027  1.88803148264826
 8  3.68676373387339 -3.10615864086409 -0.16743008240824
 8  7.62193172977298 -0.38820871597160  0.13227719501950
 8 -2.98180376647665  2.47237528832883 -0.49324088548855
 7 -0.19452644734473 -0.42499669276928 -0.58403541644164
 7  1.55973446614661  1.84151458395840 -0.23781535913591
 7 -3.34196618561856 -3.15940705370537  0.67841416001600
 7 -0.72655115081508  2.96683783318332 -0.01068491429143
 6  0.61517378167817 -2.39589754815482 -1.41344363946395
 6  0.93171607390739 -1.03665089678968 -0.89285813471347
 6 -0.73799792849285 -2.54821318351835 -1.28259032173217
 6 -1.29802022402240 -1.42882319371937 -0.70087921792179
 6  3.78740720152015  1.41889505600560 -0.26124039083908
 6  2.45471757755776  0.87481930743074 -0.43589777477748
 6  2.16713196339634 -0.49506676457646 -0.97982745734573
 6  3.58116875697570  2.79960976317632  0.01930992129213
 6  1.62541394649465 -3.30361206250625 -2.04290163576358
 6 -5.59073798049805 -2.91056667156716  1.36406367066707
 6 -3.62476633593359 -1.89619459535954  0.21719765156516
 6  2.11327563966397  3.08136813101310  0.07720534393439
 6 -5.07883057935794 -1.70879984388439  0.54171821572157
 6  5.03888915081508  0.72792770967097 -0.39358831753175
 6 -2.62393720942094 -1.13554210961096 -0.26689316311631
 6 -1.53918358045805 -3.70743049614962 -1.72274259105911
 6 -4.30398006640664 -3.84209844164416  1.33855898149815
 6  2.15109624332433 -4.45019404310431 -1.18889811661166
 6  5.34023282568257 -0.03614173767377  0.96555910311031
 6  4.63928999029903  3.77471032033203  0.36216841714171
 6  1.32862154055406  4.20541509180918  0.25184690529053
 6 -6.79847449804980 -3.46503128292829  1.01481054315432
 6 -5.88272785338534 -0.61452723672367  0.12767993489349
 6 -0.12014993429343  4.10401865166517  0.30601241314131
 6 -1.05926102470247  5.28685621932193  0.44366283178318
 6 -2.32751222492249  4.72267376877688  0.16658256425643
 6  3.05337191919192 -4.09466213641364 -0.05070738153815
 6 -5.44781849134914  0.52353764236424 -0.64105557035704
 6  6.67060693969397 -0.70473594319432  0.90692159035904
 6 -3.66193373627363  5.28611967046705  0.28671318201820
 6 -2.09516906850685  3.23421838283828 -0.16147191699170
 6 -0.66669726082608  6.65489115911591  0.75604465606561
 6 -4.34729429202920  5.49407536423642 -1.13411250275027
 1 -0.43966555145515  0.51424829062906 -0.25612535223522
 1  2.91177853885389 -1.19388752995300 -1.27008709610961
 1  2.62431231253125 -2.82450404700470 -2.34688123522352
 1  1.18238924512451 -3.88190230113011 -2.89920828092809
 1 -5.58658038533853 -2.44913353805381  2.34771531143114
 1  4.98152066456646  0.24353373477348 -1.10707105440544
 1  5.98022659005901  1.26322585068507 -0.41667524212421
 1 -2.96126234393439 -0.00198240794079 -0.32199259675968
 1  0.48557578817882  1.84943478737874 -0.40294774027403
 1 -1.49135387118712 -4.65197976847685 -1.08811832163216
 1 -2.48303841484148 -3.40353093949395 -1.77706583968397
 1 -1.30164534443444 -4.00352742154215 -2.64498008730873
 1 -2.33998638493849 -3.70089982068207  0.86032869806981
 1  1.48411924122412 -5.18673137143714 -0.95179056895690
 1  2.88291439583958 -5.07329143604360 -1.86307168906891
 1  4.58206343934393 -0.80965212861286  1.06927666376638
 1  5.45560990639064  0.54716075477548  1.87638544164416
 1  4.23702422802280  4.62200261666167 -0.10398176997700
 1  5.64818791049105  3.50713824702470  0.14021981158116
 1  4.68798583118312  4.02721819391939  1.50100581748175
 1  1.76881766036604  5.36174535193519  0.43722479767977
 1 -7.58048961726173 -2.73310839433943  1.22658392799280
 1 -7.07197126102610 -4.39626600870087  1.48684452485248
 1 -6.94158985598560 -3.62788020412041 -0.05034294589459
 1 -6.89524404670467 -0.58594950345035  0.25180318141814
 1 -4.82775174727473  1.27096191709171 -0.05050231153115
 1 -6.48051642904290  1.11808088308831 -1.12534685078508
 1 -4.66265557755776  0.30492065426543 -1.45542230703070
 1 -3.78316030153015  6.29621402650265  0.87899477597760
 1 -4.19423086128613  4.56268860076008  0.70421644794479
 1 -0.38928807330733  6.78997956335634  1.93826366796680
 1 -1.73764987528753  7.22744619931993  0.49946929862986
 1  0.22409157715772  7.00751303700370  0.12137309440944
 1 -3.69274718171817  6.29331695739574 -1.64901910441044
 1 -5.27944065126513  6.11076419251925 -1.28378825602560
 1 -4.62365584248425  4.53780395069507 -1.75767527552755
 1  3.90393879437944 -4.65287149964996  1.49012979537954
 1  7.66902492709271 -2.02298168716872  1.93310069306931

