%nproc=4
%Mem=2GB
# td=(NStates=1) B3LYP/SVP 

TD

0 1
 8 -4.35684719551955 -4.80451482268227  1.95061909030903
 8  2.90735476417642 -4.87134844164416  1.00595473277328
 8  6.71210751505151 -1.68421569126913  1.75720840034003
 8  3.69407446494649 -3.08083610861086 -0.12198553795380
 8  7.66317585418542 -0.23035293039304  0.14598856615662
 8 -2.98080366646665  2.30093814461446 -0.29315087648765
 7 -0.28113510821082 -0.45168936203620 -0.67829484238424
 7  1.55118361106111  1.88061849434943 -0.37675925352535
 7 -3.25463745274527 -3.10707182018202  0.84556087468747
 7 -0.75038353405341  2.91620276967697  0.04818097229723
 6  0.71853411771177 -2.36078403680368 -1.42942523762376
 6  0.95301820412041 -1.05026225792579 -1.03153200210021
 6 -0.69503363206321 -2.61535989818982 -1.22439450215022
 6 -1.27641806380638 -1.41874218561856 -0.66638576857686
 6  3.80077853865387  1.48105127162716 -0.25993025982598
 6  2.46389849564957  0.84700652615262 -0.56609079407941
 6  2.25226047624763 -0.39491674957496 -0.96582605720572
 6  3.62040268036804  2.80129993219322  0.10168815911591
 6  1.63810521562156 -3.32887458875888 -2.11837918351835
 6 -5.60879978667867 -2.83029864476448  1.29560682498250
 6 -3.50132399169917 -1.97531250715072  0.25443137493749
 6  2.16253056515652  3.06231622582258 -0.01168354495450
 6 -4.94332702900290 -1.59768873277328  0.47981202510251
 6  5.06744200610061  0.79833475037504 -0.36760571927193
 6 -2.64857967366737 -1.09705826122612 -0.38935540934093
 6 -1.40630029212921 -3.81052080518052 -1.56784710151015
 6 -4.39670933933393 -3.72777700950095  1.41373649924993
 6  2.02191332503250 -4.38005702940294 -1.07573680048005
 6  5.27637644004400 -0.22172029552955  0.77261980918092
 6  4.59397545884589  3.87802065136514  0.44801700200020
 6  1.30449912831283  4.21667621792179  0.31577329792979
 6 -6.78936358695870 -3.55918069786979  0.85984504660466
 6 -5.66808638923892 -0.55781156515652  0.02896006290629
 6 -0.09811773107311  4.03405165496550  0.32320413231323
 6 -0.99483458205821  5.16406394009401  0.50195866136614
 6 -2.26978645234523  4.68200970237024  0.23174908090809
 6  3.02735931793179 -4.10189285948595 -0.05833814461446
 6 -5.36248995849585  0.61012630123012 -0.91210267506751
 6  6.67382726172617 -0.69494496409641  0.84429532773277
 6 -3.66239378227823  5.17500855935594  0.27399190989099
 6 -2.10337988958896  3.19598455945595 -0.09821559135914
 6 -0.67771836293629  6.60174584458446  0.82203125472547
 6 -4.40628019061906  5.38471442814281 -0.98401749324933
 1 -0.42361394629463  0.53072993879388 -0.62650238993899
 1  3.02266962796280 -1.02763090429043 -0.87249733713371
 1  2.41248112941294 -2.85259685628563 -2.35800234733473
 1  1.23359436563656 -3.90236434733473 -2.94635299539954
 1 -5.78017974527453 -2.48466709140914  2.27993853375338
 1  5.30683319581958  0.33420280168017 -1.36695704300430
 1  5.99320788818882  1.52525205330533 -0.12075565016502
 1 -2.85308152585259 -0.11450366006601 -0.46929732723272
 1  0.62637986858686  1.76544638853885 -0.32190963646365
 1 -1.38981371717172 -4.67727229772977 -0.95788529832983
 1 -2.40777088808881 -3.39538012441244 -1.79142727582758
 1 -0.85485066496650 -4.29311638043804 -2.46161175047505
 1 -2.34121650795080 -3.42703243394339  0.97522018721872
 1  1.32002283158316 -4.95507820612061 -0.61288667856786
 1  2.45604170857086 -5.24093820072007 -1.77508289018902
 1  4.64337957095710 -1.11922308570857  0.58719845594559
 1  4.93424777017702  0.44802084078408  1.52833063616362
 1  4.66461698729873  4.85357577397740 -0.28186955875588
 1  5.44336742844285  3.23845137833783  0.37828361796180
 1  4.34208124072407  4.11875734783478  1.36058177507751
 1  1.67698847744774  5.04893407080708  0.83720479567957
 1 -7.75922749104911 -2.71905698919892  0.66224749434944
 1 -6.97100116401640 -4.35522190429043  1.58510435083508
 1 -6.78056375337534 -4.06311372747275 -0.17148506010601
 1 -6.71036555885589 -0.64794570307031  0.38037603870387
 1 -5.03978295039504  1.51185600650065 -0.29769703100310
 1 -6.25367374477448  0.79248832383238 -1.52691700780078
 1 -4.51377068906891  0.17953811601160 -1.58333509830983
 1 -3.75437742324232  6.22122652775278  0.87924480098010
 1 -4.35831726992699  4.44499683158316  0.75926195249525
 1 -0.01031017551755  6.75072563796380  1.60005984758476
 1 -1.66613272357236  7.15740919561956  0.99052840454045
 1 -0.10130096209621  6.98718100380038 -0.09156819971997
 1 -3.80856876387639  5.89337696339634 -1.71418562106211
 1 -5.47195990319032  5.95296841294129 -1.03470334753475
 1 -4.56112958985899  4.30795096539654 -1.47470697869787
 1  3.42791119161916 -4.54102031453145  1.77750853325333
 1  7.65248327292729 -1.94235362436244  1.90444782778278

