%nproc=4
%Mem=2GB
# td=(NStates=1) B3LYP/SVP 

TD

0 1
 8 -4.32449396019602 -4.95267963916392  1.68692272067207
 8  3.14779880858086 -4.57691899869987  1.23804794209421
 8  7.17489379367937 -1.54506177587759  1.84565724522452
 8  3.76675173267327 -2.95469349434943 -0.20956429582958
 8  7.72601213781378 -0.34669456455646  0.10876484378438
 8 -3.10637622372237  2.39927797859786 -0.41206276767677
 7 -0.28836583128313 -0.54072826592659 -0.63565057795780
 7  1.50336882958296  1.78856928942894 -0.37678925652565
 7 -3.38371036003600 -3.10297141014101  0.60070638923892
 7 -0.78385688138814  2.91083223262326 -0.07117096289629
 6  0.63679594389439 -2.39284724312431 -1.28094038913891
 6  0.91681458375838 -1.04866209790979 -1.02800164906491
 6 -0.71594572327233 -2.71060942314231 -1.16163822652265
 6 -1.34961538353835 -1.43834414581458 -0.73291242124212
 6  3.76422488328833  1.42615578207821 -0.33964823162316
 6  2.46606871267127  0.78655048054805 -0.63004718971897
 6  2.21251650185018 -0.46644390229023 -0.94458393299330
 6  3.57306794689469  2.78416821902190  0.00629862016202
 6  1.55255666076608 -3.52054375567557 -1.88383572917292
 6 -5.54698360506051 -2.80326594149415  1.23446071037104
 6 -3.65643950325032 -1.76751172707271  0.24323025482548
 6  2.13528784088409  2.93870386458646  0.04954257765777
 6 -5.04387708400840 -1.57444640854085  0.46468051195120
 6  5.05800106200620  0.69348426532653 -0.33117207590759
 6 -2.63386820252025 -0.96458501390139 -0.33214968876888
 6 -1.60822048414841 -3.79410916401640 -1.79764008080808
 6 -4.43806347474748 -3.80098433023302  1.25563068866887
 6  2.12101323502350 -4.49741876557656 -0.95068429522952
 6  5.44137293969397 -0.22552067556756  0.80592313951395
 6  4.50422648394840  3.85599844914491  0.32432463276328
 6  1.27671635003500  4.03230778107811  0.32830455105511
 6 -6.90958560916092 -3.37715249504950  0.71590065216522
 6 -5.88910849144914 -0.50561634563456  0.18109527642764
 6 -0.14742266156616  3.97867611741174  0.24518633053305
 6 -1.04749984858486  5.10404793849385  0.49332779827983
 6 -2.36518599229923  4.61019252065207  0.34081998799880
 6  3.12423900590059 -3.90206287648765  0.04107179637964
 6 -5.41992570207021  0.75711099969997 -0.50646211101110
 6  6.86965684468447 -0.56884235383538  0.83000389858986
 6 -3.62798034093409  5.32791384988499  0.36782129282928
 6 -2.14936448804880  3.19828478947895 -0.05541131093109
 6 -0.54402499359936  6.51693736373637  0.84420347194719
 6 -4.31745130773077  5.22226818351835 -1.00317940944094
 1 -0.47010859575958  0.35420228602860 -0.13939367906791
 1  2.98423578457846 -1.13631177237724 -1.13524361176118
 1  2.43713359465947 -2.94125572217222 -2.18168471557156
 1  0.99212021822182 -4.08021213211321 -2.75354371447145
 1 -5.67470919821982 -2.53423204790479  2.23720426032603
 1  5.21705421792179  0.39065844724472 -1.32590293759376
 1  5.84139270667067  1.39680920902090 -0.39909348394839
 1 -3.09125534323432  0.07520531083108 -0.33745414291429
 1  0.49168639923992  1.99264910881088 -0.52927037253725
 1 -1.66574130993099 -4.80232480298030 -1.30815032483248
 1 -2.52444255525552 -3.59621020742074 -2.05700383348335
 1 -1.04907008690869 -4.16127319611961 -2.49392498179818
 1 -2.42218460476048 -3.68793852455246  0.61127379257926
 1  1.53119394869487 -5.13414611291129 -0.30909629952995
 1  2.79803590799080 -5.12630673757376 -1.53710909280928
 1  4.71964719771977 -1.23407457085709  0.83537327342734
 1  5.28879322472247  0.36377241594159  1.83694149724972
 1  4.34194472007201  4.61731214761476 -0.30908228002800
 1  5.62511560326033  3.39767730093009  0.36832262186219
 1  4.51006803940394  4.28001347344735  1.43524924182418
 1  1.78212899149915  4.93623280068007  0.49665074027403
 1 -7.88883045134513 -2.76100118361836  0.68763003260326
 1 -7.26338040194019 -4.25691207330733  1.20804664506451
 1 -6.91735743274327 -3.55150256635664 -0.38916682828283
 1 -6.93085760806081 -0.60243115161516  0.44637263836384
 1 -4.86839581168117  1.42907772867287 -0.09904716601660
 1 -6.20922930033003  1.25464453945395 -1.03283759985999
 1 -4.75613492549255  0.50408057025703 -1.29963672847285
 1 -3.55617760326033  6.34425883098310  0.88801567806781
 1 -4.21151258945895  4.68018034993499  1.19186521282128
 1  0.11234208970897  6.60838140354035  1.73916375797580
 1 -1.49281539183918  7.16903035773577  1.06624597629763
 1 -0.00802163416342  6.94610689638964 -0.00160920382038
 1 -3.85245315231523  5.53179080478048 -1.89884408690869
 1 -5.50112281948195  5.54494761086109 -1.22293217041704
 1 -4.36020949784978  4.16549671997200 -1.34266377437744
 1  3.98451685218522 -4.10964717721772  1.59527030943094
 1  8.19486751135114 -1.70120950995099  1.64420180318032

