%nproc=4
%Mem=2GB
# td=(NStates=1) B3LYP/SVP 

TD

0 1
 8 -4.23212472327233 -4.89811418261826  1.95942997139714
 8  3.06795082378238 -4.97750905770577  0.91685582288229
 8  6.94213051735174 -1.51056832653265  2.04409708920892
 8  3.74068912641264 -3.10927895289529 -0.16067940734073
 8  7.40990052665267 -0.60092998809881  0.19569353665367
 8 -2.93673926002600  2.34560261106111 -0.34964652605261
 7 -0.21788878357836 -0.51284547764776 -0.46667368026803
 7  1.47683617631763  1.89089952245225 -0.44979655725573
 7 -3.27615960496050 -3.19474058705871  0.61177749634963
 7 -0.73687218291829  2.85545669506951  0.02820897509751
 6  0.63788605290529 -2.39844780318032 -1.41570386548655
 6  0.95533843614361 -0.99780701240124 -0.95590443934393
 6 -0.79483361206121 -2.52379074127413 -1.24780684338434
 6 -1.27867828982898 -1.39450976237624 -0.61834096409641
 6  3.78769723052305  1.53666683318332 -0.46314058085809
 6  2.50385249104910  0.98433025852585 -0.69813399839984
 6  2.23517876807681 -0.39114637253725 -1.01461093569357
 6  3.52432307240724  2.87097689988999  0.02227021732173
 6  1.59796120122012 -3.27656935823582 -2.05710305590559
 6 -5.41928083478348 -2.80976659155916  1.26756402070207
 6 -3.56115997529753 -1.89589456535654  0.26256218801880
 6  2.11239555165517  3.06228622282228 -0.08472084868487
 6 -5.01635433173317 -1.65440440434043  0.55533957785779
 6  5.18809407130713  0.77573249014901 -0.29252821152115
 6 -2.61035585128513 -1.02086064146415 -0.24323079687969
 6 -1.63319298139814 -3.66860661376138 -1.89074939173917
 6 -4.24714438283828 -3.82895712751275  1.33244837043704
 6  2.05242637633763 -4.54313333703370 -1.16576580338034
 6  5.22136093849385 -0.04332245574557  1.07565011221122
 6  4.55241130243024  3.92360520982098  0.31037323762376
 6  1.37865654405441  4.12270682098210  0.33713543414341
 6 -6.81213586418642 -3.40422520232023  0.95695475757576
 6 -5.76676625722572 -0.66091187518752  0.03309047594759
 6 -0.06130404970497  4.01627987778778  0.29202101400140
 6 -1.09288438703870  5.14936246994700  0.44166263176318
 6 -2.27622709640964  4.56851835323532  0.25038094409441
 6  2.97975455745575 -4.06115878607861 -0.05013732453245
 6 -5.39551326082608  0.57287257585759 -0.61230269506951
 6  6.61907178617862 -0.72911838143814  0.97898879707971
 6 -3.67901544444444  5.14301536003600  0.29284379507951
 6 -2.07158671027103  3.13293825482548 -0.13670944074407
 6 -0.72870346144614  6.56596226622662  0.71404045564556
 6 -4.25423498609861  5.58225418211821 -1.10175926742674
 1 -0.06846843174317  0.45045191099110 -0.04657439713971
 1  3.00125748674868 -1.08790693189319 -1.11462154955496
 1  2.58865874717472 -2.81307290389039 -2.45900244734473
 1  1.19224023022302 -3.64833894479448 -3.12059041914191
 1 -5.55177690499050 -2.61902052675268  2.42553309320932
 1  5.16730924342434  0.18011739313931 -1.15290563786379
 1  5.91208977637764  1.49316884498450 -0.17785135973597
 1 -2.75907212491249 -0.00011222092209 -0.30994139163916
 1  0.34486171677168  1.99234907880788 -0.27226467196720
 1 -1.74495923172317 -4.65938050855086 -1.21758126792679
 1 -2.62916302730273 -3.33520410681068 -2.10457859095910
 1 -1.20477565746575 -3.85162223102310 -2.96936252555256
 1 -2.37355974227423 -3.46981671237124  0.61637430263026
 1  1.22983381268127 -5.19748244654465 -0.81958734863486
 1  2.24247035143514 -5.20726483338334 -1.90620600250025
 1  4.45144037703770 -0.76372753615362  1.01111084718472
 1  5.17366171157116  0.58051409010901  1.99511731483148
 1  4.25988651425143  4.80307072347235 -0.32886425822582
 1  5.49001209290929  3.62090962416242  0.07925371497150
 1  4.32609964256426  4.53247871997200  1.33152886978698
 1  2.00518129672967  4.98476765416542  0.78447952315231
 1 -7.46921849014901 -2.59573465696570  1.07669893949395
 1 -6.88122218611861 -4.28517489958996  1.70886672707271
 1 -7.16711240824082 -3.75329274537454 -0.14028193979398
 1 -6.73575809810981 -0.56803771227123  0.39266726782678
 1 -5.08052702480248  1.32677749864987  0.10241297999800
 1 -6.34303268066807  0.95386446144615 -1.10538485458546
 1 -4.58090740274027  0.27937810001000 -1.31514827962796
 1 -3.85757774327433  6.12978738383838  1.09327620412041
 1 -4.47617905610561  4.33075540744074  0.54373039933993
 1  0.16917777327733  6.81823238863886  1.48104794639464
 1 -1.62626873717372  7.19618307300730  1.01426077777778
 1 -0.26193702570257  6.96362864856486 -0.06071511441144
 1 -3.82483039003900  6.51726935263526 -1.67734193669367
 1 -5.37697040424042  5.81189430553055 -1.04774465166517
 1 -4.11118459535954  4.72174234453445 -1.56408591659166
 1  3.77670607110711 -4.64072028452845  1.54033481588159
 1  7.81585961056106 -1.88124751375137  1.76080346334633

