%nproc=4
%Mem=2GB
# td=(NStates=1) B3LYP/SVP 

TD

0 1
 8 -4.28579008980898 -4.89519389058906  1.85573960236024
 8  3.09949397809781 -4.96856816361636  1.07749188648865
 8  7.01371767606761 -1.35846311601160  1.98897157665767
 8  3.77714277177718 -3.22211023602360 -0.01320465986599
 8  7.74496403300330 -0.35774566966697  0.07646161346135
 8 -3.07372295839584  2.50269832063206 -0.36814837623762
 7 -0.30293728842884 -0.50100429352935 -0.61423843674367
 7  1.54698319101910  1.77252768526853 -0.27112869046905
 7 -3.32210419941994 -3.25473658665867  0.62251857045705
 7 -0.76029452515252  3.02401355075508 -0.19264311011101
 6  0.63068533283328 -2.40066802520252 -1.41792408750875
 6  0.84827773007301 -1.03922115381538 -1.05823467236724
 6 -0.73279740844084 -2.58686704890489 -1.29287134983498
 6 -1.31104152615262 -1.39632994439444 -0.72638176817682
 6  3.76027448824882  1.48209137563756 -0.35643991079108
 6  2.48589069486949  0.85054688018802 -0.52409659465947
 6  2.20133538373837 -0.39692695059506 -0.92418189278928
 6  3.55025566566657  2.85422522472247 -0.01289329902990
 6  1.56745815091509 -3.43856555785579 -1.94795214081408
 6 -5.56255516221622 -2.86550216511651  1.26488375267527
 6 -3.62967682698270 -1.79934491039104  0.22992892469247
 6  2.08485279737974  3.04551454565457 -0.01855423202320
 6 -4.99506220252025 -1.64671363526353  0.45239928382838
 6  4.99271453335334  0.74900981788179 -0.53406236493649
 6 -2.67022183788379 -1.02343089848985 -0.43018949274927
 6 -1.53777343944394 -3.94130388348835 -1.52243256005601
 6 -4.34375404380438 -3.81115534733473  1.27623274887489
 6  1.92951408510851 -4.53797282098210 -0.97831705850585
 6  5.35691449384939 -0.04952307580758  0.78026057325733
 6  4.60205626692669  3.74571742104210  0.42563476377638
 6  1.29638831723172  4.13744829512951  0.32250397099710
 6 -6.82448709930993 -3.50762554235423  0.67022608470847
 6 -5.72496207680768 -0.50847663166317  0.10981814871487
 6 -0.13653157245725  4.04270252005201  0.24149596149615
 6 -0.94544964356436  5.16480401410141  0.40282874837484
 6 -2.27193666736674  4.65201670307031  0.23103900990099
 6  3.01117769976998 -4.10723339353935  0.02688037723772
 6 -5.37019072857286  0.64622991159116 -0.63553501830183
 6  6.81873175217522 -0.57896336593659  0.87688858705871
 6 -3.61763930683068  5.29523058155816  0.47391190189019
 6 -2.11273082468247  3.22118707970797 -0.17362313211321
 6 -0.73044363546355  6.57322299229923  0.82112116371637
 6 -4.42946250885089  5.49357531423142 -0.77235632713271
 1 -0.53578516341634  0.53280014581458 -0.47197693739374
 1  3.10450781178118 -0.95300344154415 -1.34730481788179
 1  2.34044392569257 -2.63957555415542 -2.52182872997300
 1  1.05531653785379 -3.92967707860786 -2.80842920302030
 1 -5.78651037833783 -2.72463108780878  2.24794533443344
 1  4.92732524502450 -0.10507112571257 -1.29816016331633
 1  5.82156072347235  1.48235776387639 -0.84874844944494
 1 -2.92244846254626  0.00498828912891 -0.52856325382538
 1  0.75017224782478  1.71383122702270 -0.61606905240524
 1 -1.21038577437744 -4.84172874337434 -1.02815232503250
 1 -2.34539465046505 -3.62543312971297 -1.66119425252525
 1 -0.85394057395740 -4.30351742054205 -2.48527411671167
 1 -2.36902928922892 -3.50917064776478  0.61479414461446
 1  1.01390221952195 -4.86806950525052 -0.51328671857186
 1  2.53749985438544 -5.52635674257426 -1.56240162206221
 1  4.48028326132613 -0.80823198659866  0.93452318841884
 1  5.29133347874787  0.69755579427943  1.65918372147215
 1  4.78564909050905  4.76682709910991 -0.22469384118412
 1  5.73789688138814  3.17266479967997  0.41598738833883
 1  4.30955798839884  4.02766823892389  1.47992370927093
 1  1.95201598019802  5.04133331073107  0.55908698389839
 1 -7.74075564386439 -2.62454753825383  0.90119138873887
 1 -7.24413847774778 -4.54933131523152  1.11443728412841
 1 -6.73837953495349 -3.71275869196920 -0.42548045964596
 1 -6.68137265956596 -0.50791169966997  0.44211221232123
 1 -4.79915888798880  1.42380720162016  0.18288102680268
 1 -6.19829820722072  1.31650072507251 -0.98595291139114
 1 -4.47647695969597  0.63178334053405 -1.52561932673267
 1 -3.19139112461246  6.43734813991399  0.92183906040604
 1 -4.21944338253825  4.72036436833683  1.26605263156316
 1 -0.00805995049505  6.41362192759276  1.65745558715872
 1 -1.71515762606261  7.04979843454345  1.13669302100210
 1 -0.08585941794179  6.72313459915992 -0.11582062496250
 1 -3.91994990199020  6.30511813751375 -1.52403660616062
 1 -5.64547725492549  5.50333344944494 -1.04168404560456
 1 -4.19183266016602  4.46510668096810 -1.19580908890889
 1  3.82399079957996 -4.86312252475247  1.68001878427843
 1  7.98506653125312 -1.57021641064106  1.87027441044104

