%nproc=4
%Mem=2GB
# td=(NStates=1) B3LYP/SVP 

TD

0 1
 8 -4.16052756355636 -4.84687905910591  1.89773380178018
 8  3.01147517621762 -4.91787309410941  0.99017315461546
 8  6.84546085038504 -1.67919518921892  1.89743242274227
 8  3.65918097559756 -2.97795582058206 -0.00163350275028
 8  7.39358889548955 -0.69176907200720 -0.02423845654565
 8 -3.06135172127213  2.53167121792179 -0.45024658605861
 7 -0.27389438413841 -0.52035622872287 -0.62217923082308
 7  1.46366485918592  1.78902933543354 -0.31410298789879
 7 -3.22757474647465 -3.25545665866587  0.60064638323832
 7 -0.74612310801080  2.95027617701770 -0.19785363116312
 6  0.65374763906391 -2.41917987638764 -1.58569086418642
 6  0.93898680098010 -1.12876010771077 -1.02122097099710
 6 -0.77852198089809 -2.63977233943394 -1.34773683638364
 6 -1.24452487448745 -1.40423073447345 -0.70218934893489
 6  3.84011247204720  1.52547571407141 -0.24559882668267
 6  2.42378448424842  0.94275610111011 -0.50726491149115
 6  2.23559881008101 -0.36092335023502 -0.97554702930293
 6  3.54013465356536  2.78092789498950  0.20644863516352
 6  1.70667207230723 -3.32093379467947 -2.10614796039604
 6 -5.34850375707571 -2.79388500340034  1.49827709200920
 6 -3.56131999129913 -1.94961993789379  0.07699363116312
 6  2.01191550365036  3.03977397159716  0.16943456685669
 6 -5.00792348864887 -1.65537450135014  0.70385442934293
 6  5.07708297019702  0.78989390629063 -0.29175813451345
 6 -2.59926474217422 -1.05826438183818 -0.37475394919492
 6 -1.50376003810381 -3.83424317741774 -1.76698701550155
 6 -4.23968363676368 -3.77462169396940  1.34762988858886
 6  2.20323145684568 -4.46549557325733 -1.27018624542454
 6  5.26589539193919 -0.06586470997100  0.95616816401640
 6  4.45934199549955  3.91749459875988  0.62933513381338
 6  1.25842452085209  4.12579713001300  0.38069979057906
 6 -6.66154080468047 -3.59438421822182  1.22619168126813
 6 -5.82500208080808 -0.69406519051905  0.18232539943994
 6 -0.17048496779678  4.11579982978298  0.18992080398040
 6 -1.05401049964996  5.25945347904791  0.44051251675168
 6 -2.32621209490949  4.79262076347635  0.27111301730173
 6  3.05991257325733 -3.98847151735173 -0.07670998179818
 6 -5.39973368286829  0.40518580718072 -0.72025349014901
 6  6.63712359135914 -0.80997646724672  0.91842274047405
 6 -3.68462600550055  5.44169522802280  0.22096660736074
 6 -2.15717526912691  3.30013497449745 -0.18609437923792
 6 -0.60318090919092  6.57897356735674  0.80886993859386
 6 -4.24834439703970  5.71288724542454 -1.23104219571957
 1 -0.19204078897890  0.37108397419742 -0.27554729442944
 1  3.07941530253025 -1.11819996119612 -1.09928001540154
 1  2.64303418471847 -2.88220981758176 -2.59209575667567
 1  1.39830083628363 -3.89099321022102 -3.02728108820882
 1 -5.34545627292729 -2.48423704840484  2.60511105100510
 1  5.05467798029803  0.08464784618462 -1.26259660696070
 1  6.10132870027003  1.43779330743074 -0.52873644824482
 1 -2.86641285898590 -0.04631684138414 -0.57450784828483
 1  0.34335156575658  2.00785062896290 -0.40100754625463
 1 -1.90908564436444 -4.75888045854586 -1.16707621742174
 1 -2.60026013701370 -3.39980056645665 -2.08197633073307
 1 -0.82143732363236 -4.14161122992299 -2.50475606490649
 1 -2.28559094539454 -3.58904863556356  0.42638530373037
 1  1.34163499279928 -5.13115581388139 -0.75697108700870
 1  2.59734583898390 -5.29323343024303 -1.86577195909591
 1  4.45608084108411 -0.81768293169317  0.96469620572057
 1  5.31384572997300  0.32961900060006  1.85982378547855
 1  4.24933545914592  4.82791320772077  0.18850747894789
 1  5.55846893859386  3.56074360756076  0.57877366696670
 1  4.10654768736874  4.14873034513451  1.84481019791979
 1  2.01078185678568  4.82182135953595  0.72933400860086
 1 -7.60496206450645 -2.75601068456846  1.19567083668367
 1 -6.76304036793679 -4.27439382148215  2.03956979737974
 1 -6.55513121012101 -4.24440185628563  0.17040912931293
 1 -6.87633215551555 -0.47980888938894  0.42581058215822
 1 -4.80555952805281  1.07173199409941 -0.25106236753675
 1 -6.17998637603760  0.72314138913891 -1.29066338243824
 1 -4.80853016501650  0.34159432163216 -1.45652241704170
 1 -3.64853683918392  6.29655406050605  0.69081595809581
 1 -4.36966840504050  4.71507383928393  0.63214924122412
 1 -0.20606975147515  6.46118668406841  1.73403324492449
 1 -1.36935304560456  7.27291074577458  0.62379173087309
 1  0.09474864286429  6.95515780148015 -0.12772181508151
 1 -3.64331223822382  6.45560318601860 -1.81737594009401
 1 -5.31792449964996  6.11733484958496 -1.09685956315632
 1 -4.20227370427043  4.89239941024102 -2.04224373237324
 1  3.81297969846985 -4.69830604310431  1.62625340774077
 1  7.77148517311731 -1.96667605660566  1.58796617961796

