%nproc=4
%Mem=2GB
# td=(NStates=1) B3LYP/SVP 

TD

0 1
 8 -4.16657816861686 -4.81254562576258  1.85058908730873
 8  2.90340436913691 -4.84946625342534  0.99091322862286
 8  6.81881818611861 -1.64945221492149  1.92379505900590
 8  3.81547660516052 -3.17911593659366 -0.15169850925093
 8  7.45969550615061 -0.60714060916092  0.12601656895690
 8 -2.98585417151715  2.29495754655466 -0.31015257665767
 7 -0.25136213091309 -0.45185937903790 -0.65330234313431
 7  1.51888038073807  1.88649908240824 -0.46403798139814
 7 -3.20410239923992 -3.07683879687969  0.72346866546655
 7 -0.78521701740174  2.81899304870487  0.00064621882188
 6  0.72096436073607 -2.29762772117212 -1.38646094119412
 6  0.94259716201620 -0.97950518221822 -0.96188503740374
 6 -0.67131125982598 -2.54611297349735 -1.36494855755576
 6 -1.24329475147515 -1.29538985038504 -0.77582671267127
 6  3.81524998579858  1.54762792929293 -0.36825109190919
 6  2.51364347014701  0.94158598409841 -0.60572475747575
 6  2.34402965316532 -0.36891414931493 -0.96140561516152
 6  3.55608624872487  2.88428823102310  0.00901889218922
 6  1.68699010411041 -3.30683238453845 -2.08939628522852
 6 -5.47489639633963 -2.83075869076908  1.36559382368237
 6 -3.56794065336534 -1.83197817371737  0.23327925972597
 6  2.12730704280428  3.12244223842384 -0.01992436903690
 6 -4.97090978727873 -1.59050801470147  0.61008505240524
 6  5.11251651355136  0.76685160206021 -0.30632959165917
 6 -2.60292510821082 -0.98134669006901 -0.35623209700970
 6 -1.46727638973897 -3.71816156925693 -1.78955927272727
 6 -4.21794146254626 -3.68336256805681  1.35474059965997
 6  1.91658279197920 -4.45192421612161 -1.14883411021102
 6  5.45145394779478  0.00255213171317  1.04232677987799
 6  4.54247030833083  3.84001685098510  0.46934913521352
 6  1.27451613001300  4.07914246454645  0.25298701930193
 6 -6.77813246384638 -3.47823260306031  1.02804186628663
 6 -5.75834541514151 -0.62180796479648  0.07460462736274
 6 -0.17646556585659  3.99501775157516  0.23607541944194
 6 -1.15649074767477  5.02398993269327  0.47891635713571
 6 -2.36237571127113  4.37449895129513  0.28874478047805
 6  2.99117569956996 -4.09447211741174 -0.07152946374637
 6 -5.46017972747275  0.64564985358536 -0.65087655245525
 6  6.60224010301030 -0.76038150775078  0.99323022122212
 6 -3.76698424132413  5.24271533003300  0.24137864856486
 6 -2.15697524912491  3.08310327132713 -0.03969973977398
 6 -0.71926251735173  6.51047671767177  0.88047709930993
 6 -4.23699326192619  5.44538049474947 -1.19942903440344
 1 -0.19141072597260  0.28975584138414  0.02063232353235
 1  3.17828518951895 -1.00235837703770 -0.93020310771077
 1  2.57783766506651 -2.79508110471047 -2.47375392249225
 1  1.09556056225623 -3.93031714261426 -2.85949430953095
 1 -5.63912563986399 -2.47807643234323  2.38591913181318
 1  5.21681419391939  0.05594497589759 -1.21172151945194
 1  5.89087765516552  1.55129465756576 -0.74921849644965
 1 -2.72229844754475  0.17619540984098 -0.23108350585058
 1  0.57401463206321  2.09734957885789 -0.52806025152515
 1 -1.58817355315532 -4.37094166466647 -0.95029453925393
 1 -2.49487959895990 -3.51793237963796 -2.22277041014101
 1 -1.03804898479848 -4.12434950375038 -2.66160174947495
 1 -2.43542592889289 -3.52322205290529  0.68237090229023
 1  1.11010183948395 -4.97292999129913 -0.69211460136014
 1  2.37357346174617 -5.19590369726973 -1.61049643154315
 1  4.51102633563356 -0.69608077147715  1.03430316641664
 1  5.32773711911191  0.58758479717972  1.92957076017602
 1  4.27645817141714  4.75396581298130 -0.26422779457946
 1  5.63483657535754  3.60808834203420  0.05505129472947
 1  4.32447948054805  4.26436190829083  1.49234495139514
 1  1.49628040664066  5.12312148954896  0.54644571977198
 1 -7.64412598089809 -2.84579966346635  1.34641591119112
 1 -6.85339940384038 -4.44048043014301  1.65560140054005
 1 -7.00516621362136 -3.58278569466947 -0.08440635223522
 1 -6.83798832113211 -0.82890379887989  0.51990999209921
 1 -4.69175814791479  1.29570439133913 -0.24322158345835
 1 -6.19557793519352  1.31954102910291 -0.86628094419442
 1 -4.95002431443144  0.28165832803280 -1.55106187098710
 1 -3.74784677017702  6.24178858395840  0.75669254575458
 1 -4.46384782298230  4.65514784668467  0.80964699099910
 1 -0.14166331083108  6.55537610301030  1.70672051365136
 1 -1.45863197349735  7.17451090579058  0.86754610631063
 1 -0.30657148914891  6.87162944864486  0.07903886098610
 1 -3.41727963496350  5.98544617031703 -1.79595379787979
 1 -5.10838354555455  5.93942705880588 -1.18676855405541
 1 -4.29736321322132  4.30346051635164 -1.81741124912491
 1  3.52455085558556 -4.46105231773177  1.58271905430543
 1  7.54993301790179 -2.25269465846585  1.68180556355636

