%nproc=4
%Mem=2GB
# td=(NStates=1) B3LYP/SVP 

TD

0 1
 8 -4.14286579737974 -4.85949032023202  1.87541156955696
 8  2.95666969566957 -4.86073738053805  0.96469060636064
 8  7.03449975427543 -1.45585285498550  1.92415509500950
 8  3.67933299079908 -3.04508253325332 -0.12481582098210
 8  7.49722925952595 -0.54049394449445  0.01213518081808
 8 -3.05002058815882  2.40277832863286 -0.55411697309731
 7 -0.34710170487049 -0.53450764386439 -0.49799681258126
 7  1.51026951965197  1.77922835533553 -0.39391096869687
 7 -3.25744773377338 -3.19330044304430  0.62939925852585
 7 -0.79389788548855  2.78869001840184 -0.10973481928193
 6  0.66843910821082 -2.36441439983998 -1.51614390949095
 6  0.91712461476148 -1.04823205490549 -0.98822767166717
 6 -0.78997312601260 -2.52418078027803 -1.38914097679768
 6 -1.24144456645665 -1.46219653105311 -0.72294142414241
 6  3.78291675247525  1.49007217371737 -0.23280754755476
 6  2.52842494829483  0.93508533403340 -0.51100528552855
 6  2.20757600780078 -0.45548280618062 -0.91806128072807
 6  3.50216085618562  2.86702650485049  0.09260725102510
 6  1.65289669476948 -3.36929863116312 -2.07708505410541
 6 -5.47166607330733 -2.82105772067207  1.44178144244424
 6 -3.55992985228523 -1.85533050895089  0.19315524732473
 6  2.02747705980598  2.99435943014301  0.06020364376438
 6 -5.01671436773677 -1.60486945084508  0.55305934983498
 6  5.13175843774377  0.82003692059206 -0.29281824052405
 6 -2.65370018571857 -1.01236979237924 -0.32860933473347
 6 -1.49111877397740 -3.78271802490249 -1.82492280908091
 6 -4.26031569997000 -3.78251248304830  1.40709583518352
 6  2.08820995469547 -4.50740976467647 -1.18975820262026
 6  5.32035083748375 -0.11281940544054  0.91189373657366
 6  4.56560262156216  3.85670852015202  0.62135433573357
 6  1.26124480288029  4.07926247654765  0.33236495709571
 6 -6.75677032763276 -3.44496927672767  1.03056211831183
 6 -5.75020460106011 -0.57766355035504  0.18060522742274
 6 -0.11924984428443  3.89591784158416  0.24424623652365
 6 -1.06115121372137  5.09428696239624  0.50826929242924
 6 -2.28555802950295  4.66018752015202  0.19067497349735
 6  2.92907948994899 -3.99709237943794 -0.01989430023002
 6 -5.48353206270627  0.63673896249625 -0.52709417421742
 6  6.70912079107911 -0.66236170577058  0.95459635783578
 6 -3.63743128602860  5.26952801130113  0.14497900860086
 6 -2.20683023462346  3.17002196319632 -0.16684245404540
 6 -0.62749334043404  6.49340501050105  0.91407045864586
 6 -4.22536209880988  5.60689664636464 -1.21720081158116
 1 -0.26466805170517  0.38139500530053 -0.05306504620462
 1  2.97107446844684 -1.23486162736274 -1.03726381378138
 1  2.27623750505051 -2.65920751735174 -2.67607415451545
 1  1.14578558475848 -3.87447155805580 -2.94191255135514
 1 -5.50921264856486 -2.35257388208821  2.29019955985599
 1  5.27279979247925  0.23589297069707 -1.22817316461646
 1  6.02205077247725  1.67218674677468 -0.32502607720772
 1 -2.80414663236324  0.01165895619562 -0.46412681018102
 1  0.32701993259326  1.80745058895890 -0.86216366186619
 1 -1.35888062386239 -4.54448901940194 -1.05863537333733
 1 -2.47901801280128 -3.65790637703770 -1.92571070417042
 1 -1.00238541844184 -4.29999706850685 -2.72369795909591
 1 -2.20564295059506 -3.37480721142114  0.71637430263026
 1  1.27898872817282 -4.99538223652365 -0.67005239513951
 1  2.69382548694870 -5.36963107000700 -1.64098948084809
 1  4.80548578157816 -1.02119328272827  0.89210894699470
 1  5.06196054145415  0.38672471117112  1.83753155625563
 1  4.42088261386139  4.92290270667067  0.06967559575958
 1  5.58138122982298  3.64458199139914  0.03249903950395
 1  4.62649968256826  4.04369984208421  1.62690840774077
 1  1.70937171577158  5.03291246864686  0.61285236043604
 1 -7.71803337163716 -2.95572065556556  1.15043631323132
 1 -6.93999806370637 -4.30785716781678  1.66238207860786
 1 -6.69450514751475 -3.70741815791579 -0.11216912851285
 1 -6.81055557785779 -0.65057596609661  0.56301430253025
 1 -4.71858083018302  1.42760758165817  0.00808354705471
 1 -6.34089246664666  1.25084415941594 -0.95036935303530
 1 -4.95355466746675  0.55934609680968 -1.50538730353035
 1 -3.66053803930393  6.17849225432543  0.91560843734373
 1 -4.36415785398540  4.82468480038004  0.85924195049505
 1  0.10175103060306  6.44191475687569  1.73115295689569
 1 -1.68580469076908  6.92482593729373  0.94638399009901
 1 -0.13007383938394  6.78487077277728 -0.01658070097010
 1 -3.53354126112611  6.27580520622062 -1.71040524302430
 1 -4.98387109430943  6.27820093619362 -1.36788666586659
 1 -4.42168564546455  4.78738890919092 -1.86329583758376
 1  3.73116151665167 -4.74258047054705  1.67402818521852
 1  8.10280830543054 -1.50452984198420  2.06209359235924

