%nproc=4
%Mem=2GB
# td=(NStates=1) B3LYP/SVP 

TD

0 1
 8 -4.27253876467647 -4.92057642884288  1.71285531393139
 8  2.80205423412341 -4.82818412521252  1.19557369466947
 8  7.10827713201320 -1.53839110881088  1.82347502700270
 8  3.82882794029403 -3.27417544254425  0.02382904350435
 8  7.76085562216222 -0.53787368246825 -0.10179621232123
 8 -3.18279386548655  2.44440249104911 -0.28596015741574
 7 -0.22982997769777 -0.54741893499350 -0.52117913081308
 7  1.51513000570057  1.91302173467347 -0.27514909250925
 7 -3.25087707670767 -3.10770188318832  0.64570088868887
 7 -0.88511700740074  2.93106425582558 -0.11924577037704
 6  0.60388265256526 -2.34614257265727 -1.49381167626763
 6  0.95491839413941 -1.09001623332333 -0.99881873077308
 6 -0.71222535123512 -2.59793815601560 -1.30412247494749
 6 -1.34206462846285 -1.38644895629563 -0.68427755775578
 6  3.72874133493349  1.42789595609561 -0.31085535233523
 6  2.39189129492949  0.87708953445345 -0.41102528752875
 6  2.20676592679268 -0.51157841574157 -0.84076355095510
 6  3.60034067416742  2.80902070427043  0.09710770107011
 6  1.62082348744874 -3.39998169946995 -2.01233857945795
 6 -5.51339024572457 -2.86076169106911  1.25586285058506
 6 -3.55068892819282 -1.82162713861386  0.19826575837584
 6  2.04859917201720  3.10446044024402  0.10701832523252
 6 -5.00057275357536 -1.58428739263926  0.52589663356336
 6  5.08614387628763  0.79051396829683 -0.40563952265226
 6 -2.63299811551155 -1.04112266766677 -0.36819329312931
 6 -1.42333199529953 -4.01141089418942 -1.73343366016602
 6 -4.31772144054405 -3.80109434123412  1.28193331893189
 6  2.10119125282528 -4.54812383608361 -1.14541376817682
 6  5.39142794519452 -0.10023814731473  0.75186773397340
 6  4.48701476277628  3.97489033833383  0.58454065436544
 6  1.23876255465547  4.17823237353735  0.23169489008901
 6 -6.70985563616362 -3.63535831563156  0.89551861396140
 6 -5.85176475707571 -0.57928371237124  0.17697486438644
 6 -0.20446836613661  4.06242449224922  0.19760157205721
 6 -1.08865396399640  5.19645717941794  0.35741420692069
 6 -2.32979245294529  4.71684318571857  0.14546045204520
 6  3.01977855985599 -4.15572824302430  0.07667535673567
 6 -5.57306101560156  0.60242553115312 -0.67740920572057
 6  6.87475735473547 -0.68667413701370  0.73828472667267
 6 -3.64709225212521  5.35832689118912  0.27109161986199
 6 -2.17948750035003  3.25788074907491 -0.07449321912191
 6 -0.60962155325533  6.61618728872887  0.96159521112111
 6 -4.14612417501750  5.68469442614261 -1.14805389688969
 1 -0.42386397129713  0.33909077487749  0.04024428472847
 1  3.17369473047305 -1.08521666286629 -0.98544863226323
 1  2.50797067836784 -2.98007960456046 -2.43012956005601
 1  1.17321832803280 -3.82094620552055 -2.85422378247825
 1 -5.84958668596860 -2.73243186788679  2.34557509740974
 1  5.41693420592059  0.25977535893589 -1.28837918521852
 1  5.81817038443844  1.58999852795280 -0.55269884448445
 1 -2.85971218891889 -0.02410462016202 -0.45855625312531
 1  0.61959919051905  1.94535437933793 -0.46664410991099
 1 -1.33312804860486 -4.62449702020202 -0.86897640744074
 1 -2.50109022002200 -3.78697928432843 -1.89732786588659
 1 -0.94487966786679 -4.01707877667767 -2.76004159345935
 1 -2.35310769706971 -3.70266999769977  0.49758242344234
 1  1.11674250355036 -4.99406210451045 -0.75026041594159
 1  2.57481358575858 -5.21340544744475 -1.67494287618762
 1  4.66401163416342 -1.01532269566957  1.08844858095810
 1  5.37590193559356  0.49663570227023  1.75104290739074
 1  4.26541706730673  4.91050146654665  0.07444607280728
 1  5.49190228192819  3.66348388158816  0.16526231583158
 1  4.31309834243424  4.15422089418942  1.68487420432043
 1  1.67670844944494  5.13468264566457  0.79864093929393
 1 -7.76666823512351 -3.13716880038004  1.11104237383738
 1 -6.96448051195120 -4.43757013911391  1.76862270267027
 1 -6.68835453245325 -3.86801421752175 -0.01481939353935
 1 -6.87074159645964 -0.72532344084408  0.83308130923092
 1 -5.13952292439244  1.50065488638864 -0.12911017231723
 1 -6.43878225562556  0.67253632863286 -1.24614893099310
 1 -4.69299861186119  0.29761992419242 -1.42084884968497
 1 -3.55198718421842  6.29719412451245  0.71281815831583
 1 -4.38556999519952  4.69641197309731  0.77590361666167
 1 -0.55603474797480  6.38603916931693  2.10150999259926
 1 -1.40925703600360  7.56145960066007  0.96895624732473
 1  0.10924009200920  6.85841812751275  0.24296525362536
 1 -3.49973788078808  6.40609823552355 -1.73254745724572
 1 -5.26104881208121  6.11597471357136 -1.07456733393339
 1 -4.41783526042604  4.79913008330833 -1.63236274427443
 1  3.36348474897490 -4.51445765826583  1.88094887728773
 1  8.10693871847185 -1.56642603160316  1.87875525852585

