%nproc=4
%Mem=2GB
# td=(NStates=1) B3LYP/SVP 

TD

0 1
 8 -4.30688219901990 -4.90031440264026  1.87718174657466
 8  2.97580160886089 -4.72950425722572  1.07458159545955
 8  7.01061736603660 -1.53963123282328  1.79192187168717
 8  3.81621667916792 -3.15066309130913 -0.14719805920592
 8  7.63414295089509 -0.45839573467347 -0.11731776447645
 8 -3.05943152925293  2.40891894269427 -0.43626518791879
 7 -0.20177717241724 -0.56118031113111 -0.49128614151415
 7  1.48296678937894  1.80489092159216 -0.27086866446645
 7 -3.21551354035404 -3.06303741674167  0.74898121672167
 7 -0.74462295799580  2.96060721012101 -0.12157600340034
 6  0.66571883618362 -2.45171312971297 -1.28302059715972
 6  0.92049495179518 -1.08746597829783 -0.99238808770877
 6 -0.75772990169017 -2.58937729992999 -1.30658272097210
 6 -1.22907332933293 -1.38132844424442 -0.63322245224522
 6  3.79290775157516  1.55452861936194 -0.37903217001700
 6  2.45549765556556  0.84060588608861 -0.48161234623462
 6  2.24270952115212 -0.47083434133413 -0.95378485308531
 6  3.49677031713171  2.77629743194319  0.13720171047105
 6  1.67122852795280 -3.44884658595860 -1.94668201380138
 6 -5.51461036773677 -2.77746336123612  1.34813207750775
 6 -3.57947180648065 -1.79293426932693  0.21037696949695
 6  2.08111242334233  2.92806280048005  0.15988361176118
 6 -5.06704940124012 -1.52522148604860  0.56898094199420
 6  5.02500776267627  0.82067698459846 -0.35422438113811
 6 -2.61713652935294 -0.98641719711971 -0.39965643944394
 6 -1.39101876397640 -3.81804155725573 -1.74799511631163
 6 -4.27609727812781 -3.75921015281528  1.36546167176718
 6  2.06865799949995 -4.58469749344934 -1.10218944574457
 6  5.35235403780378 -0.19961808530853  0.81720426762676
 6  4.46710277157716  3.79923277257726  0.66831903220322
 6  1.32525120352035  4.02756730703070  0.40930265086509
 6 -6.69785443604360 -3.48123290309031  0.82019108120812
 6 -5.85559514011401 -0.55780156415642  0.07607477437744
 6 -0.12520043934393  4.08623687348735  0.26530834273427
 6 -1.15499059765977  5.07383491719172  0.45856432193219
 6 -2.34487396109611  4.55778728012801  0.20672657865787
 6  3.09032561456146 -4.17222989318932 -0.03959627042704
 6 -5.39000270977098  0.62995828442844 -0.72144360916092
 6  6.81005088408841 -0.64875034463446  0.75948684688469
 6 -3.61742928582858  5.36328738723872  0.20470498119812
 6 -2.21371092269227  3.13245820682068 -0.09030480028003
 6 -0.78039863096310  6.51244691469147  0.84763381498150
 6 -4.35380494309431  5.70762671937194 -1.19227831933193
 1 -0.35432701760176  0.42428929472947 -0.10331007070707
 1  3.17180454145415 -1.02042018321832 -1.30312039943994
 1  2.48480836213621 -2.78404000060006 -2.10325687278728
 1  1.11871287748775 -3.76848095899590 -2.72635099519952
 1 -5.71311303860386 -2.37334595929593  2.40053059295930
 1  5.15985849834984  0.12922230363036 -1.31462180948095
 1  5.79260782818282  1.58698822692269 -0.48954252885288
 1 -2.93894011171117  0.12587037733773 -0.55596599409941
 1  0.46230346094609  1.95628547244725 -0.59716716221622
 1 -1.56469120492049 -4.71171574207421 -1.16361587138714
 1 -2.56805691669167 -3.57289787618762 -2.00957909100910
 1 -0.99370455035504 -4.27993506230623 -2.62758834813481
 1 -2.43063544984498 -3.51363109380938  0.62476514171417
 1  1.34110493979398 -4.93701639993999 -0.58877426732673
 1  2.61432753715371 -5.35308941584158 -1.77044242614261
 1  4.55285051805180 -1.07577874127413  0.88604834093409
 1  5.31072541794179  0.47774381308131  1.74478228132813
 1  4.22573309890989  4.80315073147315 -0.07235860766077
 1  5.50814390609061  3.33693122632263  0.61187697729773
 1  3.95886291889189  4.32295776787679  1.62348806570657
 1  1.79011979057906  5.02870204760476  0.72981405660566
 1 -7.64419598789879 -2.84833991749175  0.58119938953895
 1 -6.83615767966797 -4.48087446954695  1.36528236863686
 1 -6.52696839383938 -3.58958637473747 -0.29719763136314
 1 -7.02466698899890 -0.51767267576758  0.43715171627163
 1 -4.77399637173717  1.31653647454746 -0.06438369966997
 1 -6.40506888428843  1.16861593659366 -0.84460877697770
 1 -4.58943825582558  0.41112127432743 -1.49844660946095
 1 -3.66705869136914  6.29002340744074  0.58851572807281
 1 -4.23207464566457  4.79225155705570  0.99578560486049
 1 -0.14010315481548  6.34070463586359  1.68487832943294
 1 -1.59086519681968  7.11147460216022  1.33710306200620
 1 -0.27388822082208  7.01882416811681  0.00520147724772
 1 -3.54230213721372  6.28954658035804 -1.86209041154115
 1 -5.26792950015002  6.31105422152215 -1.14695457265727
 1 -4.78509198609861  4.84018418871887 -1.71030053805381
 1  3.49470787128713 -4.31653786628663  1.64517529992999
 1  7.97461548614861 -1.79643903290329  1.63612099509951

