%nproc=4
%Mem=2GB
# td=(NStates=1) B3LYP/SVP 

TD

0 1
 8 -4.31694320512051 -4.85538991019102  1.90684471287129
 8  2.95222925162516 -4.77694900170017  1.15454959225923
 8  6.75904220852085 -1.72636990669067  1.76816949644964
 8  3.92592765026503 -3.11530955595560 -0.10992433183318
 8  7.55999553615362 -0.49032892799280  0.03355732303230
 8 -3.07435302140214  2.39064711551155 -0.36115767716772
 7 -0.22761975667567 -0.55649984308431 -0.56341335423542
 7  1.54170266296630  1.88508894139414 -0.31855343294329
 7 -3.24184617361736 -3.13993510651065  0.63684000260026
 7 -0.90254875057506  2.90162131153115 -0.07481132693269
 6  0.61507377167717 -2.43331128952895 -1.48156045114511
 6  1.02632553485348 -1.06892412411241 -1.07070591949195
 6 -0.66626075477548 -2.58933729592959 -1.27270933363336
 6 -1.28454887688769 -1.46341665306531 -0.73279240924092
 6  3.65523398419842  1.53675684218422 -0.26741100790079
 6  2.45515762156216  0.88469029452945 -0.44615880088009
 6  2.20503575377538 -0.40796805470547 -0.91558103270327
 6  3.47281792189219  2.85840564276428  0.13261125142514
 6  1.65399680478048 -3.39713141444144 -2.12371971757176
 6 -5.52737164386439 -2.80410602550255  1.28159542384238
 6 -3.55842970227023 -1.88040301620162  0.17193312511251
 6  2.09315362746275  3.07296729092909  0.05433305670567
 6 -5.01212390869087 -1.61888085198520  0.48076212011201
 6  5.06272153405341  0.90128504540454 -0.31032999169917
 6 -2.58740355605561 -1.00271882728273 -0.37121359515952
 6 -1.50184984708471 -3.78784853795380 -1.66752706950695
 6 -4.28887855625563 -3.77251148294829  1.31941706730673
 6  2.15393652735274 -4.48851787548755 -1.08874810161016
 6  5.28703750615062 -0.16162428592859  0.76956950415042
 6  4.45494155545555  3.85028787808781  0.40662286258626
 6  1.27063574197420  4.11882643294329  0.31052277287729
 6 -6.73137778837884 -3.57005178497850  0.95220428252825
 6 -5.69037861846185 -0.55718150215021  0.19010617751775
 6 -0.13827174647465  4.03650189999000  0.26832864476448
 6 -1.08684378297830  5.06761429512951  0.49542800830083
 6 -2.29454892859286  4.59908140954095  0.29521542754275
 6  3.19937651965197 -4.07013968416842  0.00441813101310
 6 -5.41328503800380  0.62387767636764 -0.65417688248825
 6  6.68736861586159 -0.71056652625263  0.86114701290129
 6 -3.65603314621462  5.33321437993799  0.25008951965197
 6 -2.21013056465647  3.11680664166417 -0.07666343614361
 6 -0.74835542664266  6.54320999099910  0.78534758635864
 6 -4.06951651425143  5.74057001370137 -1.14526361786179
 1 -0.33999558445845  0.42491935773577  0.03955421572157
 1  3.19815717671767 -1.03499164036404 -1.03912399979998
 1  2.41218109940994 -2.87022861946195 -2.80918746584658
 1  1.07504851105110 -3.93645775667567 -3.03687204730473
 1 -5.70372209950995 -2.32275089978998  2.33928446834683
 1  5.29974248674868  0.23750313171317 -1.26423677097710
 1  5.94071263866387  1.54866439453945 -0.16277985258526
 1 -2.63021923962396  0.22574036433643 -0.43690408790879
 1  0.56274350495050  1.77854769866987 -0.58482592809281
 1 -1.48595333113311 -4.70877544804480 -1.06945645544554
 1 -2.56275638663866 -3.63348393479348 -1.47277541064106
 1 -1.25965114501450 -4.22150921972197 -2.80668625792579
 1 -2.22167455375538 -3.33032276297630  0.76581924712471
 1  1.31236206550655 -4.77583028132813 -0.49839522942294
 1  2.55903200760076 -5.59485359225923 -1.56407178907891
 1  4.39968520152015 -1.06644780818082  0.76955669176918
 1  5.09344368976898  0.22640867956796  1.83419122222222
 1  4.14507503310331  4.99224964136414  0.02429105730573
 1  5.47328041974197  3.64734226742674 -0.03734794519452
 1  4.48383541614161  4.23943941604160  1.40720643754375
 1  1.64531531013101  5.11931110851085  0.73738481368137
 1 -7.57282885118512 -2.94904998849885  1.09265053465347
 1 -6.68366243014301 -4.57362374447445  1.55090093049305
 1 -6.57924362136214 -3.84613202930293 -0.08417632923292
 1 -6.75778030033003 -0.53119402790279  0.55565356645665
 1 -4.72977194929493  1.31922674357436 -0.05541280258026
 1 -6.45374375177518  1.33866294129413 -0.77676199229923
 1 -4.91349066106611  0.66286644884488 -1.47930469526953
 1 -3.72069405490549  6.24836924202420  1.00200707720772
 1 -4.60623206140614  4.37599993189319  0.39094512081208
 1 -0.70901004550455  6.67909847524752  2.07414725632563
 1 -1.60773688398840  7.15861931663166  0.33432278397840
 1  0.37646681468147  6.65776806250625  0.19875083218322
 1 -3.62295020202020  6.70521814751475 -1.62143634613461
 1 -5.12242494969497  5.97838095419542 -1.24216409360936
 1 -3.94751822872287  4.91184135443544 -1.97662717071707
 1  3.80008840934093 -4.61943815631563  1.67094787718772
 1  7.67657568216822 -2.06780616961696  1.89110649364936

