%nproc=4
%Mem=2GB
# td=(NStates=1) B3LYP/SVP 

TD

0 1
 8 -4.23479499029903 -4.97935230643064  1.72830685908591
 8  2.81350537923792 -5.01247255405540  1.01413555085509
 8  6.84735103940394 -1.47887515721572  1.90738341784178
 8  3.75051010851085 -3.24055208020802 -0.09068240764076
 8  7.64533407000700 -0.47054694979498 -0.01425745844584
 8 -3.15265085118512  2.38475652645265 -0.36083764516452
 7 -0.19983697839784 -0.43193738683868 -0.58845585848585
 7  1.52460095279528  1.80797122962296 -0.19922149974998
 7 -3.25395738473847 -3.22497361036104  0.76272259085909
 7 -0.81365986168617  2.89970111951195  0.02164831903190
 6  0.67944020832083 -2.36823478187819 -1.49912220732073
 6  1.03307620992099 -1.03972120382038 -1.01188003690369
 6 -0.68976310501050 -2.54197255945595 -1.22719478217822
 6 -1.17596801880188 -1.34848515991599 -0.72653178317832
 6  3.82615107590759  1.52536570307031 -0.30034430123012
 6  2.62542464826483  0.87157898339834 -0.52894707970797
 6  2.23789904010401 -0.39110636853685 -0.85672514711471
 6  3.46920756085609  2.87604740694069  0.08272626292629
 6  1.65429683478348 -3.32155385668567 -2.07495484108411
 6 -5.46075498219822 -2.85266088098810  1.36225348964896
 6 -3.53280714001400 -1.92093706960696  0.26898283008301
 6  2.03837814991499  2.98968896309631  0.15348297169717
 6 -4.92916561286129 -1.69211817571757  0.55910995489549
 6  5.08484374627463  0.94215913281328 -0.30612957165717
 6 -2.55259007470747 -1.05133368876888 -0.34465093889389
 6 -1.51308097019702 -3.78697845094509 -1.72795311211121
 6 -4.29152882128213 -3.87664189598960  1.33045817141714
 6  2.01857299099910 -4.53261228492849 -1.21357058385839
 6  5.32231103350335 -0.19224734823482  0.72865541274127
 6  4.50216627792779  4.00873372267227  0.56109831013101
 6  1.24969364776478  4.12307685798580  0.44448616921692
 6 -6.84204885548555 -3.37665244504450  1.05747480958096
 6 -5.71744132473247 -0.60866665066507  0.24421158805881
 6 -0.19026694599460  4.04264251405140  0.32625443734373
 6 -1.09922502110211  5.25769330303030  0.39799826532653
 6 -2.39356883058306  4.66099760116012  0.17753365936594
 6  2.94265084708471 -4.17385005520552 -0.01699401020102
 6 -5.51801551105111  0.53522881148115 -0.68903036783678
 6  6.76807668666867 -0.72573804340434  0.76362726092609
 6 -3.70236777967797  5.31889294779478  0.15800031073107
 6 -2.22672222382238  3.16698165916592 -0.10871664146415
 6 -0.63175376647665  6.59284495449545  0.70175922752275
 6 -4.08554811741174  5.73841979867987 -1.27790688218822
 1 -0.21759334423442  0.48203506930693  0.09530979127913
 1  3.04678203920392 -1.23366150735074 -1.25210529792979
 1  2.53215309660966 -2.36427802440244 -2.16390293739374
 1  1.26651765796580 -3.85039915081508 -3.01787014711471
 1 -5.66861858915892 -2.49232785748575  2.42155269516952
 1  5.34430694319432  0.41390077147715 -1.35620596789679
 1  6.06435500290029  1.66074560266027 -0.24248782338234
 1 -2.76675289298930  0.01400919121912 -0.30740113761376
 1  0.43959118971897  1.88191803570357 -0.59976742224222
 1 -1.34974971077108 -4.82051662216222 -1.13984349414941
 1 -2.55529564056406 -3.52561314771477 -1.81373950705070
 1 -1.16342152205221 -4.16367343614361 -2.63165875517552
 1 -2.25587797409741 -3.71851158185819  0.61019368456846
 1  1.18491932123212 -5.27874057235724 -0.86206159605961
 1  2.73760986538654 -5.27315142204220 -1.61387676957696
 1  4.48683391639164 -0.88005916931693  0.59618935503550
 1  5.35003934933493  0.31649768846885  1.67277508060806
 1  4.49535006060606  4.90323073947395  0.03277190539054
 1  5.58610170187019  3.68624615781578  0.28954474407441
 1  4.41831886448645  4.09187465956596  1.65510122702270
 1  1.82044282288229  5.10909008640864  0.58177925312531
 1 -7.81050261856186 -2.93759884338434  1.54950622022202
 1 -6.84559862376238 -4.46213259535954  1.40633647404740
 1 -7.09599529652965 -3.34169158525853 -0.09132704430443
 1 -6.72047656995700 -0.78997990649065  0.51422942404240
 1 -4.99308828092809  1.29903472437244 -0.14186144744474
 1 -6.52266064346435  1.07710678567857 -0.94607892399240
 1 -4.89259857185719  0.47630779297930 -1.75530229502950
 1 -3.70826281178118  6.27597200230023  0.69605648214821
 1 -4.44140557875788  4.56308864076408  0.46219224552455
 1  0.14506536203620  6.83460402580258  1.62693253485349
 1 -1.74586069636964  7.10834428912891  1.07855720742074
 1 -0.30958179017902  7.18199048474848 -0.19236827972797
 1 -3.15066297329733  6.32352997869787 -1.86576077857786
 1 -5.05470817801780  6.20754387048705 -1.44235411261126
 1 -4.19220269716972  4.78538870917092 -1.97482699069907
 1  3.38296669716972 -4.71298751125112  1.55186596899690
 1  7.69422744734473 -2.02632202120212  2.12467985098510

