%nproc=4
%Mem=2GB
# td=(NStates=1) B3LYP/SVP 

TD

0 1
 8 -4.25210672147215 -4.84153852505251  1.83882791119112
 8  2.81822585128513 -4.91715302210221  1.17722185948595
 8  7.15528183248325 -1.39755702540254  1.90262294179418
 8  3.72742780028003 -3.29041706670667  0.02842950355035
 8  7.62449198579858 -0.64023391849185 -0.14116014871487
 8 -3.07481306740674  2.36233428422842 -0.41656321772177
 7 -0.18951594629463 -0.52000619371937 -0.71782879577958
 7  1.50570906360636  1.87816824932493 -0.38858043564356
 7 -3.18495048404841 -3.13468458145815  0.71197751635164
 7 -0.85221371707171  2.86749789918992 -0.14726857265727
 6  0.59329159345935 -2.43690164856486 -1.48425072017202
 6  0.96303920622062 -1.06286351805181 -1.03069191809181
 6 -0.72839696839684 -2.57731609380938 -1.38125018771877
 6 -1.23526394839484 -1.41575188658866 -0.78803793379338
 6  3.79805826662666  1.58772193869387 -0.24828909570957
 6  2.50649275507551  0.88765059055906 -0.58077226222622
 6  2.24806005620562 -0.38606586448645 -0.92199167376738
 6  3.49798043814381  2.79973977617762  0.15661365166517
 6  1.63201460656066 -3.43330503180318 -2.07752509810981
 6 -5.42700160686069 -2.84227984288429  1.35042230653065
 6 -3.53563742304230 -1.80848582448245  0.17049298109811
 6  2.06678099019902  3.04492448664866  0.09822744614461
 6 -4.93769646594659 -1.55578454235424  0.45100914481448
 6  5.12191745364536  0.86182109900990 -0.28879783848385
 6 -2.61792660836084 -0.93631218661866 -0.35630210401040
 6 -1.52244190629063 -3.78050780388039 -1.79275959275928
 6 -4.22765243364336 -3.69627385918592  1.33407853345335
 6  2.04172530623062 -4.48943796749675 -1.01314054085409
 6  5.37899670207021 -0.12942106560656  0.76414896209621
 6  4.47611367266727  3.92517536683668  0.65094729502950
 6  1.24681335973597  4.17626217651765  0.33912563316332
 6 -6.76090074067407 -3.50288506830683  0.93515257735774
 6 -5.75917549814982 -0.57904368836884  0.17409457635764
 6 -0.20666858615862  3.97389563936394  0.28872068396840
 6 -1.13101820042004  5.15667320102010  0.47253571907191
 6 -2.30848032173217  4.59678117951795  0.19332523852385
 6  2.91042762476248 -4.18708137833783  0.08336602580258
 6 -5.46019972947295  0.66053134173417 -0.55806727152715
 6  6.80190006900690 -0.66577204680468  0.72890378857886
 6 -3.68130567346735  5.29030008850885  0.14454896559656
 6 -2.16633618521852  3.13410837183718 -0.20201597139714
 6 -0.75035562666267  6.50626629662966  1.00808986058606
 6 -4.33105266786679  5.61430738743874 -1.12019111061106
 1 -0.38838042294229  0.32973983978398 -0.27697743744374
 1  3.10697805880588 -1.01810995219522 -0.86990707810781
 1  2.62608248954895 -2.99023061966197 -2.46770331743174
 1  1.26259726592659 -3.96353046394639 -2.91942030213021
 1 -5.63274500180018 -2.64861348604860  2.40495103500350
 1  5.51377388988899  0.41098047944794 -1.27106745404540
 1  5.95231379877988  1.64805433353335 -0.28987256185619
 1 -2.84743096079608  0.24761255155516 -0.40481087858786
 1  0.56732396299630  1.70612045594559 -0.52571001650165
 1 -1.26720145594559 -4.53030760126013 -0.95236474627463
 1 -2.58505861686169 -3.50997158355836 -2.01558969206921
 1 -0.91666684658466 -4.31238830763076 -2.73091868116812
 1 -2.33096548284828 -3.63469320002000  0.49446211141114
 1  1.18404923422342 -5.11051374967497 -0.58578396829683
 1  2.56872297669767 -5.50507461436144 -1.44113949584958
 1  4.71539677267727 -1.00553171657166  0.62786252235224
 1  5.31920626602660  0.31613765246525  1.86876467956796
 1  3.97279780538054  4.82791320772077  0.33463209140914
 1  5.59032212391239  3.70888842204220  0.33440923052305
 1  4.57433446604660  4.01338681078108  1.95512122902290
 1  1.56339711831183  5.09403858125813  0.36326740194019
 1 -7.60277184548455 -2.62487757125713  0.99748101770177
 1 -7.18870293419342 -4.21942832493249  1.73764960536054
 1 -6.66164186118612 -3.94916233233323 -0.03520143174317
 1 -6.76461098339834 -0.70175108360836  0.45796379747975
 1 -4.94915388748875  1.30997581848185  0.06726946564657
 1 -6.50997937533753  1.12753182818282 -0.88092240834083
 1 -4.90279959195920  0.38464862706271 -1.39969673447345
 1 -3.47539952545255  6.06375078017802  1.07700457695770
 1 -4.30641207940794  4.50068240014001  0.71453748004800
 1 -0.34227337183718  6.47615818121812  1.95372521412141
 1 -1.64185029532953  7.24692814751475  0.87223657535754
 1  0.34703387138714  6.80564284998500  0.44668562566257
 1 -3.70900880788079  6.25299292499250 -1.74691889438944
 1 -5.35875858305831  6.07107022312231 -1.04089396659666
 1 -4.37765124202420  4.74816498679868 -1.54444395239524
 1  3.22684108460846 -4.27909412191219  1.75005578797880
 1  7.93310133473347 -1.76319570857086  1.68181556455646

