%nproc=4
%Mem=2GB
# td=(NStates=1) B3LYP/SVP 

TD

0 1
 8 -4.29696120692069 -4.91266563776378  1.82710673907391
 8  2.87503153185319 -4.69504081088109  1.14767890519052
 8  6.84615091939194 -1.56693396309631  1.89848252775278
 8  3.75138019551955 -2.96508453345335  0.00268692929293
 8  7.65775531213121 -0.42143203830383  0.13570753805381
 8 -2.99486507260726  2.37251530233023 -0.29012057345735
 7 -0.22922991769177 -0.49810400350035 -0.59555656855686
 7  1.61068956165617  1.83933436593659 -0.45167674527453
 7 -3.29198118711871 -3.14438555155516  0.69586590519052
 7 -0.75928442414241  2.92699384878488 -0.23292713851385
 6  0.69323158745875 -2.38998695709571 -1.33593588868887
 6  0.95968887118712 -1.06542377407741 -1.05608445734573
 6 -0.71724585328533 -2.61209957215722 -1.14428649134913
 6 -1.23108353035304 -1.42500281168117 -0.61814094409441
 6  3.81940040084008  1.46313948044804 -0.42348661546155
 6  2.49399150495050  0.84563638913891 -0.59351353635364
 6  2.21748699889989 -0.49635689358936 -0.91931140574057
 6  3.50878151825183  2.72501230343034  0.00213820412041
 6  1.61454285938594 -3.37206890819082 -2.05633297889789
 6 -5.48677758445845 -2.83938955385539  1.25351261556156
 6 -3.60611447074707 -1.83100807670767  0.24105003680368
 6  2.11157546964696  2.97611760596060 -0.02271464806481
 6 -4.95750844714471 -1.64017298119812  0.50901494539454
 6  5.07194245614561  0.71677659455946 -0.43694265296530
 6 -2.57132194789479 -1.02134068946895 -0.29191566536654
 6 -1.44371403350335 -3.79795954905491 -1.78250856765677
 6 -4.36673634203420 -3.84151838363836  1.27561268686869
 6  2.15808694239424 -4.42603162686269 -1.12428165496550
 6  5.30812961536154 -0.13051117461746  0.83560610781078
 6  4.47918397969797  3.86715956525653  0.30934313461346
 6  1.31170984938494  4.09068361866187  0.31447316791679
 6 -6.85196984758476 -3.53674845464546  0.90898996109611
 6 -5.80633021362136 -0.65237102110211  0.12167933483348
 6 -0.16984490379038  4.04905315511551  0.15717752965297
 6 -1.09845494409441  5.19283681738174  0.52571103660366
 6 -2.31005047874787  4.62267376877688  0.31550745674567
 6  2.99521610361036 -3.90031270147015  0.03479116831683
 6 -5.49944365386539  0.58467375597560 -0.73197466226623
 6  6.75988586758676 -0.68385385498550  0.84012491069107
 6 -3.77409495239524  5.23787484598460  0.43262777347735
 6 -2.15194474607461  3.18202316331633 -0.12090786058606
 6 -0.60664125522552  6.44086975697570  0.92024107570757
 6 -4.20548011061106  5.80163612031203 -1.04012310381038
 1 -0.31427301220122  0.38337520332033  0.10942120242024
 1  3.08832619361936 -1.13862200340034 -1.14948503590359
 1  2.45121500280028 -3.00442203880388 -2.34017056415642
 1  1.15163616981698 -3.74828893979398 -2.88472683278328
 1 -5.63751547884788 -2.76569519421942  2.21865240514051
 1  5.07660017251725 -0.03313393199320 -1.29485983328333
 1  6.00765933333333  1.51807133523352 -0.58556213081308
 1 -2.89083530123012 -0.04075628532853 -0.69070946844684
 1  0.49974720532053  1.75099494339434 -0.51020846634663
 1 -1.49618435423542 -4.83900847134714 -1.24145365516552
 1 -2.34744485548555 -3.20407099349935 -2.05067320042004
 1 -1.16693187308731 -4.19074614341434 -2.75756134543454
 1 -2.29264165046505 -3.37048677937794  0.83302596779678
 1  1.16384721402140 -5.01017371567157 -0.72204759465947
 1  2.92631873627363 -5.05853996089609 -1.73675905780578
 1  4.53014824782478 -1.00310147354736  0.79016875297530
 1  5.21077542294229  0.40120615931593  1.69895769886989
 1  4.56080660626063  4.59148956535654 -0.59624099589959
 1  5.47427051875187  3.17942547574757  0.59029481908191
 1  4.19884691729173  4.31530700280028  1.17965368226823
 1  1.89519029762976  4.93858303570357  0.76392746794680
 1 -7.70682225052505 -2.86332141564156  0.76231750135013
 1 -7.17330139403940 -4.34834121622162  1.43708954935493
 1 -6.81714741174117 -3.91877929402940 -0.14350226182618
 1 -6.78314283658366 -0.74624553305331  0.62078007910791
 1 -5.20420939303930  1.41129595049505 -0.22604986628663
 1 -6.50415879327933  0.88440751575157 -1.10979529562956
 1 -4.73228254025403  0.30331049324933 -1.47181394619462
 1 -3.79999198469847  6.08310271537154  1.27247412391239
 1 -4.51952339053905  4.21288362026203  0.65164119041904
 1 -0.12930207470747  6.31410197559756  1.87242708430843
 1 -1.39650576087609  7.22072552725273  1.09467881958196
 1  0.09727889588959  6.75716800250025  0.23292424952495
 1 -3.63113102010201  6.35373299899990 -1.57791199369937
 1 -5.30479318651865  6.22267538363836 -0.98292817001700
 1 -4.31019449634964  4.75524569486949 -1.73951345934593
 1  3.48664706520652 -4.36718293079308  1.85496627902790
 1  7.72810083468347 -1.99821921092109  1.99225660866087

