%nproc=4
%Mem=2GB
# td=(NStates=1) B3LYP/SVP 

TD

0 1
 8 -4.18628013881388 -4.89373374457446  1.81261528992899
 8  2.78314234293429 -4.96446775357536  1.05060919821982
 8  7.06450275457546 -1.55280254995500  1.90127280678068
 8  3.77526258375838 -3.18756678167817 -0.09211255065507
 8  7.69033857045705 -0.54868476357636  0.06878084538454
 8 -2.94042962906291  2.26257430823082 -0.24939650105011
 7 -0.23066006070607 -0.53146733983398 -0.70680769366937
 7  1.57530602330233  1.84006443894389 -0.27217879547955
 7 -3.27948993799380 -3.18007912091209  0.54774109270927
 7 -0.73228172387239  2.88741989138914 -0.07298114391439
 6  0.61940420472047 -2.39104706310631 -1.55325762086209
 6  0.95913881618162 -1.10896812851285 -0.97893674257426
 6 -0.70731486018602 -2.61805016721672 -1.39842190489049
 6 -1.26297671967197 -1.35008531993199 -0.76409553955396
 6  3.78397685848585  1.54743791029103 -0.20409467626763
 6  2.48407051285128  0.84228605410541 -0.44672885788579
 6  2.21758700890089 -0.45300255815582 -0.75300477507751
 6  3.57391803190319  2.88815861806181  0.09978796909691
 6  1.63643504860486 -3.31550325162516 -2.14172151775178
 6 -5.37065597229723 -2.76646226112611  1.48818608290829
 6 -3.60719457875788 -1.90584556045605  0.15229116091609
 6  2.10654496659666  3.02427242144214  0.07346496989699
 6 -4.99110180648065 -1.63557252115212  0.52206625052505
 6  5.12297755965597  0.83478839573957 -0.19360831953195
 6 -2.58913372907291 -1.03918247364736 -0.36955342914291
 6 -1.49543920602060 -3.71098085118512 -1.94324464126413
 6 -4.27645731413141 -3.77317154895490  1.31278640424042
 6  2.01261239493949 -4.48696772047205 -1.11610083688369
 6  5.35504430683068 -0.15330345384538  0.89486203340334
 6  4.48098415971597  4.00653350265026  0.44030623092309
 6  1.25557423582358  4.16917146744674  0.30540226082608
 6 -6.82372702330233 -3.33387816761676  1.26078514061406
 6 -5.83468304890489 -0.71003678767877  0.10989815671567
 6 -0.13571149044905  4.11116936673667  0.21500331223122
 6 -1.13195829442944  5.13414094779478  0.43009147464746
 6 -2.36712618631863  4.64278577997800  0.19237514351435
 6  2.93793037503750 -4.12660533073307 -0.01290360116012
 6 -5.53804751425143  0.53935922452245 -0.78272973777378
 6  6.82506238523852 -0.69880535013501  0.83436433463346
 6 -3.72245978887889  5.27978903740374  0.22575708640864
 6 -2.17991754335434  3.26255121612161 -0.05060082988299
 6 -0.75635622672267  6.63432910291029  0.73801285288529
 6 -4.30167973057306  5.54713066976698 -1.14382347384738
 1 -0.42883446834684  0.49187605340534 -0.43125286498650
 1  3.08620598159816 -1.00069821102110 -1.16213630103010
 1  2.67971785308531 -2.91804340094009 -2.38489503660366
 1  1.24603560976098 -3.86514062496250 -2.99342770287029
 1 -5.38838056535653 -2.36240486518652  2.53529406930693
 1  5.42882539503950  0.56642602400240 -1.29158950625063
 1  5.83256182358236  1.70487001510151 -0.16087966256626
 1 -2.81468768646865  0.11697948824883 -0.34715511301130
 1  0.48196542714271  1.88178802270227 -0.28293573907391
 1 -1.43864860066007 -4.49782435293529 -1.21459096889689
 1 -2.64416452745274 -3.58160874727473 -2.05424355745575
 1 -1.12191737163716 -3.94466153495350 -2.82424801410141
 1 -2.40516290259026 -3.59312904360436  0.43364602980298
 1  1.06236706600660 -4.83590628892889 -0.71544693459346
 1  2.64733083748375 -5.25337944484448 -1.71166654855486
 1  4.74597983098310 -1.06209737313731  0.73832356845685
 1  5.17602194759476  0.02859889858986  1.87049485258526
 1  4.29227975357536  4.87072748914892 -0.24564593639364
 1  5.59000209190919  3.65139267246725  0.51421721132113
 1  4.27385441804180  4.34685015711571  1.34599031593159
 1  1.80711148974898  5.06532570997100  0.37626870207021
 1 -7.49336090439044 -2.71789687318732  1.74036530613061
 1 -6.92559662356236 -4.25342172427243  1.93995983638364
 1 -6.93396909390939 -3.72338975507551  0.37932002040204
 1 -6.81799632193219 -0.27478838733873  0.58745674677468
 1 -5.06378535063506  1.32787760866087 -0.08956621792179
 1 -6.33238161556156  0.92366144114411 -1.12231654775478
 1 -4.83303261526153  0.46466662886289 -1.61805857065707
 1 -3.66973895939594  6.20146455155516  1.05810268676868
 1 -4.61376281448145  4.71067339923992  0.81878790509051
 1 -0.29965911041104  6.66451701710171  1.73323316491649
 1 -1.85480159045905  7.15521897659766  1.06830618231823
 1 -0.02227305930593  7.02923520922092 -0.08195723862386
 1 -3.73414132113211  6.23243086878688 -1.62799700220022
 1 -5.35432814001400  5.86520963706371 -1.20152002920292
 1 -4.28625210211021  4.52309247954796 -1.67747725572557
 1  3.13179157965796 -4.50452666516652  1.75677646004600
 1  7.92738076267627 -2.06047543654365  1.59376675967597

