%nproc=4
%Mem=2GB
# td=(NStates=1) B3LYP/SVP 

TD

0 1
 8 -4.36748825962596 -5.00359473067307  1.69652368076808
 8  3.10826485518552 -4.97446875367537  0.89372350965097
 8  7.03626993129313 -1.52724999469947  2.02838551805181
 8  3.83378843634363 -3.11200922592259 -0.20070340974097
 8  7.76223576017602 -0.39148904400440  0.25290925822582
 8 -3.00377596369637  2.48176622742274 -0.55231679307931
 7 -0.33272026672667 -0.45875006810681 -0.49880689358936
 7  1.52422091479148  1.80455088758876 -0.35539711731173
 7 -3.33771576057606 -3.23272438543854  0.58640495909591
 7 -0.87884638033803  2.96001715111511 -0.16345019081908
 6  0.62914517881788 -2.37512547094709 -1.34177647274727
 6  0.82925582788279 -1.05101233293329 -0.94979382828283
 6 -0.82196632533253 -2.63032139433943 -1.19831189388939
 6 -1.38866928892889 -1.40392070347035 -0.70411954195420
 6  3.72063052385238  1.34602776927693 -0.14955922272227
 6  2.45356746254625  0.84389621512151 -0.57429161416142
 6  2.14276952715272 -0.45398265616562 -0.91834130873087
 6  3.58001864196420  2.76018582078208  0.10843883418342
 6  1.53072447754775 -3.35994769606961 -2.06297364296430
 6 -5.50965987268727 -2.85083069796980  1.42870013431343
 6 -3.62424628392839 -1.98662363826383  0.21364729652965
 6  2.13932824492449  3.04296429062906  0.08823644704470
 6 -5.01236393269327 -1.65567453135313  0.61232527642764
 6  4.98827408930893  0.81207612451245 -0.36863582228223
 6 -2.66442125782578 -1.10787934333433 -0.32074854865487
 6 -1.57291695379538 -3.83341309440944 -1.77641795859586
 6 -4.36656632503250 -3.91220545234523  1.14759988558856
 6  2.06019715341534 -4.41713073677368 -1.19370859765977
 6  5.49043784618462 -0.04499262276228  0.89797234443444
 6  4.56431249254925  3.86091894119412  0.42283448374838
 6  1.25440411881188  4.13884843514351  0.29963168376838
 6 -6.74730938153815 -3.48378315811581  1.01153021512151
 6 -5.79030861146115 -0.51966775077508  0.43092025892589
 6 -0.14181210051005  4.03391164096410  0.20019183108311
 6 -1.10596569516952  5.20902843654365  0.42323078857886
 6 -2.26191566526653  4.68540004140414  0.11008691469147
 6  3.10201678367837 -3.99893256345635 -0.13384569536954
 6 -5.42411612111211  0.61412670127013 -0.41506297109711
 6  6.89337921692169 -0.65754122372237  0.97161806000600
 6 -3.75430297319732  5.30896195469547  0.21888639933993
 6 -2.12544209580958  3.22830779177918 -0.15008077787779
 6 -0.59853044414441  6.69182485248525  0.67671672327233
 6 -4.19393895649565  5.68956491319132 -1.15539463096310
 1 -0.34176576147615  0.41282814861486 -0.11496123582358
 1  2.82038939993999 -1.17075521672167 -0.88341842924292
 1  2.20281016231623 -2.79531112771277 -2.71528807590759
 1  0.98500950715071 -3.91578568946895 -2.85012337243724
 1 -5.40862258955896 -2.77183580828083  2.50224076397640
 1  5.14378689118912  0.05961534293429 -1.10744109140914
 1  5.83337190459046  1.48765829392939 -0.43155673027303
 1 -3.00330654835484 -0.13268547824782 -0.30530092759276
 1  0.53195042564256  1.87401724562456 -0.39341678717872
 1 -1.42278701450145 -4.77134170467047 -1.20360987078708
 1 -2.59126923792379 -3.65437602400240 -2.05969410251025
 1 -0.81001618151815 -4.03075014381438 -2.76645223452345
 1 -2.48827121342134 -3.63001273197320  0.46161882708271
 1  1.10155098439844 -4.96231893019302 -0.74560995089509
 1  2.71737784218422 -5.21884599149915 -1.76422180408041
 1  4.62337757075708 -0.75788695209521  0.84017375347535
 1  5.45867021242124  0.52286832553255  1.74694249734973
 1  4.43519404500450  4.74958537493749 -0.21215258705871
 1  5.51193428512851  3.39350688388839  0.57636342594259
 1  4.37525455805581  4.40055552765277  1.40889660656066
 1  1.64741552015201  5.10442962036204  0.59058013321332
 1 -7.63925549384938 -2.69820490399040  1.02159342894289
 1 -6.98433249714972 -4.29402578467847  1.66727256765677
 1 -6.63908960596060 -4.02442985908591 -0.07247515911591
 1 -6.72222674497450 -0.45091600010001  0.97417541864186
 1 -4.96924589668967  1.55701052195220 -0.08175543684368
 1 -6.49414779217922  1.24432350735074 -0.49643395949595
 1 -4.88185749774977  0.45171533373337 -1.41703846864686
 1 -3.84451643714372  6.14183858895890  0.89984686118612
 1 -4.19976141434143  4.37710004190419  0.77910393669367
 1  0.06380723622362  6.58213877927793  1.49498934053405
 1 -1.55146125642564  7.19745320002000  0.78788814051405
 1  0.15178434643464  6.82758504420442  0.02519347644764
 1 -3.68379628662866  6.44074169986999 -1.77262146464646
 1 -5.28549125632563  6.02790590669067 -1.19260913811381
 1 -4.14593807070707  4.91866203650365 -1.91222073007301
 1  4.00764916541654 -4.80383659615962  1.34296507890789
 1  7.92533055765576 -1.75743513251325  1.86909429242924

