%nproc=4
%Mem=2GB
# td=(NStates=1) B3LYP/SVP 

TD

0 1
 8 -4.29349085988599 -4.89837420862086  1.66622065046505
 8  2.99697372607261 -4.80745205200520  1.18699283658366
 8  7.13504980928093 -1.37662493219322  1.93280596009601
 8  3.75597065456546 -3.14963298829883 -0.14511785118512
 8  7.54321385798580 -0.68405830093009 -0.15661169386939
 8 -2.98953453955396  2.30363841464146 -0.31594315571557
 7 -0.26422341704170 -0.45517971107111 -0.73405041794179
 7  1.53187167986799  1.82017244974497 -0.28539011661166
 7 -3.29009099809981 -3.17717883088309  0.65918223682368
 7 -0.76287478317832  2.94670581998200 -0.00432427822782
 6  0.60056232053205 -2.30447840624062 -1.47233952905291
 6  0.93780668296830 -0.93309054075408 -1.16571542044204
 6 -0.69028315701570 -2.60067843004300 -1.37692975567557
 6 -1.36899732173217 -1.44654496589659 -0.88722785278528
 6  3.78063652445244  1.53628679517952 -0.20967523432343
 6  2.49962206800680  0.88863068856886 -0.55180936593659
 6  2.23473872407241 -0.37633489138914 -1.00654012861286
 6  3.52356299639964  2.77494729692969  0.11932992329233
 6  1.63969537463746 -3.39470117141714 -2.05636298189819
 6 -5.53984289098910 -2.76751236613661  1.36856412071207
 6 -3.60670452975298 -1.90253522942294  0.20787671947195
 6  2.10545485758576  2.97477747194719  0.20292791619162
 6 -5.02332502880288 -1.61526048994900  0.65968001190119
 6  5.07450271217122  0.77370228712871 -0.37036599529953
 6 -2.63553836953695 -1.02779133453345 -0.49020549434944
 6 -1.35840550265026 -3.92091184428443 -1.71710202700270
 6 -4.35523519191919 -3.79649388118812  1.25456058165817
 6  1.95857699139914 -4.48578760246025 -0.99205843264326
 6  5.46466526892689 -0.02737086058606  0.95311785898590
 6  4.49926598789879  3.77012986228623  0.69525172547255
 6  1.28569724812481  4.08679322962296  0.46479820042004
 6 -6.79221387198720 -3.39947472727273  1.05559462156216
 6 -5.83861344194419 -0.67590337433743  0.18313548044804
 6 -0.10845876517652  4.08209645944594  0.31645345724572
 6 -1.07575267386739  5.21502903660366  0.37475594109411
 6 -2.30886035973597  4.67943944534453  0.00463636963696
 6  3.03340992299230 -4.08601127132713  0.01971966116612
 6 -5.60101381088109  0.69164445304530 -0.47248871367137
 6  6.78763864286429 -0.71673714331433  0.80367126532653
 6 -3.68292583548355  5.24520557905791  0.20503501420142
 6 -2.09914946654665  3.20274523552355 -0.09023479327933
 6 -0.70047063816382  6.54648031803180  0.82602165376538
 6 -4.30148971157116  5.47049300600060 -1.21588067956796
 1 -0.33001458635864  0.59458632443244 -0.44637437713771
 1  2.93156051705171 -1.31042918411841 -1.23630371777178
 1  2.74702458375838 -3.14741633823382 -2.29276582368237
 1  1.05000600680068 -3.79131324222422 -2.95405376547655
 1 -5.20009173647365 -2.72015063976398  2.46862740264026
 1  5.12922543504350 -0.02547316591659 -1.18846919421942
 1  5.79664823222322  1.57859738783878 -0.66668024262426
 1 -2.85811202890289  0.01355914621462 -0.44780517801780
 1  0.43158038863886  1.85479532343234 -0.49962740824082
 1 -1.42741747754775 -4.58918348884889 -0.85910542034203
 1 -2.38289840084008 -3.60830141654165 -2.03811194429443
 1 -0.98650383028303 -4.15946301510151 -2.67448303760376
 1 -2.32901528782878 -3.51279100980098  0.98226089128913
 1  0.91491232053205 -4.75924862316232 -0.48624401430143
 1  2.56101220562056 -5.40854496139614 -1.54830021192119
 1  4.68075330833083 -0.60134129752975  1.35161489758976
 1  5.54861920732073  0.80530656935694  1.69818762186219
 1  4.19139966556656  4.92777319371937  0.33677230543054
 1  5.50029312101210  3.87325485868587  0.23646943654365
 1  4.58186521912191  3.98750422252225  1.90907662456246
 1  1.88127890649065  4.83588276567657  0.76445752095210
 1 -7.70394196249625 -2.84971005450545  1.11743301290129
 1 -6.90934499839984 -4.37352373447345  1.48498433883388
 1 -6.95924162116212 -3.76171358745875  0.12516460486049
 1 -6.88916343864386 -0.80212112061206  0.70117811891189
 1 -4.88857782988299  1.52508732963296  0.18721145984598
 1 -6.32662103950395  1.25973504850485 -0.85674999109911
 1 -4.91212052405240  0.59498966116612 -1.40753751855185
 1 -3.67114910041004  6.13143754885489  0.74664154065407
 1 -4.28602004020402  4.52452478437844  0.60977700400040
 1 -0.05087423192319  6.44376494189419  1.70090993259326
 1 -1.65885199549955  7.14901835653565  1.18288764046405
 1 -0.04947577957796  7.11826411211121  0.04150510761076
 1 -3.78458636563656  6.24032165786579 -1.72119632213221
 1 -5.30204291149115  5.69949306540654 -1.35520539773977
 1 -3.95231870877088  4.50604077437744 -1.91375088308831
 1  3.76636503700370 -4.56084229672967  1.64442522492249
 1  7.85348337293729 -1.86984637363736  1.63459084208421

