%nproc=4
%Mem=2GB
# td=(NStates=1) B3LYP/SVP 

TD

0 1
 8 -4.25846735753575 -4.84296866806681  2.00177420582058
 8  3.11312534123412 -4.72048335513551  1.10116425372537
 8  6.82579888418842 -1.60253752345235  1.85367804730473
 8  3.94606966446645 -3.23266129112911 -0.21840517991799
 8  7.71902143874387 -0.49548944404440  0.16829079637964
 8 -3.02054764086409  2.33994204500450 -0.44245580698070
 7 -0.27457445214521 -0.44588878197820 -0.67424443734373
 7  1.57232572527253  1.87085751825183 -0.49870144774477
 7 -3.29207119611961 -3.07104821782178  0.74287060566057
 7 -0.78484698039804  2.78715986538654 -0.06408025382538
 6  0.60525278957896 -2.37417537593759 -1.44488678377838
 6  0.90198310061006 -0.99125635733573 -0.98389723862386
 6 -0.74328845754575 -2.61027939013901 -1.36894895759576
 6 -1.25789621162116 -1.33032334373437 -0.82331146114611
 6  3.74359282008201  1.45246841334133 -0.26743100990099
 6  2.56788889468947  0.88045987148715 -0.56542072707271
 6  2.12020727092709 -0.41899915781578 -0.86449592419242
 6  3.55612625272527  2.78452825502550  0.09796778707871
 6  1.53253465856586 -3.30134183548355 -2.03287063266327
 6 -5.55473438013801 -2.85522113701370  1.25199246354635
 6 -3.59423328262826 -1.86883185908591  0.27456338813881
 6  2.03521783388339  2.97065705990599  0.05958358175818
 6 -5.05155785208521 -1.65983494739474  0.46079012291229
 6  5.11456671857186  0.83414833173317 -0.38406736543654
 6 -2.69678449414941 -1.03954250965096 -0.42160863466347
 6 -1.53882354445445 -3.75165491859186 -1.74240455725573
 6 -4.24393406180618 -3.74407863966397  1.46734185978598
 6  2.05130626432643 -4.39860888458846 -0.99881910871087
 6  5.34088289068907 -0.11870999449945  0.87475002220222
 6  4.54070013131313  3.80581343064306  0.57582978327833
 6  1.25482416081608  4.08961351165116  0.27778949954996
 6 -6.78964361496150 -3.67028180798080  0.70368943104310
 6 -5.73078265886589 -0.50336612061206  0.24743191009101
 6 -0.15218313761376  4.03590183998400  0.21596340824082
 6 -1.11053615221522  5.14499203290329  0.51462992849285
 6 -2.33319279297930  4.57553905530553  0.34035994199420
 6  3.14869145114511 -4.02165483568357 -0.02530484128413
 6 -5.45188889838984  0.78819410801080 -0.50940240504050
 6  6.79614949394939 -0.77646311591159  0.80466136433643
 6 -3.66024356725673  5.24292535103510  0.30142465316532
 6 -2.08962851445145  3.13725868686869 -0.21362713251325
 6 -0.71829242034203  6.55520119011901  0.74014306590659
 6 -4.26213577617762  5.52423838053805 -1.07773686518652
 1 -0.37391897679768  0.45060192599260 -0.06339607930793
 1  2.92023938493849 -1.12804094529453 -1.13585367276728
 1  2.36962684398440 -2.71578317491749 -2.35712225932593
 1  1.17843885008501 -3.78735284618462 -2.86732509260926
 1 -5.61880360766077 -2.49197782248225  2.29093963386339
 1  4.98354086658666  0.08676805820582 -1.17981832913291
 1  6.04066263366337  1.47058658675868 -0.63798737333733
 1 -3.05674189188919  0.02040983128313 -0.46140653815382
 1  0.55164239483948  1.92039188308831 -0.65824326982698
 1 -1.26633136893689 -4.52386695719572 -1.09036854665467
 1 -2.68553866486649 -3.71562214861486 -1.80647878097810
 1 -1.25567074697470 -4.16010307910791 -2.74943053235324
 1 -2.37991037733773 -3.54232396309631  0.75829849504951
 1  1.11527235653565 -4.69785248354835 -0.28102349224923
 1  2.05909201360136 -5.39320342724272 -1.66121150305030
 1  4.56693192619262 -0.99220038343834  0.77723745984598
 1  5.08081242664266  0.32758879757976  1.89581738483848
 1  4.52467299289929  4.57821823822382 -0.19996136793679
 1  5.59958305000500  3.29713724692469  0.57543333293329
 1  4.06654368696870  4.17225269736974  1.67340305720572
 1  1.66833761236124  4.93598277567757  0.65777685288529
 1 -7.54316588488849 -2.83887897139714  0.62451372097210
 1 -7.00638470237024 -4.42161854395439  1.33804964536454
 1 -6.76506220322032 -4.18285570167017 -0.31186909850985
 1 -6.72328685098510 -0.43724463296330  0.81214921602160
 1 -5.12959193129313  1.65798061896190  0.11477421612161
 1 -6.41181955935594  1.08917799279928 -1.31188550465046
 1 -4.84070338233823  0.71176133833383 -1.44724148894889
 1 -3.68606059155916  6.15361976707671  1.09240611711171
 1 -4.55061649984999  4.61707403930393  0.87223324962496
 1 -0.22134127862786  6.77034760016002  1.72901274287429
 1 -1.77738384868487  7.23290674537454  0.61230058175818
 1 -0.02309314131413  6.83248553425343 -0.14103314621462
 1 -3.51955986298630  6.20300792649265 -1.58301250375038
 1 -5.14872757995800  5.94059717581758 -0.98703858105811
 1 -4.28434191109111  4.50557072737274 -1.61475098309831
 1  3.79389779027903 -4.46836304880488  1.66406718911891
 1  7.65996402100210 -1.72938232723272  1.79264664766477

