%nproc=4
%Mem=2GB
# td=(NStates=1) B3LYP/SVP 

TD

0 1
 8 -4.29518102890289 -4.85288966016602  2.00038406680668
 8  3.18594262296230 -4.92585389218922  0.94923906120612
 8  6.92075838013801 -1.41914918461846  1.97101978147815
 8  4.00512557005701 -3.27605563056306 -0.20519385878588
 8  7.74314385098510 -0.45575547064706  0.19715368266827
 8 -3.02657824392439  2.43525157595760 -0.51594315571557
 7 -0.27169416411641 -0.50910510361036 -0.51930894379438
 7  1.51294978767877  1.83945437793779 -0.35656723432343
 7 -3.38462045104510 -3.07523863686369  0.71764808340834
 7 -0.82979147484748  2.87224837423742 -0.10141398719872
 6  0.59137140144014 -2.37890584898490 -1.43916621172117
 6  0.83805670797080 -1.02086931863186 -0.89674852375238
 6 -0.72246637533753 -2.60884924712471 -1.27909997269727
 6 -1.33214363636364 -1.36969728112811 -0.59062819281928
 6  3.76185464626463  1.46285945244524 -0.29071333813381
 6  2.49581168696870  0.83550537603760 -0.41300548554855
 6  2.10131538173817 -0.49158641654165 -0.86397587218722
 6  3.55284592469247  2.79509931213121  0.08626661696170
 6  1.66043744884488 -3.17010871217122 -2.02452979857986
 6 -5.60292919961996 -2.77861347624762  1.28002526682668
 6 -3.63963782308231 -1.88267324322432  0.20181611341134
 6  2.17230154225423  3.02116211041104  0.07219484288429
 6 -5.00451314761476 -1.59118808270827  0.53747779167917
 6  5.05892115401540  0.85651056795680 -0.52172113081308
 6 -2.73589840554055 -0.97200575597560 -0.36406288008801
 6 -1.60049971207121 -3.72067182028203 -1.72645296209621
 6 -4.36922659105911 -3.79964419621962  1.39698482408241
 6  1.98028916261626 -4.49708873257326 -1.14399362616262
 6  5.40720952335234 -0.06722484598460  0.72132467966797
 6  4.53926998829883  3.75132798209821  0.48544074437444
 6  1.33475215361536  4.13480803110311  0.32116383698370
 6 -6.89503415401540 -3.45480025982598  0.81839090119012
 6 -5.82512209280928 -0.59173495749575  0.17573474037404
 6 -0.11647956725673  4.07006525632563  0.23256506840684
 6 -1.01919701830183  5.11174870857086  0.50478894439444
 6 -2.29423889758976  4.72325382678268  0.17577348334833
 6  3.16991357335734 -4.09691236143614 -0.17525983678368
 6 -5.45391910141014  0.49132442104210 -0.85567703250325
 6  6.85217509650965 -0.66530199979998  0.88115901410141
 6 -3.64447199009901  5.29907096559656  0.28903341404140
 6 -2.08769832143214  3.28336329732973 -0.23175894569457
 6 -0.63947453855386  6.52372804280428  0.91851090269027
 6 -4.41336089868987  5.29281523822382 -1.01713080458046
 1 -0.35416700160016  0.29764663046305  0.17588784908491
 1  2.96625398639864 -1.00241838303830 -0.96985707310731
 1  2.61556143744374 -2.82497409400940 -2.47998454555456
 1  1.30640164636464 -3.62759687058706 -3.09475783588359
 1 -5.67500922822282 -2.42230085478548  2.26222676257626
 1  5.04706721922192  0.10566994839484 -1.42877322462246
 1  5.88139670707071  1.51828135623562 -0.70343391799180
 1 -3.18659487718772 -0.04660687038704 -0.64488488598860
 1  0.48438566916692  2.02252209610961 -0.33020046554655
 1 -1.27960269606961 -4.68550312081208 -1.07063657345735
 1 -2.71548165916592 -3.50021060746075 -1.76015414851485
 1 -1.39529470937094 -3.99912698149815 -2.70375596489649
 1 -2.53207559385939 -3.69563929462946  0.76510917611761
 1  1.07912874217422 -4.70723342164217 -0.37859324922492
 1  2.30968707310731 -5.36263036993699 -1.58074345624562
 1  4.69765499849985 -0.89149031243124  0.69875961206121
 1  5.07046139153915  0.44791082978298  1.61530933403340
 1  4.43962448804881  4.87621803820382 -0.07954932673267
 1  5.53550664236424  3.35556308950895  0.32755854545455
 1  4.35057208980898  3.78154362646265  1.56316203310331
 1  2.05417619621962  4.97949712711271  0.59030010521052
 1 -7.58964053235323 -2.61930701420142  0.99756102570257
 1 -7.29592365626563 -4.35593197529753  1.37641348174818
 1 -6.75743144014401 -3.75189260536054 -0.20802871447145
 1 -6.93559808210821 -0.49054996349635  0.64747274837484
 1 -4.54720369246925  1.10837565846585 -0.32410967226723
 1 -6.24864324172417  1.05308438343834 -1.03069738583858
 1 -4.85278459045905  0.03425358755876 -1.61411817661766
 1 -3.48878086358636  6.50611501660166  0.59044592109211
 1 -4.13254469266927  4.78089042094209  1.12108813511351
 1 -0.04207335183518  6.24819538493849  1.86288613021302
 1 -1.54895100540054  6.97292074677468  0.95446479817982
 1 -0.11896272827283  7.02868515421542  0.10491144824482
 1 -3.86803471047105  5.80198782448245 -2.09157335983598
 1 -5.39828253545354  5.51431454755476 -1.03774365156516
 1 -4.28909238613861  4.04153432373237 -1.28023753175318
 1  3.90443884438444 -4.71573778627863  1.64896567896790
 1  7.90853887848785 -1.59791918091809  2.41170855385539

