%nproc=4
%Mem=2GB
# td=(NStates=1) B3LYP/SVP 

TD

0 1
 8 -4.26367787858786 -4.90583495469547  1.79248327672767
 8  3.03347737643764 -5.04946625342534  0.92292642994299
 8  6.78804510881088 -1.77997526722672  1.70942362186219
 8  3.94835989348935 -3.24130215521552 -0.10969430883088
 8  7.66948648524852 -0.36860675577558  0.15752972027203
 8 -3.05600118621862  2.48962701350135 -0.49455101650165
 7 -0.23279027372737 -0.48454264736474 -0.59514652755276
 7  1.47802629532953  1.84680511301130 -0.14469604720472
 7 -3.28226021502150 -3.22102321532153  0.71227754635464
 7 -0.78185668136814  2.95244639403940 -0.04874872067207
 6  0.71223348764876 -2.36681463986399 -1.42716501160116
 6  1.00763366566657 -1.08177540924092 -0.95832468136814
 6 -0.72513664236424 -2.64029239143914 -1.20621268396840
 6 -1.24288471047105 -1.48630894229423 -0.73432256225623
 6  3.71829028982898  1.49246241274127 -0.31445571237124
 6  2.41161326712671  0.94333615911591 -0.52579676467647
 6  2.29430468066807 -0.43386064396440 -0.75019449404940
 6  3.50839147924792  2.84931473367337  0.11151914221422
 6  1.58892029712971 -3.36987868916892 -2.07389473507351
 6 -5.53593249995000 -2.83011862676268  1.32407967226723
 6 -3.60210406970697 -1.96774175007501  0.25710164196420
 6  2.04041835393539  3.07823781798180  0.10538816221622
 6 -4.98668136443644 -1.64780374427443  0.51322536643664
 6  5.01526678857886  0.79850476737674 -0.28787774647465
 6 -2.58627344304430 -1.16063461886189 -0.36376285008501
 6 -1.44365402750275 -3.83370312341234 -1.68949926672667
 6 -4.38366803520352 -3.80707493929393  1.28757388298830
 6  2.05622675637564 -4.60873989768977 -1.14120334713471
 6  5.35637443984398  0.01055293179318  0.94814736193619
 6  4.56609267056706  3.90729357865787  0.41794399469947
 6  1.29473815221522  4.23359791009101  0.26978869946995
 6 -6.83005765636564 -3.48582336213621  0.99869893199320
 6 -5.73705328592859 -0.53995977997800  0.17849501640164
 6 -0.12974089338934  4.06081433123312  0.26866867876788
 6 -1.12710780938094  5.26774430813081  0.37580604610461
 6 -2.34620409410941  4.78299980138014  0.18575448144814
 6  3.13023960596060 -4.12811548174817 -0.12582489328933
 6 -5.43393710321032  0.67838312691269 -0.52039350415042
 6  6.73908378737874 -0.76927239683968  0.86310720892089
 6 -3.75786332923292  5.33990504900490  0.20830534123412
 6 -2.15792534413441  3.39795475647565 -0.13875964576458
 6 -0.60343093419342  6.64593026302630  0.70612966456646
 6 -4.31761132373237  5.48808476517652 -1.16211530303030
 1 -0.58813039793979  0.34847171297130 -0.09154889458946
 1  3.13361072207221 -1.14906304750475 -0.98649873727373
 1  2.53082296359636 -2.90870246684668 -2.46587313441344
 1  1.36114712091209 -3.79373348424842 -3.07599595969597
 1 -5.70907263456346 -2.51203982868287  2.38023856375638
 1  5.00728324082408  0.17521690309031 -1.37137748504851
 1  5.77257582498250  1.70896042414241 -0.36816039063906
 1 -2.95348156585659 -0.06742895259526 -0.39706010351035
 1  0.34759198979898  1.99021886578658 -0.18900634613461
 1 -1.05657039283928 -4.78674324482448 -1.15684519431943
 1 -2.69384949594959 -3.71519210561056 -1.60726885998600
 1 -1.14802998289829 -3.90351742054205 -2.70948653795380
 1 -2.48142052835284 -3.44014374507451  0.58117078227823
 1  1.21414224352435 -5.31970466876688 -0.73814920482048
 1  2.74040014441444 -5.30107421432143 -1.83566894879488
 1  4.52128736173617 -0.65059622302230  1.36470620672067
 1  5.22571691709171  0.74888092679268  1.79677748084808
 1  4.24404493009301  4.78965938233823 -0.01993336513651
 1  5.46823991569157  3.53371090429043 -0.06440065046505
 1  4.84804183678368  4.06818229032903  1.58920463736374
 1  1.64065484408441  5.26595577297730  0.39466054125412
 1 -7.66389795809581 -2.80939602310231  1.28940020962096
 1 -6.64778884278428 -4.49577595969597  1.59952579297930
 1 -7.03010870787079 -3.58765618171817 -0.33676158775878
 1 -6.62784730703070 -0.52687359585959  0.68984698579858
 1 -4.73200217231723  1.54020884178418  0.01100383908391
 1 -6.38257663506351  1.03741281628163 -0.89918423452345
 1 -4.93810312231223  0.46994715691569 -1.62532929772977
 1 -4.07804979047905  6.34025843094309  0.74890176667667
 1 -4.38061950015002  4.69776210811081  0.86151217751775
 1 -0.25326447094709  6.52838340374037  1.87076691829183
 1 -1.49016512681268  7.25333878857886  0.79323867556756
 1  0.17227639563956  6.95096738243824  0.08096905400540
 1 -3.79609751675167  6.36552417811781 -1.60949515201520
 1 -5.51104381158116  5.69678279437944 -1.04096397359736
 1 -4.34461793869387  4.49493966426643 -1.62639214721472
 1  3.60789919041904 -4.86853306580658  1.57981876427643
 1  7.72058008260826 -1.97484687368737  1.87759514251425

