%nproc=4
%Mem=2GB
# td=(NStates=1) B3LYP/SVP 

TD

0 1
 8 -4.23804531533153 -4.89078344954495  1.92601663006301
 8  2.77104113281328 -4.66027733453345  1.13176731403140
 8  7.22984928922892 -1.54786205590559  1.87004968446845
 8  3.82802786028603 -3.11929995499550 -0.11623496289629
 8  7.67926746334633 -0.35826572167217 -0.05376140884088
 8 -2.94223981008101  2.34782283308331 -0.35973753515352
 7 -0.28748574327433 -0.53999819291929 -0.44750176307631
 7  1.57365585828583  1.75694612711271 -0.35411698929893
 7 -3.37392938193819 -3.12473358635864  0.73709002760276
 7 -0.71995049074908  2.87716886628663 -0.14322816861686
 6  0.59030129442944 -2.34120207860786 -1.50161245634563
 6  0.91565446774677 -1.07510474217422 -0.94953380228023
 6 -0.79530365906591 -2.57910627282728 -1.27249931263126
 6 -1.37286770877088 -1.41961227262726 -0.64677380738074
 6  3.78271673247325  1.46516968346835 -0.26773103990399
 6  2.50970307610761  0.90261208670867 -0.42470665566557
 6  2.17499274947495 -0.52503976187619 -0.79564903950395
 6  3.56870751085109  2.82945274747475  0.02727071737174
 6  1.57565897099710 -3.24848654995500 -2.02433977957796
 6 -5.59720862756276 -2.84070968586859  1.33433069736974
 6 -3.64016787608761 -1.91019599549955  0.24524045584558
 6  2.10993530563056  2.97496749094909  0.09134675807581
 6 -5.11573426972697 -1.69634859875988  0.50524456835684
 6  5.09020428232823  0.70900581748175 -0.32081103980398
 6 -2.68112292799280 -1.07723627902790 -0.32153862766277
 6 -1.54187384948495 -3.71091084418442 -1.82498281508151
 6 -4.38753842224222 -3.81860609240924  1.36642176777678
 6  2.09846097979798 -4.44499352305231 -1.08122734953495
 6  5.42518132053205 -0.04702282578258  0.85405795299530
 6  4.56659272057206  3.94551740104010  0.35517771807181
 6  1.30422910131013  4.09056360666067  0.30843256385639
 6 -6.93932858345835 -3.50763554335433  0.84518358045805
 6 -5.89007858845885 -0.67704348834883 -0.05662849594959
 6 -0.07693561286129  4.00056830663066  0.19435124702470
 6 -1.07897299589959  5.14332186588659  0.52618108360836
 6 -2.27342681638164  4.63689519091909  0.23763966996700
 6  3.00094667666767 -3.90961363156316  0.01311900110011
 6 -5.55379908940894  0.50091538013801 -0.80704216901690
 6  6.91115099409941 -0.67033250285028  0.73450434863486
 6 -3.54766230913091  5.27853891239124  0.17766227692769
 6 -2.09002855445545  3.11643660466047 -0.13249901970197
 6 -0.67807839893989  6.52609827982798  0.99475852745275
 6 -4.18254781738174  5.50254621132113 -1.09854894639464
 1 -0.46852843774377  0.44455132093209  0.06787704800480
 1  3.03715107610761 -1.29185732693269 -0.86030611801180
 1  2.33820370167017 -2.51144274087409 -2.27977452455246
 1  1.20277128332833 -3.57299141004100 -3.08113647374737
 1 -5.83521524882488 -2.55185381008101  2.48979951985199
 1  5.03264577707771  0.11224060546055 -1.10757110441044
 1  5.82014058145815  1.60793032113211 -0.47948152275228
 1 -2.77237345504550  0.07719550985099 -0.40012040954095
 1  0.57514474507451  1.88308815271527 -0.47858530403040
 1 -1.42151688748875 -4.64600917141714 -1.30983049284928
 1 -2.72696280728073 -3.49478006440644 -1.92433056615662
 1 -1.48145332523252 -3.89211628042804 -3.03056864616462
 1 -2.54582696899690 -3.67631736243624  0.73271593679368
 1  1.20029085838584 -4.90453315161516 -0.75015040494049
 1  2.66223232763276 -5.16965107200720 -1.78082346424642
 1  4.93325855885589 -0.98679984338434  0.69946968306831
 1  5.40361470687069  0.26428246694670  1.83622142524252
 1  4.10168069366937  4.91019143554356 -0.02719409120912
 1  5.52376546824683  3.75564309750975  0.07125291489149
 1  4.40534756735674  4.25703117521752  1.53322903980398
 1  1.68021880048005  5.05930510791079  0.74115519071907
 1 -7.62511407970797 -2.80447553105311  0.83087435703570
 1 -7.06678074197420 -4.36359274137414  1.40999684008401
 1 -6.84562025902590 -4.00410782688269 -0.09356726832683
 1 -6.92371689398940 -0.66507741624162  0.38730673177318
 1 -4.85370434253425  1.27860268116812 -0.36905416671667
 1 -6.37757613501350  0.80759983498350 -1.44791910801080
 1 -4.68259757175718  0.16348651085108 -1.44717148194819
 1 -3.47163914941494  6.19228363346335  0.71279815631563
 1 -4.19408084628463  4.51752408430843  0.63465949224923
 1 -0.24211335583558  6.29312987838784  2.08790863246325
 1 -1.52625873617362  7.23961741644164  1.18346769846985
 1 -0.14602543454345  7.24249653535353  0.42364332143214
 1 -3.80814872187219  6.37524515021502 -1.86466066856686
 1 -5.24847755495550  5.87713082918292 -1.12200207740774
 1 -4.24978845574557  4.51738190849085 -1.66437594559456
 1  3.48054645514551 -4.62183839633963  1.70266104850485
 1  8.21316934153415 -1.56873626262626  1.88669605260526

