%nproc=4
%Mem=2GB
# td=(NStates=1) B3LYP/SVP 

TD

0 1
 8 -4.43147465826583 -4.95319969116912  1.71076510491049
 8  3.05241927062706 -4.84712601940194  1.16307044434443
 8  6.94153045734573 -1.40299756945695  1.81867454695470
 8  3.87781283878388 -3.17037506250625 -0.07947128652865
 8  7.61630116671667 -0.56186608170817 -0.23011904460446
 8 -3.05098068416842  2.42928097889789 -0.28006956835684
 7 -0.31535853055306 -0.58895308840884 -0.48599561246125
 7  1.54224271697170  1.87673810631063 -0.27606918451845
 7 -3.26632862186219 -3.24269538253825  0.65898221682168
 7 -0.88238673437344  2.92765391479148  0.02266842104210
 6  0.61875413971397 -2.38758671707171 -1.42351464656466
 6  0.93513641594159 -1.06532376407641 -0.93617246614661
 6 -0.75194932363236 -2.64910327252725 -1.26404846754675
 6 -1.36160658265827 -1.50547085848585 -0.68819794979498
 6  3.79603806460646  1.55342850935094 -0.24987925472547
 6  2.44101620742074  0.86270809630963 -0.46345053005301
 6  2.23200845104510 -0.41249850775078 -0.87764723932393
 6  3.50746138623862  2.84581438363836  0.12025001530153
 6  1.60221162626263 -3.32536423772377 -1.97701504710471
 6 -5.49930883758376 -2.86558217311731  1.37255451975197
 6 -3.59924378367837 -1.90937591349135  0.27441337313731
 6  2.09545385748575  2.97379737393739  0.11669929332933
 6 -4.95724842114211 -1.67587655155516  0.54034807870787
 6  5.07205246714671  0.87898281518152 -0.38660761946195
 6 -2.64345916161616 -1.10330888628863 -0.39110558435844
 6 -1.47398706080608 -3.69741949504951 -1.84777509430943
 6 -4.46607627602760 -3.85431966376638  1.24303942954295
 6  2.04683581728173 -4.48963798749875 -1.08735796259626
 6  5.45895469786979 -0.01688981248125  0.83252579977998
 6  4.47607366866687  3.83807665696570  0.72769496979698
 6  1.30318899729973  4.05101965226523  0.39943166376638
 6 -6.83849850045004 -3.42529730953095  0.96913597569757
 6 -5.76754633523352 -0.66182196619662  0.06133330023002
 6 -0.10808872817282  4.02955120492049  0.29374118601860
 6 -0.98478357695770  5.13612114581458  0.42617108260826
 6 -2.27485695939594  4.71431293269327  0.24567047304730
 6  3.04156073807381 -4.03772644284428  0.06178386758676
 6 -5.52321603110311  0.61315660426043 -0.70028149294929
 6  6.80835071407141 -0.67605307490749  0.66620751895190
 6 -3.62519006190619  5.33113417191719  0.19994450515052
 6 -2.17861741334133  3.26004096509651  0.01151538173817
 6 -0.63019361046105  6.58676434643464  0.64495354695470
 6 -4.14116367896790  5.55664162086209 -1.25548463996400
 1 -0.43451503640364  0.22073893969397  0.20276053635364
 1  2.96697405840584 -1.08024616581658 -1.33363345074507
 1  2.50265014631463 -2.82571416801680 -2.29761630873087
 1  1.32711371757176 -3.66947105800580 -3.02410077017702
 1 -5.39158088538854 -2.55698432313231  2.47291783168317
 1  5.07683019551955  0.09927930933093 -1.36817716501650
 1  5.87494606200620  1.65843537163716 -0.71142471707171
 1 -2.80436665436544 -0.03185539523952 -0.60067046454645
 1  0.46574380498050  1.74061390529053 -0.61904935043504
 1 -1.73159789558956 -4.62657722822282 -1.16592610241024
 1 -2.46040615161516 -3.23230381678168 -2.10706883998400
 1 -0.78818399829983 -3.99067613641364 -2.59578516781678
 1 -2.43589597589759 -3.68449818051805  0.60400306550655
 1  0.99964079337934 -4.97976067436744 -0.66584197409741
 1  2.89577568196820 -5.19573368026803 -1.59358474037404
 1  4.59708494149415 -0.65725688908891  0.88193792989299
 1  5.53242758815882  0.57291333003300  1.71572937603760
 1  4.48361888748875  4.74862527892789 -0.00111148294830
 1  5.49937302900290  3.52059959315932  0.78055384498450
 1  3.99508654125413  4.19581505360536  1.65560127702770
 1  1.77270804940494  5.10233941134113  0.42370344554455
 1 -7.49723129142914 -2.60447553105311  1.07620889048905
 1 -7.15163922782278 -4.30857723982398  1.66365220562056
 1 -6.84435013201320 -3.80712812891289 -0.00240815241524
 1 -6.91520604290429 -0.73695460396040  0.27585558665867
 1 -4.70261923402340  1.39739456035604  0.09787252595260
 1 -6.40757913531353  1.10547962296230 -1.04969928602860
 1 -4.83024233623362  0.53670383258326 -1.65560232503250
 1 -3.57524951045105  6.18324272937294  0.79901677817782
 1 -4.33556499469947  4.57170950285029  0.73781980828083
 1 -0.11579072357236  6.66127669306931  1.54055389698970
 1 -1.53344945524552  7.33892734743474  0.65336468816882
 1  0.21179034703470  6.85112739843984 -0.18334737763776
 1 -3.32489039603960  6.18268589428943 -1.70925512801280
 1 -5.11450415761576  5.94434755085509 -1.61962183938394
 1 -4.05824930183018  4.58850902120212 -1.87610711871187
 1  3.83311171167117 -4.50645685818582  1.74969575197520
 1  7.86904492909291 -1.71850123912391  1.76401378437844

