%nproc=4
%Mem=2GB
# td=(NStates=1) B3LYP/SVP 

TD

0 1
 8 -4.34462597339734 -4.94861923312331  1.87406143454345
 8  3.07016104480448 -5.05242654945495  0.86253039033903
 8  6.97669397369737 -1.50487775747575  1.81268394789479
 8  3.86152120962096 -3.15713373837384 -0.08272161156116
 8  7.48655819241924 -0.64773466856686 -0.19580561326133
 8 -3.02866845294529  2.34004205500550 -0.40622218361836
 7 -0.35411240594059 -0.51042523562356 -0.60461747464746
 7  1.52582107480748  1.87435786828683 -0.23994557215722
 7 -3.28653064206421 -3.18937005000500  0.75283160176018
 7 -0.78905740144014  2.98816996639664  0.03733988818882
 6  0.69290155445545 -2.30463842224222 -1.41625392049205
 6  0.92492539483948 -0.95388261996200 -0.89507835673567
 6 -0.72649677837784 -2.62825118731873 -1.22995505820582
 6 -1.30124054605461 -1.54264457585759 -0.70154928492849
 6  3.72958141894189  1.54930809730973 -0.25222948974898
 6  2.51871397719772  0.88236006150615 -0.49564374937494
 6  2.17074232443244 -0.33944120202020 -0.83412288688869
 6  3.50324096419642  2.91256105830583  0.13037102740274
 6  1.59026043114311 -3.29208090939094 -2.08566591219122
 6 -5.47074598129813 -2.78357397229723  1.46392365666567
 6 -3.60218407770777 -1.94375935183518  0.28072400420042
 6  2.16520083218322  2.97106710091009  0.10430805420542
 6 -4.97377007330733 -1.62764172807281  0.49772381628163
 6  5.11089635153515  0.83198811571157 -0.17523648234823
 6 -2.66311112681268 -1.10772932833283 -0.40629710351035
 6 -1.35815547764776 -3.88679843294329 -1.70014033083308
 6 -4.34041370977098 -3.81173540534053  1.42665779137914
 6  2.05895702940294 -4.40954997869787 -1.15069429622962
 6  5.49629843224322 -0.08043616711671  0.97924047124712
 6  4.51195725702570  3.97751060036004  0.47269947024702
 6  1.27793647204720  4.11854640494049  0.43749547014701
 6 -6.76551120172017 -3.33102788258826  0.96330539263926
 6 -5.76906648724872 -0.60847663166317  0.01866903380338
 6 -0.10675859515952  4.07301555135514  0.28807061896190
 6 -1.15256035463546  5.19251678537854  0.45947441294129
 6 -2.33042251595159  4.69192069346935  0.14016992299230
 6  2.99525610761076 -4.07739040924092 -0.09578188898890
 6 -5.41631534103410  0.55099038763876 -0.79274073887389
 6  6.70245012401240 -0.80160563016302  0.83609450765076
 6 -3.66913445634563  5.35217627612761  0.22681719241924
 6 -2.15846539813981  3.17979294029403 -0.08380415021502
 6 -0.69425001610161  6.53058872887289  0.70786983858386
 6 -4.30946050865087  5.57979393609361 -1.26947603910391
 1 -0.70886247114712  0.32997986378638 -0.15292503220322
 1  3.04303166416642 -1.07572571377138 -0.88679876727673
 1  2.75808568986899 -2.81758335493549 -2.21213776087609
 1  1.37820882708271 -3.63923803470347 -2.95768412851285
 1 -5.48945067236724 -2.31545016971697  2.42309284918492
 1  5.37929044154415  0.49138852025203 -1.17571791909191
 1  5.99474804220422  1.68509803790379 -0.08011158575858
 1 -2.91125734343434 -0.06381859155916 -0.38269866736674
 1  0.63656088668867  1.82743258715872 -0.30830827632763
 1 -1.05325006080608 -4.87730230073007 -1.20086959675968
 1 -2.38549866086609 -3.62310289668967 -1.68098623172317
 1 -1.03605878577858 -4.14684175297530 -2.68570415971597
 1 -2.41868425472547 -3.61338106880688  0.87543020822082
 1  1.16489731903190 -4.82974567286729 -0.77417280718072
 1  2.58813491789179 -5.18527263416342 -1.79861524342434
 1  4.61426665966597 -0.83308447184719  0.92517225332533
 1  5.33240758615861  0.31097713641364  1.82155995909591
 1  4.30954147974797  4.67294771117112 -0.20132150395040
 1  5.53050614231423  3.55910344354435  0.37611340094009
 1  4.25488252085208  4.28699417151715  1.57929364626463
 1  1.72330310891089  5.04795397279728  0.70138121332133
 1 -7.54862643094309 -2.47126220972097  1.07656892649265
 1 -7.02910697459746 -4.25483186528653  1.28246408680868
 1 -6.80879657665767 -3.52260967706771 -0.17844575617562
 1 -6.90482500480048 -0.35507641614161  0.23809181028103
 1 -4.93477244934493  1.34701952285229 -0.30376763806381
 1 -6.38256663406341  1.09282835783578 -1.11949626572657
 1 -4.74555386738674  0.42266242844284 -1.60961772657266
 1 -3.58999098459846  6.43128753385339  0.71910878737874
 1 -4.41266270447045  4.79131146304630  0.87104313061306
 1 -0.13660280478048  6.46711727712771  1.62167200880088
 1 -1.46044215451545  7.28308176287629  0.84006335803580
 1  0.00385955395540  6.81176346204620 -0.08150719361936
 1 -3.64239214621462  6.34631225692569 -1.81319552205221
 1 -5.20764347154715  6.13290640674067 -1.15170504770477
 1 -4.31246472337234  4.69559973027303 -1.87809731773177
 1  3.89530793129313 -5.04237044954495  1.53639442184218
 1  7.82526055065507 -2.21029041804180  1.79193657665766

