%nproc=4
%Mem=2GB
# td=(NStates=1) B3LYP/SVP 

TD

0 1
 8 -4.18109962076208 -4.83052742394239  1.86841086948695
 8  3.11666569526953 -4.97505881268127  0.97344148144814
 8  6.79780608490849 -1.62811008070807  1.77830050955095
 8  3.63898895639564 -3.03514153915392  0.02446910751075
 8  7.65046458305831 -0.53193308840884  0.04413838113811
 8 -3.06019160526053  2.46179423022302 -0.34113567496750
 7 -0.24665165986599 -0.48342253535354 -0.69265627852785
 7  1.55559405210521  1.91982241474147 -0.42855443304330
 7 -3.26535852485249 -3.16935804880488  0.69401572017202
 7 -0.76299479517952  2.89759090849085 -0.05495934173417
 6  0.72309457375738 -2.34112207060706 -1.40937323242324
 6  0.91958486078608 -1.03654088578858 -0.95595444434443
 6 -0.73178730743074 -2.58992735493549 -1.26414847754775
 6 -1.35856627862786 -1.42830314171417 -0.75710484048405
 6  3.85994445524552  1.50583374987499 -0.27272153895390
 6  2.46162826862686  0.80947277277728 -0.49005319031903
 6  2.25565081528153 -0.49928718661866 -0.87500697529753
 6  3.57445808590859  2.78778858105811  0.13955194549455
 6  1.66106751185119 -3.34090579187919 -1.98370571617162
 6 -5.47609651635164 -2.85819143404340  1.36260352465247
 6 -3.50684454375438 -1.87037201310131  0.28373430523052
 6  2.13567787988799  3.03905389958996  0.10749837323732
 6 -5.06434913121312 -1.68775773967397  0.50779482338234
 6  5.06070133203320  0.87699261616162 -0.44563352205221
 6 -2.63734855055506 -1.12756131153115 -0.42134860866087
 6 -1.52114177627763 -3.75383513661366 -1.83232354915492
 6 -4.30002967136714 -3.74267849964996  1.32615774137414
 6  2.07069820352035 -4.46292531623162 -1.07154638143814
 6  5.34515331773177 -0.08186631013101  0.80715326252625
 6  4.54391045234524  3.89273212251225  0.55064726502650
 6  1.28515719411941  4.11928647894789  0.45887760836084
 6 -6.86352100270027 -3.41110589038904  1.03739280138014
 6 -5.87731731233123 -0.64713049704971  0.05873304020402
 6 -0.09844776407641  3.99962821262126  0.23417522942294
 6 -1.14055915451545  5.13212074577458  0.52065053055306
 6 -2.35616509020902  4.65449695109511  0.20274618061806
 6  3.01603818581858 -3.95001767196720  0.05624331353135
 6 -5.53112682218222  0.46534182278228 -0.76735820062006
 6  6.66450632963296 -0.72584805440544  0.76276717491749
 6 -3.62349989288929  5.26539759825983  0.23961847254725
 6 -2.12826237783778  3.17122208320832 -0.14811058085809
 6 -0.72208279937994  6.55038070807081  0.89026807840784
 6 -4.10234979757976  5.54558051475147 -1.19479857135714
 1 -0.24750633553355  0.41864873067307  0.01888214851485
 1  3.17529489048905 -1.15941408260826 -0.93464355175518
 1  2.56918679998000 -2.89302089868987 -2.22055860296030
 1  1.23448445464546 -3.69452356325632 -2.81941030113011
 1 -5.28530025732573 -2.69549817451745  2.57620816071607
 1  5.02212472497250  0.30724010541054 -1.47956830413041
 1  5.73283185058506  1.75096462456246 -0.55766934153415
 1 -2.88273449114911  0.00338812911291 -0.46044644214421
 1  0.57877510811081  1.87914775867587 -0.49038648414842
 1 -1.56077081288129 -4.76611118161816 -1.17486699649965
 1 -2.51103121412141 -3.28390897729773 -1.82163029612961
 1 -1.13842902280228 -4.01473854265427 -2.77822341164116
 1 -2.25193758005801 -3.73342307300730  0.73156582178218
 1  1.29672050135014 -5.16157885618562 -0.75884127402740
 1  2.75091119551955 -5.10769487638764 -1.51552693459346
 1  4.49418465146515 -0.72887405080508  0.91369110521052
 1  5.32108645404540  0.45747178587859  1.72078988208821
 1  4.49942046764677  4.74423483988399 -0.24369574137414
 1  5.49291238293829  3.64935246844684  0.43399918951895
 1  4.27409444204420  4.35835130723072  1.52300801770177
 1  1.69567034563456  5.14489366676668  0.68664974017402
 1 -7.70866243454345 -2.42545762926293  1.13423469306931
 1 -7.08363242714271 -4.25343172527253  1.78147398779878
 1 -6.73007870487049 -3.52987040314031 -0.01404931653165
 1 -7.03741826412641 -0.84520542904290  0.28889689078908
 1 -5.09941891399140  1.12353717461746 -0.09301656295629
 1 -6.48665704310431  1.00352942794279 -1.21966628272827
 1 -4.95673498549855  0.16950711291129 -1.66658342314231
 1 -3.65346733223322  6.40553495859586  0.73113999049905
 1 -4.33836527472747  4.55153748564856  0.73520954725473
 1  0.06796765226523  6.50021058645865  1.54235407700770
 1 -1.52740885118512  7.01605506020602  1.07137648934893
 1 -0.33309414141414  7.38753103880388  0.00763172027203
 1 -3.60860876787679  6.29358698439844 -1.72333653615362
 1 -5.19860256745675  5.92934605070507 -1.27648752595260
 1 -3.93728720562056  4.70789095939594 -1.75084459245925
 1  3.56290469096910 -4.16471268376838  1.74053483588359
 1  7.77567559215922 -1.93291268026803  1.80669805280528

