%nproc=4
%Mem=2GB
# td=(NStates=1) B3LYP/SVP 

TD

0 1
 8 -4.24271578237824 -4.93794816601660  1.77734176257626
 8  3.00993502220222 -4.85124643144314  1.01964610191019
 8  6.71526783108311 -1.73445071477148  1.92532521202120
 8  3.87951300880088 -3.18543656865687 -0.13954729412941
 8  7.66652618921892 -0.61543143824382  0.23668763606361
 8 -3.01174676077608  2.41091914271427 -0.31122268366837
 7 -0.26764375907591 -0.52761695479548 -0.48385539843984
 7  1.62144063676368  1.88854928742874 -0.34886646424642
 7 -3.29955194419442 -3.13471458445845  0.61227754635464
 7 -0.81357985368537  2.94128527792779 -0.04520836663666
 6  0.66024828912891 -2.28688664706471 -1.38423071817182
 6  0.89967286958696 -1.04211144284428 -0.98961781068107
 6 -0.74636876557656 -2.50700906310631 -1.28326038873887
 6 -1.29054947694769 -1.39603991539154 -0.67932706270627
 6  3.84740320112011  1.58566173267327 -0.26226049284929
 6  2.56901900770077  0.88439026452645 -0.53077726272627
 6  2.21631688188819 -0.44030128802880 -0.86148562316232
 6  3.56007664776478  2.91855165736574  0.13393138343834
 6  1.64003540864086 -3.31305300660066 -2.06681402700270
 6 -5.44830373707371 -2.89694530943094  1.38173543784378
 6 -3.53982784208421 -1.83694867076708  0.19479541134113
 6  2.16708102020202  3.08954894909491  0.00898852225223
 6 -5.10304300060006 -1.69983894779478  0.56731077497750
 6  5.14853011491149  0.86312122902290 -0.32124108280828
 6 -2.64140895659566 -1.01155971137114 -0.31653812761276
 6 -1.66408607070707 -3.64447420052005 -1.78532884968497
 6 -4.24976464486449 -3.82195642744274  1.31864699029903
 6  2.03163429712971 -4.47250627432743 -1.08395762256226
 6  5.24693349574958 -0.17559568306831  0.79382192939294
 6  4.59098515981598  4.03935678497850  0.29239143944394
 6  1.35259393779378  4.21843639393939  0.19786150675068
 6 -6.72723737433743 -3.64358913871387  1.03340240234023
 6 -5.86186576717672 -0.66763254725473  0.19020618751875
 6 -0.05686360566057  4.05051330113011  0.27448926082608
 6 -1.13276837543754  5.21650918461846  0.31339980548055
 6 -2.31919139283928  4.67224872627263  0.24023992999300
 6  3.12803938593859 -4.09864253445344 -0.10450276107611
 6 -5.52643635313531  0.50055534413441 -0.80647211201120
 6  6.60939081808181 -0.86655212481248  0.85152605080508
 6 -3.67902544544454  5.26905796429643  0.30572508320832
 6 -2.08295784738474  3.20234519551955 -0.00724649444945
 6 -0.72564315541554  6.70134580458046  0.69270832243224
 6 -4.24805436803680  5.46360231693169 -1.01560065156516
 1 -0.30250183508351  0.47102396819682  0.05543580388039
 1  3.17982534353435 -1.05693383458346 -0.91945203260326
 1  2.31874175547555 -2.75554715131513 -2.47532407950795
 1  1.19091009720972 -3.74336844774477 -3.05426378647865
 1 -5.64859658695870 -2.61957058175818  2.39413995389539
 1  5.16003851635164  0.29888927032703 -1.39277962526253
 1  5.97927649504950  1.69779930803080 -0.24346792139214
 1 -2.91234745244524 -0.07859006870687 -0.30182057955796
 1  0.47781501210121  1.86889673357336 -0.22563000850085
 1 -2.03017775357536 -4.38541311181118 -0.91257076687669
 1 -2.64231434243424 -3.30509109550955 -2.20194832793279
 1 -1.17785296519652 -3.83101016981698 -2.82847843714371
 1 -2.34558694499450 -3.60412014271427  0.49022168736874
 1  1.09762059135914 -4.62371506980698 -0.61672706260626
 1  2.31912801720172 -5.33851795869587 -1.71510689258926
 1  4.55127036003600 -0.96082724612461  0.97636737283728
 1  5.29263360876088  0.35405144384438  1.82343014611461
 1  4.71111163676368  4.66592700910091 -0.80461183298330
 1  5.41417450915092  3.37120465366537  0.59576536613661
 1  4.20563759635964  4.94811028312831  1.12842855975598
 1  1.82528330693069  5.09464864226423  0.47586866206621
 1 -7.59102067036704 -3.03005808930893  1.19981125072507
 1 -6.80010407430743 -4.59987636973697  1.44991083148315
 1 -6.68268396539654 -3.76380379647965 -0.10194810641064
 1 -6.92039656195620 -0.96396730523052  0.47363536463646
 1 -5.07913688578858  1.37869269016902 -0.31139840114011
 1 -6.49018739613961  0.84400347534754 -1.08363267936794
 1 -4.86452576457646  0.24709487168717 -1.47543430823082
 1 -3.74773675917592  6.13163756885689  0.78937581408141
 1 -4.35527696589659  4.58797112901290  0.88983500980098
 1  0.04289514501450  6.62036260166017  1.47846768836884
 1 -1.62590870117012  7.17684113881388  0.91297064876488
 1 -0.28610944294429  7.31600388608861 -0.25099414231423
 1 -3.80495840284028  6.43755138083808 -1.47978218071807
 1 -5.26272898009801  5.68641175727573 -1.04373425062506
 1 -4.13173665056506  4.90480065036504 -1.99884939293929
 1  3.78625702620262 -4.68754496699670  1.56632741514151
 1  7.67198522312231 -1.97401679067907  1.84069145214521

