%nproc=4
%Mem=2GB
# td=(NStates=1) B3LYP/SVP 

TD

0 1
 8 -4.18200971177118 -4.80909528072807  2.12244627302730
 8  3.25245927462746 -4.81530283708371  1.10834497179718
 8  6.68539484378438 -1.87001427112711  1.77121980148015
 8  3.74579963746375 -3.02527055205521 -0.13835717511751
 8  7.55764530113011 -0.38050794589459  0.19212317961796
 8 -2.98320390649065  2.37112516331633 -0.45001656305631
 7 -0.28008500320032 -0.39791398449845 -0.67680469336934
 7  1.54986347904790  1.83630406290629 -0.28772034963496
 7 -3.25359734873487 -3.15660677367737  0.66013233183318
 7 -0.81075957165717  2.99800094949495 -0.11919576537654
 6  0.68091035533553 -2.42226018441844 -1.46257855295530
 6  0.91112401470147 -1.05344257595760 -1.05038388728873
 6 -0.75064919361936 -2.56639500170017 -1.30431249394940
 6 -1.33800422242224 -1.39169948134813 -0.76575570557056
 6  3.72155061586159  1.50508367486749 -0.34339860666067
 6  2.46149825562556  0.81683350885089 -0.66707089208921
 6  2.22843809400940 -0.36197345524552 -0.99971944654465
 6  3.51100174027403  2.80845064726473  0.11430942124212
 6  1.68008941404140 -3.41081278257826 -2.05642298789879
 6 -5.40132903960396 -2.89794540944094  1.32782004630463
 6 -3.58395225452545 -1.89581455735574  0.20928686048605
 6  2.06268058015802  2.98998899309931  0.02807043044304
 6 -4.97992068836884 -1.68981794569457  0.45042908680868
 6  5.08927418931893  0.87399231613161 -0.33185214391439
 6 -2.62079689538954 -1.04650320572057 -0.43420989478948
 6 -1.53586324842484 -3.77489724282428 -1.76060637743774
 6 -4.18880854925493 -3.79106333813381  1.36984210981098
 6  2.01500263396340 -4.52925194889489 -1.00138936573657
 6  5.26207500990099 -0.18025614911491  0.82129467666767
 6  4.57063312461246  3.83353620292029  0.42989518981898
 6  1.24747342574257  4.12477702800280  0.41517323792379
 6 -6.73815846644665 -3.46972175197520  0.99525858795880
 6 -5.71003058365837 -0.60394617861786  0.08707587448745
 6 -0.06439435873587  4.12571082088209  0.31468328022802
 6 -1.03420851945195  5.23538107180718  0.46948541404140
 6 -2.29607908160816  4.68518001940194  0.26672257825783
 6  3.09349593159316 -4.07379004920492  0.02076976617662
 6 -5.55148885838584  0.48565385398540 -1.00497196199620
 6  6.63787366636664 -0.82578804840484  0.84321521972197
 6 -3.66268381128113  5.36205726422642  0.36178068876888
 6 -2.13603315491549  3.17495245624562 -0.12487825762576
 6 -0.74827541864186  6.64784045404541  1.00801985358536
 6 -4.28490805340534  5.52232818951895 -1.09306839833983
 1 -0.37302888778878  0.57933479927993 -0.25862560226023
 1  3.20556791779178 -1.01606974817482 -1.27884797219722
 1  2.52493237453745 -2.96465806240624 -2.31878842594259
 1  1.14088509470947 -4.06619072997300 -2.80372873297330
 1 -5.67851957925793 -2.65884450915091  2.21822236213621
 1  5.32082459495950  0.59732911431143 -1.34464481178118
 1  5.95627419481948  1.59348887698770 -0.23225680028003
 1 -2.83145936363636  0.20894868516852 -0.57800819831983
 1  0.50901813241324  2.08391823572357 -0.50199764526453
 1 -1.38784352015202 -4.53898846934694 -0.98297780758076
 1 -2.59723983498350 -3.41120170657066 -1.61498963206321
 1 -1.24731991189119 -4.01915898469847 -2.64270986028603
 1 -2.45955834213421 -3.50850058075808  0.74378704390439
 1  1.02906373567357 -4.99359205750575 -0.54515990589059
 1  2.59426553095310 -5.49834394129413 -1.33347872977298
 1  4.55699093209321 -0.94029519291929  0.81322105820582
 1  5.24767911331133  0.27113315201520  1.93207101020102
 1  4.60022054765477  4.60046046244624 -0.31767313911391
 1  5.55339843154315  3.36727426062606  0.56479226882688
 1  4.28764579717972  4.25563103520352  1.46205192209221
 1  1.86948772737274  5.09202838023802  0.53349442464246
 1 -7.47707927622762 -2.69084416791679  1.17688895849585
 1 -7.02300636453645 -4.24001038313831  1.65251109150915
 1 -6.92207790479048 -3.78018543464346  0.19326141454145
 1 -6.61123564586459 -0.53090399889989  0.68609661076108
 1 -4.68820779287929  1.10461528242824 -0.54437169846985
 1 -6.51991036843684  0.99279835483548 -1.36533084918492
 1 -4.89313862586259  0.21430159235924 -1.96470323512351
 1 -3.50279226472647  6.41624602970297  0.70699757625763
 1 -4.41154259245925  5.04595692759276  1.18683470977098
 1 -0.06014515901590  6.67120768616862  2.06012585418542
 1 -1.68463457375738  7.11797525222522  1.20217956965697
 1 -0.28528936093609  7.15200748644865  0.19831078817882
 1 -3.94382228922892  6.35890351605161 -1.87530173267327
 1 -5.38810151735173  5.83181629772977 -0.72880275747575
 1 -4.05204868176818  4.39966013631363 -1.77305681368137
 1  3.83032143264326 -4.70905711821182  1.75917670007001
 1  7.62931095569557 -2.13486287528753  1.78475585858586

