%nproc=4
%Mem=2GB
# td=(NStates=1) B3LYP/SVP 

TD

0 1
 8 -4.16212772357236 -4.95982035323532  1.75732976137614
 8  2.91343537223722 -5.10070137693769  1.05915005230523
 8  6.94944124842484 -1.56981425112511  1.79065174467447
 8  3.76651170867087 -3.20308833383338  0.10005666626663
 8  7.50877041364136 -0.53776367146715 -0.06966299899990
 8 -3.10202578867887  2.55966401720172 -0.37963952535254
 7 -0.15206220092009 -0.59220341344134 -0.39011602450245
 7  1.52589108180818  1.88941937443744 -0.30802237983798
 7 -3.32651464046405 -3.22786389938994  0.59269558815882
 7 -0.83250174587459  2.97927907730773 -0.11910575637564
 6  0.67773003730373 -2.39386734513451 -1.38067036213621
 6  0.98604150645064 -1.08001523322332 -0.82078092699270
 6 -0.66191031973197 -2.59414777697770 -1.19327138983898
 6 -1.22260268226823 -1.44738504990499 -0.64777390739074
 6  3.83080154095409  1.59357252375238 -0.21370563736374
 6  2.52582468826883  0.90268209370937 -0.51121530653065
 6  2.23382863306331 -0.43940119801980 -0.84253372797280
 6  3.49599023912391  2.88982878507851  0.02138012831283
 6  1.73393479857986 -3.28447014831483 -2.05474281988199
 6 -5.42758166486649 -2.79790540544054  1.40971823612361
 6 -3.65064892419242 -1.87303227912791  0.14151008280828
 6  2.02024633673367  3.08252824702470 -0.00698307490749
 6 -4.99212190849085 -1.58399736363636  0.53613765766577
 6  5.18101336323632  0.86228114501450 -0.36703566226623
 6 -2.62255707140714 -1.07184573997400 -0.35546202000200
 6 -1.51527118921892 -3.81825157825783 -1.78189850665066
 6 -4.31943161156116 -3.82525675747575  1.36233135873587
 6  2.04367550125012 -4.47831685538554 -1.16099532633263
 6  5.42216101850185 -0.17827595109511  0.75934848204820
 6  4.50374643594359  3.92975582488249  0.45670787108711
 6  1.23314199259926  4.16128067836784  0.34234595519552
 6 -6.72594724532453 -3.44769954975497  0.89208827092709
 6 -5.76824640524052 -0.53028881288129  0.14177134403440
 6 -0.15167308660866  4.13379162896290  0.19482129402940
 6 -1.09083418201820  5.21304883858386  0.48764723022302
 6 -2.37030650435043  4.69351085248525  0.21191709770977
 6  2.95967254925493 -4.07488015821582  0.07473516271627
 6 -5.47890159965997  0.59058434703470 -0.76145761056106
 6  6.63659353835384 -0.77643311291129  0.74426532473247
 6 -3.73704124702470  5.23738479697970  0.29972448314831
 6 -2.16321587318732  3.35530049104911 -0.18619438923892
 6 -0.60462105320532  6.61574724472447  0.84918396999700
 6 -4.28574813741374  5.40157611431143 -1.11606069756976
 1 -0.40868245314531  0.18710557635764  0.24457471777178
 1  3.21288864986499 -1.18109625082508 -0.69557964536454
 1  2.81062094339434 -2.70746234283428 -2.19948649574957
 1  1.36220722692269 -3.37491160206021 -3.09281764186419
 1 -5.52813454075407 -2.63038166286629  2.48242878277828
 1  5.27655016751675  0.24344372577258 -1.38517886518652
 1  5.98799736713671  1.66547607570757 -0.49189276387639
 1 -2.89399561726173 -0.00202241194119 -0.66957735523552
 1  0.42781001160116  1.85877572147215 -0.30762820832083
 1 -1.80274501030103 -4.68538310881088 -1.06758626842684
 1 -2.53951406240624 -3.52841342774277 -2.16920505360536
 1 -0.70934611451145 -4.27915498429843 -2.63123871317132
 1 -2.36207859415942 -3.89530926162616  0.18914157935794
 1  1.00772160146015 -5.24130682898290 -0.64965035493549
 1  2.98424452885288 -5.04650875777578 -1.84626000790079
 1  4.57797303030303 -1.02592375577558  0.79461919801980
 1  5.18443278867887  0.12504854355436  1.91696950005001
 1  4.37818834443444  4.84375479187919 -0.02970434223422
 1  5.55608870057006  3.60980851405140  0.48630442004200
 1  4.22934996759676  4.15153062516252  1.48720443734373
 1  1.67906868546855  5.21247042444244  0.62480355555556
 1 -7.67043861216122 -2.78657374087409  0.78446971657166
 1 -6.97162122602260 -4.43022940504050  1.35591143154315
 1 -6.72466816381638 -3.69984740084008 -0.09509742134213
 1 -6.82662718501850 -0.45651656015602  0.67538553965397
 1 -4.83504247634764  1.27528234913491 -0.14265152645265
 1 -6.40240861826183  1.05657473247325 -0.94729904600460
 1 -4.93903321532153  0.22895305750575 -1.49097586238624
 1 -3.44968695419542  6.23636804190419  0.75299217571757
 1 -4.39330076827683  4.55328766066607  0.79985601190119
 1  0.02514336983698  6.63490405580558  1.68443828542854
 1 -1.45599170947095  7.27739119381938  0.91904125582558
 1 -0.13845467746775  7.00845313101310 -0.05503454635464
 1 -3.53324123112311  6.07775540124012 -1.72248645114511
 1 -5.34008671587159  5.88420153625363 -1.11055093229323
 1 -4.18452192909291  4.54521469176918 -1.77206671467147
 1  3.32327072757276 -4.75016122862286  1.78298908130813
 1  7.78228625322532 -1.86439582858286  1.60745812881288

