%nproc=4
%Mem=2GB
# td=(NStates=1) B3LYP/SVP 

TD

0 1
 8 -4.00371188198820 -4.61077544874488  2.07361138953895
 8  3.07510153885389 -4.81387269406941  1.02287642494249
 8  6.82483878817882 -1.58533580328033  2.04261694119412
 8  3.90733579107911 -3.22574059905991 -0.30886422582258
 8  7.59424896149615 -0.51549144424442  0.19737370467047
 8 -3.12356794289429  2.39950800160016 -0.16200776217622
 7 -0.22506950165017 -0.51658585168517 -0.60991800470047
 7  1.51123961666167  1.85420585308531 -0.47238881648165
 7 -3.21943393239324 -3.02999411241124  0.65681199979998
 7 -0.77632612831283  2.81065221462146 -0.14499834563456
 6  0.59032129642964 -2.44260221862186 -1.45298759385939
 6  0.98896179847985 -1.09080631233123 -1.09420826972697
 6 -0.75463959265927 -2.60871923412341 -1.37591965466547
 6 -1.25971639363936 -1.37076738813881 -0.83667279727973
 6  3.74746320712071  1.50688385488549 -0.38408267506751
 6  2.48560066586659  0.83869569506951 -0.61166535153515
 6  2.25356060626063 -0.44407166506651 -1.03782325692569
 6  3.59194983508351  2.81361116331633  0.06788477877788
 6  1.56656806190619 -3.33709541084108 -2.06799414501450
 6 -5.38786769346935 -2.70040565546555  1.32436970127013
 6 -3.54320818011801 -1.70457543344334  0.19788572037204
 6  1.98531284338434  3.04091408560856  0.05094271767177
 6 -4.94485718201820 -1.55524448834883  0.46652069596960
 6  5.03694895679568  0.76330124702470 -0.22786174487449
 6 -2.60226504220422 -0.92043059845985 -0.36965343914391
 6 -1.42448211031103 -3.81607136023602 -1.77890820762076
 6 -4.11013068146815 -3.59210344214421  1.48340346594659
 6  1.97817895159516 -4.50848987268727 -1.14785401220122
 6  5.23246204860486 -0.25732385588559  0.92436498369837
 6  4.55063112441244  3.88562141144114  0.46966916721672
 6  1.21283996239624  4.14389894019402  0.44158587918792
 6 -6.72394704530453 -3.43800858065807  1.08240730283028
 6 -5.82224180478048 -0.62195797979798 -0.00260309340934
 6 -0.22065998529853  3.99948819861986  0.24998681058106
 6 -1.14681978057806  5.11095862956296  0.51501996749675
 6 -2.41261073477348  4.62165366676668  0.26909281528153
 6  3.05851243324332 -4.08168083828383 -0.19282159295930
 6 -5.55531924142414  0.53831912051205 -0.99112057685769
 6  6.68967884688469 -0.77964343394339  0.91832273047305
 6 -3.70416795969597  5.23904496299630  0.31690620132013
 6 -2.09488904050405  3.13831879287929 -0.03914968476848
 6 -0.71640223132313  6.50098576857686  0.84239329092909
 6 -4.39964952755276  5.45403135983598 -1.07378647014702
 1 -0.32504408930893  0.16440330613061  0.28704896519652
 1  3.09481684268427 -1.23246138733873 -0.96990707810781
 1  2.50366024732473 -2.92822441904190 -2.47239378647865
 1  1.03500450665067 -3.69562367326733 -2.90130849094910
 1 -5.33850557785779 -2.30684930963096  2.33313385328533
 1  5.16059857235723  0.23699308070807 -1.18333868116812
 1  6.04945351275127  1.46515604370437 -0.30212378697870
 1 -2.77894411211121  0.12897068736874 -0.27466786428643
 1  0.40704793539354  1.72671251515151 -0.62899034453445
 1 -1.22587732353235 -4.75791036153615 -1.01567107690769
 1 -2.57578768976898 -3.83312389878988 -1.88446657975798
 1 -1.04768994889489 -4.09468653745374 -2.92835842514251
 1 -2.05042742904290 -3.34365409610961  0.68951161636164
 1  1.14061489078908 -4.66580927922792 -0.45821121102110
 1  2.18974507890789 -5.47036114301430 -1.63519890179018
 1  4.74589982298230 -1.26423758715872  0.76499623572357
 1  5.04786913231323  0.08253429212921  2.00599840294029
 1  4.52917344294429  4.85889630603060 -0.12607397919792
 1  5.54625771747175  3.37195472867287  0.44115990559056
 1  4.64909194179418  4.04622009410941  1.69492520942094
 1  1.59422020062006  4.93255243264326  1.02632370757076
 1 -7.44332590089009 -2.63004808830883  1.17985925552555
 1 -6.91894595849585 -4.16144252635264  1.86343218361836
 1 -6.61623732073207 -3.89841725782578  0.02621470987099
 1 -6.76935145744574 -0.45204611311131  0.38207620872087
 1 -5.04072304440444  1.35458027892789 -0.41810907220722
 1 -6.62790116751675  0.90659973497350 -1.54654897099710
 1 -5.04637394939494  0.14697485968597 -1.87371413621362
 1 -3.64033601910191  6.31256566166617  0.69936681318132
 1 -4.41853329152915  4.56308864076408  0.79048507480748
 1 -0.33257240174017  6.59700026542654  1.88293813541354
 1 -1.54528063836384  7.35590904560456  0.47483683538354
 1  0.35357452545254  6.74295658135814  0.31035199229923
 1 -3.91869977697770  6.26253387908791 -1.68367256975698
 1 -5.30639334653465  5.85426854295430 -1.01210108730873
 1 -4.52751622852285  4.68966913721372 -1.51991149914991
 1  3.76925532603260 -4.43907011951195  1.59990077247725
 1  7.67651567616762 -2.09280866986699  2.18977636063606

