%nproc=4
%Mem=2GB
# td=(NStates=1) B3LYP/SVP 

TD

0 1
 8 -4.07158866966697 -4.76351072227223  1.82186621502150
 8  2.78034206290629 -4.82749405620562  1.08996313361336
 8  6.97494379867987 -1.65977324702470  1.74021670117012
 8  3.89312436993699 -3.37101512651265 -0.13069640904090
 8  7.70199973657366 -0.31295119021902  0.03503747104710
 8 -3.05500108620862  2.37566561736174 -0.48640020142014
 7 -0.22607960266027 -0.52796698979898 -0.78961597449745
 7  1.45620411311131  1.76903733623362 -0.32881445904590
 7 -3.27181917091709 -3.01207232023202  0.68220453905391
 7 -0.81001949764976  2.90300144954495 -0.02069591539154
 6  0.63000526482648 -2.44864282268227 -1.49466176127613
 6  0.95783868616862 -1.02415964766477 -1.13332218111811
 6 -0.75807993669367 -2.74335269746975 -1.25687775047505
 6 -1.27926834883488 -1.47761807320732 -0.78193732373237
 6  3.70270873167317  1.61951511801180 -0.28886315311531
 6  2.49576168196820  0.84092591809181 -0.61583576857686
 6  2.20846609680968 -0.44288154605461 -0.99389886448645
 6  3.52898353845385  2.80940074227423  0.12052004230423
 6  1.71573297839784 -3.37328903020302 -1.90944829042904
 6 -5.49652855955596 -2.76700231513151  1.39861712601260
 6 -3.56447030633063 -1.77813278917892  0.24571050285028
 6  1.97482179427943  2.95516551075108  0.09599722312231
 6 -5.00277297359736 -1.59229819371937  0.50515455935594
 6  5.08273353525353  0.88248316521652 -0.27851681038104
 6 -2.60516533223322 -1.03349190459046 -0.39802627642764
 6 -1.42372203430343 -3.93559331243124 -1.71093140994099
 6 -4.29125879427943 -3.71616584838484  1.35744086968697
 6  1.91755288898890 -4.59265828952895 -1.05671489828983
 6  5.38429723212321 -0.08372649614962  0.77975052225223
 6  4.33834989628963  3.91994484378438  0.77544974527453
 6  1.30288896729673  4.14503905420542  0.41926364696470
 6 -6.75408005860586 -3.47921270107011  0.99412847494750
 6 -5.76460604120412 -0.55173095709571  0.25093226012601
 6 -0.14091201050105  4.03024127392739  0.27066887878788
 6 -1.07605270387039  5.13405093879388  0.52959142464246
 6 -2.33729320302030  4.63488498989899  0.20526643264326
 6  2.94447102910291 -4.12267493769377 -0.04918722952295
 6 -5.35943965346535  0.61826711531153 -0.71228269306931
 6  6.82880275927593 -0.62517798739874  0.83351424962496
 6 -3.63763130603060  5.33227428592859  0.21136564726473
 6 -2.16985653725373  3.23057801880188 -0.10135590539054
 6 -0.65109570067007  6.49061473147315  0.86402545414541
 6 -4.31298086068607  5.47666362306231 -1.16865595709571
 1 -0.59986157105711  0.25740260606061 -0.18033777347735
 1  3.26073343434343 -1.13611175237524 -1.18594868226823
 1  2.70402028332833 -3.00825242184218 -2.20081662876288
 1  1.25182618881888 -3.92496660756076 -2.90033839393939
 1 -5.68894062136214 -2.59871849654965  2.64662520242024
 1  5.07741025352535  0.34531391279128 -1.22622296959696
 1  5.61239980738074  1.71125065316532 -0.26892046664666
 1 -2.65180139783978  0.05606339663966 -0.51476187368737
 1  0.30247747834783  2.03445328922892 -0.58477592309231
 1 -1.11699643544355 -4.73897846834684 -1.14328383818382
 1 -2.51815192619262 -4.02423300970097 -1.59981811491149
 1 -0.86400158005801 -4.20622769156916 -2.67931352065206
 1 -2.49394178047805 -3.40394012471247  0.52302496769677
 1  1.05171600090009 -4.80662336063606 -0.71208659855986
 1  2.28417452185218 -5.50865497239724 -1.69160454235424
 1  4.83836906990699 -1.01426258965897  0.52531226732673
 1  5.31325567096710  0.19247528622862  1.96964476757676
 1  4.36762728832883  4.94401481788179  0.30563919211921
 1  5.42137522922292  3.57028456165616  0.64342013161316
 1  3.98874590719072  4.05548102020202  1.92056777367737
 1  1.76786756535654  5.28318749614962  0.64062513771377
 1 -7.57049861816182 -2.85694077757776  1.21713298289829
 1 -6.87449151305131 -4.53180956305631  1.22731857225723
 1 -6.70049574657466 -3.45493290939094 -0.29139705130513
 1 -6.87285180748075 -0.43500440894089  0.70136813791379
 1 -4.56815578767877  1.31069589048905 -0.14886214751475
 1 -6.25965434283428  1.30484955995600 -1.07463177927793
 1 -4.66058537053705  0.27988815101510 -1.65437220202020
 1 -3.69737172267227  6.25245965106511  0.58646552305230
 1 -4.28892033023302  4.98015034693469  0.99109513581358
 1 -0.18852799729973  6.63855442084208  1.97801764336434
 1 -1.42061817211721  7.34845830053005  0.49286863856386
 1  0.42207137513751  6.70647293299330  0.28609956705671
 1 -3.66187409440944  6.12827045274528 -1.79015321782178
 1 -5.25904861206121  6.05244836093609 -0.97662753995400
 1 -4.53560703760376  4.65809597989799 -1.78619812781278
 1  3.39593799429943 -4.47787399989999  1.96789757215722
 1  8.01658968356836 -1.66416580558056  1.70801818481848

