%nproc=4
%Mem=2GB
# td=(NStates=1) B3LYP/SVP 

TD

0 1
 8 -4.26645815661566 -5.04068844004401  1.54856888528853
 8  2.71976600530053 -4.63748505530553  1.33251738903890
 8  7.03318962326233 -1.50176744644464  1.93160584008401
 8  3.94709976747675 -3.12065009000900 -0.08244158355836
 8  7.50350988758876 -0.68182807790779 -0.19680571327133
 8 -3.11570715681568  2.40278832963296 -0.46963852525253
 7 -0.21451844654465 -0.52625681878188 -0.54960197309731
 7  1.59635812851285  1.75650608310831 -0.33115469306931
 7 -3.23057504650465 -3.08398951195120  0.58848516711671
 7 -0.87624612031203  2.85219636903690  0.01138729292929
 6  0.60522278657866 -2.40349830823082 -1.39885218031803
 6  0.93605650795079 -1.17797502920292 -0.95700454935494
 6 -0.78350247894789 -2.62905126732673 -1.29572163486349
 6 -1.29367978997900 -1.39069938133813 -0.75524465446545
 6  3.77628608940894  1.49222238873887 -0.34845911271127
 6  2.49533163896390  0.85168699419942 -0.48234241924192
 6  2.27328257845785 -0.53517077497750 -0.85305478007801
 6  3.49278991909191  2.80743054525453  0.05543353365337
 6  1.72191359645965 -3.32877457875788 -1.96948429402940
 6 -5.49038794549455 -2.75988160306031  1.41702896719672
 6 -3.54440830013001 -1.80533550945095  0.28511444324432
 6  2.07212152425243  2.90597059125913  0.09161678507851
 6 -4.97756045234523 -1.55696466036604  0.55706975087509
 6  5.18121338323832  0.79629454635464 -0.33423238193819
 6 -2.60493530923092 -0.99736829222922 -0.44935140894089
 6 -1.45635529762976 -3.74582433553355 -1.87671798859886
 6 -4.21631129952995 -3.78050228202820  1.24347947354735
 6  2.16043717741774 -4.42503152685269 -1.11454068086809
 6  5.45093389578958 -0.00146827032703  0.90040258745875
 6  4.43857991929193  3.92332518181818  0.45956815711571
 6  1.20687936633663  4.03533808410841  0.22748446904690
 6 -6.78787343794379 -3.37912269206921  0.97873693579358
 6 -5.76370595119512 -0.49626541054105  0.18721588848885
 6 -0.17319523882388  3.95021327112711  0.29432124402440
 6 -1.09246434503450  5.11368890259026  0.44989345484548
 6 -2.31679115281528  4.67699920132013  0.34262016801680
 6  2.99420600260026 -3.99241191139114  0.12704039323932
 6 -5.54196790629063  0.70656594519452 -0.69716118091809
 6  6.75982586158616 -0.72748821842184  0.74769566776678
 6 -3.72834037693769  5.22795385388539  0.34773928462846
 6 -2.19901945354535  3.22624758575858 -0.01049681948195
 6 -0.61546213731373  6.54911058105811  0.71792084368437
 6 -4.27892745534553  5.41494745144514 -1.04059315081508
 1 -0.43790537543754  0.14081094689469  0.13885414571457
 1  3.00760812181218 -1.26059420062006 -1.26640672807281
 1  2.46457633893389 -2.58346994359436 -2.20181672877288
 1  1.65878688488849 -3.54193830473047 -2.99192755285529
 1 -5.44352607990799 -2.63512213691369  2.48095863576358
 1  5.33674618711871  0.27790717211721 -1.39007935523552
 1  6.02583115051505  1.45068459655966 -0.55610918551855
 1 -2.79527574527453  0.20298808910891 -0.41437183468347
 1  0.63132036263626  1.50559040294029 -0.76599404490449
 1 -1.38253298909891 -4.50782535303530 -1.07635714551455
 1 -2.65079519051905 -3.65611619801980 -2.12575070817082
 1 -0.99071425132513 -4.09062613141314 -2.91684727402740
 1 -2.34844723102310 -3.37295702640264  0.48407107230723
 1  1.19407023632363 -4.98023072137214 -0.67879326922692
 1  2.74177028142814 -5.26687079397940 -1.69337471937194
 1  4.48515374837484 -0.63507467086709  1.09723946004600
 1  5.56388073347335  0.65278131683168  1.87219502260226
 1  4.44313483908391  4.74162457885789 -0.35903727552755
 1  5.42767585928593  3.61165869906991  0.47004279387939
 1  3.94756178877888  4.29031450355036  1.44325004190419
 1  1.92542332093209  4.84211338873887  0.34428550375038
 1 -7.65193676197620 -2.95600068356836  1.40327159675968
 1 -6.90126419031903 -4.49485586768677  1.33899974037404
 1 -7.07092278927893 -3.44716213231323 -0.03258116971697
 1 -6.89115363766377 -0.60465137363736  0.41726972807281
 1 -4.84298327042704  1.57747256815682 -0.11789905120512
 1 -6.49017739513951  1.10271934693469 -0.94675899199920
 1 -4.97102641464146  0.45909607180718 -1.72572933773377
 1 -3.54477646314632  6.36180058515852  0.63979085558556
 1 -4.41344278247825  4.69438177007701  1.02709873617362
 1 -0.09814895939594  6.42698326372637  1.76906674827483
 1 -1.47605371567157  7.13716717141714  0.94769412111211
 1 -0.00198103010301  7.00596288198820 -0.00905994889489
 1 -3.81547945494549  6.24190181588159 -1.50632483498350
 1 -5.34949765696570  5.65210832693269 -0.94438431563156
 1 -4.21696517341734  4.48818898919892 -1.73910341834183
 1  3.37850625112511 -4.35870208270827  1.91391217361736
 1  8.08824684928493 -1.77124651365137  1.65208259125913

