%nproc=4
%Mem=2GB
# td=(NStates=1) B3LYP/SVP 

TD

0 1
 8 -4.30242175297530 -4.90003437463746  1.78662269066907
 8  3.19006303500350 -5.00411171797180  0.97751188848885
 8  6.91940824512451 -1.49757702740274  1.93891657115712
 8  3.74153921142114 -3.16706473147315 -0.12336567596760
 8  7.63119265586559 -0.25754564966497  0.16277024432443
 8 -2.98421400750075  2.46194424522452 -0.40315187658766
 7 -0.27548454315432 -0.50089428252825 -0.65609262216222
 7  1.54821331403140  1.81601203370337 -0.45682726032603
 7 -3.36612860186019 -3.20154126712671  0.50502682128213
 7 -0.74870336603660  2.98707985738574 -0.06173001880188
 6  0.60070233453345 -2.39342730113011 -1.42824511961196
 6  0.92802570487049 -1.05067229892989 -1.05348419731973
 6 -0.70280440914091 -2.59266762896290 -1.42057412011201
 6 -1.30485090709071 -1.41371168256826 -0.79406853685369
 6  3.74958341914191  1.47175034153415 -0.16913117991799
 6  2.44108621442144  0.83406523202320 -0.52839702470247
 6  2.14401965216522 -0.51800905880588 -0.81882135673567
 6  3.54476511661166  2.73339314151415  0.17376536683668
 6  1.58048945404540 -3.33415511681168 -2.06683402900290
 6 -5.45249415611561 -2.82143775867587  1.44098136243624
 6 -3.57456131543154 -1.87092206810681  0.23346927872787
 6  2.12117642974297  2.99717971217122  0.05401302470247
 6 -5.00827352365237 -1.66142510641064  0.59367341124112
 6  5.06938220012001  0.79576449334933 -0.38408736743674
 6 -2.68317313301330 -1.07345590099010 -0.44118059185919
 6 -1.48516817891789 -3.81357111021102 -1.83349366616662
 6 -4.31644131253125 -3.74123835563556  1.33175830143014
 6  1.97499863356336 -4.55810483418342 -1.10934016081608
 6  5.30508931133113 -0.12341046454645  0.88892143934393
 6  4.51873793509351  3.83362621192119  0.48567076737674
 6  1.36151482988299  4.13839839013901  0.39390111071107
 6 -6.88082273287329 -3.40282506230623  1.15380444254425
 6 -5.69681926252625 -0.45273105710571  0.33488065496550
 6 -0.09823774307431  4.16527477727773  0.22318413031303
 6 -1.05235033363336  5.20334786848685  0.45623408890889
 6 -2.31763123682368  4.66759826122612  0.30509641564156
 6  3.03471005300530 -4.10843351355135 -0.08769107990799
 6 -5.24398810831083  0.58702399099910 -0.71862332713271
 6  6.75820569956996 -0.60794626422642  0.90599149734973
 6 -3.73260080298030  5.24101516001600  0.21196570727073
 6 -2.08139769136914  3.29405436643664  0.00708493869387
 6 -0.68868946004600  6.66282195219522  0.73821287288729
 6 -4.30076963956396  5.30745670237024 -1.21576066756676
 1 -0.48797038193819  0.51839870567057 -0.22721246094609
 1  3.04808216921692 -1.21647978917892 -0.89054914231423
 1  2.40262014331433 -2.91931352795280 -2.67414396149615
 1  1.03278428462846 -3.91910602150215 -2.80732909300930
 1 -5.53300502780278 -2.57482610731073  2.42214275417542
 1  5.11270378287829  0.07463684508451 -1.26338668596860
 1  5.60897946534653  1.53868339643964 -0.63596717131713
 1 -2.89471568926893 -0.01023323302330 -0.38997939543954
 1  0.51159839043904  1.78670851475147 -0.51158860436044
 1 -1.20657539333933 -4.60992556305631 -1.32720223002300
 1 -2.50641075207521 -3.73685427182718 -1.97957609070907
 1 -1.45480065996600 -4.18992606140614 -3.04143973327333
 1 -2.46720910721072 -3.33571330203020  0.55009767496750
 1  0.97961879117912 -4.82003470177018 -0.68623401330133
 1  2.35046115051505 -5.28835294219422 -1.77669305120512
 1  4.63250848384838 -1.03068423182318  0.94460419651965
 1  4.90784512991299  0.59206524522452  1.84934273737374
 1  4.31221174677468  4.78275869226923 -0.08689006080608
 1  5.47027011871187  3.48366589978998  0.17892368196820
 1  4.56415344794479  3.90093556565657  1.66613233013301
 1  1.77996877547755  5.02237141454145  0.73881495669567
 1 -7.82140370867087 -2.70698578207821  1.28756002560256
 1 -7.05605966986699 -4.33186956905690  1.90226606700670
 1 -6.79646534353435 -3.63693110921092  0.12901498989899
 1 -6.82470699299930 -0.49086999549955  0.86844484558456
 1 -4.64950392249225  1.49347416831683 -0.17907516881688
 1 -6.15857423482348  1.11264033903390 -1.02531684778478
 1 -4.67013632563256  0.02953311551155 -1.48490525532553
 1 -3.92205419091909  6.37460186528653  0.84828170467047
 1 -4.52417385558556  4.71255358725873  0.78835486178618
 1  0.00844169966997  6.50181074647465  1.60552039363936
 1 -1.74246035633563  7.07105055975598  0.93479283098310
 1 -0.16659749174917  6.90710299599960  0.02017297439744
 1 -3.68659656665667  5.82589021472147 -1.85735993849385
 1 -5.36716942414241  5.63778689478948 -1.21796167336734
 1 -4.21398487538754  4.29624979527953 -1.60480998899890
 1  3.66558495899590 -4.60432664516452  1.67508829122912
 1  7.82533055765577 -1.81084047304730  2.02022940594059

