%nproc=4
%Mem=2GB
# td=(NStates=1) B3LYP/SVP 

TD

0 1
 8 -4.16825833663366 -4.94470884208421  1.80345437383738
 8  3.23515754445445 -4.85751705850585  1.03408754605461
 8  6.90505680998100 -1.48173544324432  1.95363804330433
 8  3.98283334083408 -3.17835586058606 -0.20537387678768
 8  7.52993252985299 -0.55285518061806  0.06275024232423
 8 -3.02707829392939  2.42901095189519 -0.41372293369337
 7 -0.40007700240024 -0.46869106220622 -0.72910992389239
 7  1.54287277997800  1.78817925042504 -0.38412999059906
 7 -3.23993598259826 -3.22891400440044  0.63655997459746
 7 -0.86070456615662  2.93139428882888 -0.14118796459646
 6  0.56316858115812 -2.40124808320832 -1.40950324542454
 6  0.86074897719772 -1.09792702440244 -0.99606845574557
 6 -0.78363249194919 -2.64125248744874 -1.21066312901290
 6 -1.37868829082908 -1.40970128152815 -0.83433256325633
 6  3.76684514531453  1.47663082958296 -0.20642490929093
 6  2.53333543934393  0.87738956445645 -0.55430961596160
 6  2.16019126932693 -0.44405166306631 -0.94861433603360
 6  3.53353399349935  2.76864666686669  0.22477046734673
 6  1.50461186628663 -3.38328002930293 -2.04182152775278
 6 -5.48156706340634 -2.85484109900990  1.32762002630263
 6 -3.63817767706771 -1.88686366226623  0.12372830463046
 6  2.08229254135414  3.04476447064706  0.02421004440444
 6 -4.98680137643764 -1.60031899579958  0.53469751365137
 6  5.04087934983498  0.79084400130013 -0.26032499119912
 6 -2.62065688138814 -0.99704826022602 -0.41334780858086
 6 -1.59441910401040 -3.75630538363836 -1.89203952075208
 6 -4.28186785518552 -3.75123935573557  1.36077120272027
 6  2.07600873457346 -4.49312833653365 -0.98995822262226
 6  5.34133293569357 -0.13541166466647  0.90910345754575
 6  4.49392545384538  3.87498034733473  0.58971117141714
 6  1.25778445684568  4.16835138543854  0.32462418301830
 6 -6.84649930053005 -3.63113789358936  1.02833189528953
 6 -5.73802338293829 -0.60178596259626  0.26693386028603
 6 -0.09296721602160  4.01139938973897  0.21462327422742
 6 -1.02551765036504  5.18382591629163  0.46010447594759
 6 -2.29763923762376  4.80696219761976  0.15077098309831
 6  3.19399598159816 -4.06454912511251 -0.06639895069507
 6 -5.40923463296330  0.64874016261626 -0.53606507130713
 6  6.68957883688369 -0.78520398999900  0.85101599979998
 6 -3.66621416431643  5.39588064656466  0.17768227892789
 6 -2.13839339093909  3.32795775677568 -0.12822859265927
 6 -0.62824341544154  6.53390906090609  0.81523057465747
 6 -4.27164672727273  5.54798075477548 -1.15183427492749
 1 -0.39138072297230  0.42547941374137 -0.26352609230923
 1  2.95396275727573 -1.04741288248825 -1.29843993139314
 1  2.47348723002300 -2.99721131773177 -2.70767731483148
 1  0.84366537273727 -4.02467657855786 -2.71452981308131
 1 -5.56390811811181 -2.37343596829683  2.44257479737974
 1  5.05649816231623  0.09393877527753 -1.19384973227323
 1  5.78237680508051  1.50770029812981 -0.42648622322232
 1 -2.90420663836384  0.18803659395940 -0.42047244474447
 1  0.50858808940894  1.80859070297030 -0.40849829532953
 1 -1.26981171697170 -4.89192376287629 -1.40954046384638
 1 -2.75621573257326 -3.43839442584258 -1.54111224432443
 1 -1.43290847074707 -4.00295736453645 -3.04103969326933
 1 -2.21511389768977 -3.67382711341134  0.76140880608061
 1  1.20993182248225 -4.83677637593759 -0.39343473337334
 1  2.36305240964096 -5.28435254215422 -1.69077445934593
 1  4.62162739573957 -0.95852701610161  1.06923665976598
 1  5.05001934733473  0.42486852555256  1.76146394949495
 1  4.90219074467447  4.54326474287429 -0.36213758555856
 1  5.67763085478548  3.43963149634964  1.05083087268727
 1  3.97907494009401  4.82680815291529  1.41132684958496
 1  1.50620139873987  5.15405458285829  0.60288136333633
 1 -7.49530109840984 -2.92492757625763  1.30382165176518
 1 -7.02451651555156 -4.49511589368937  1.81663750415041
 1 -7.15145084208421 -3.89961737783778 -0.05554346594659
 1 -6.62119664196420 -0.44841575007501  0.66907490859086
 1 -4.97048602070207  1.48986380728073  0.10871361006101
 1 -6.32349072647265  1.09661873687369 -0.82748706480648
 1 -4.49502881488149  0.62160232243224 -1.29769653445344
 1 -3.62645463096310  6.22981738683868  0.71308818531853
 1 -4.35751718991899  4.73078541044104  0.84010003630363
 1 -0.16092523702370  6.56826739213921  1.75484532613261
 1 -1.51348745904591  7.31109456415642  1.01459081078108
 1  0.29133830183018  6.88250053575358  0.18831978907891
 1 -3.49056696369637  6.13821144684468 -1.86566076857686
 1 -5.31054376157616  6.08234135023502 -0.99460933813381
 1 -4.47209068596860  4.53732390269027 -1.66748625662566
 1  3.95016341684168 -4.41376758925893  1.60744152655265
 1  7.85161318591859 -1.71832122112211  1.99253663666367

