%nproc=4
%Mem=2GB
# td=(NStates=1) B3LYP/SVP 

TD

0 1
 8 -4.15193670447045 -4.96939131033103  1.68399242764276
 8  2.98452248094809 -4.85282658945895  1.05374951225123
 8  7.02470877517752 -1.57792506220622  1.83058573807381
 8  3.68197325482548 -3.07450547554755 -0.03755709510951
 8  7.63068260486049 -0.44452434753475 -0.01342737543754
 8 -2.94984057015702  2.27590564136414 -0.31530309170917
 7 -0.26981397609761 -0.49569376247625 -0.43052006490649
 7  1.61508000070007  1.84514494699470 -0.31995357295730
 7 -3.29369135813581 -3.13936504950495  0.68268458705871
 7 -0.71940043574357  2.82316346574657 -0.19707355315532
 6  0.57583984828483 -2.39462742114211 -1.34087638273827
 6  0.87936083838384 -1.07408464016402 -0.84565341424142
 6 -0.77485161386139 -2.57559592179218 -1.16495855855586
 6 -1.26657707970797 -1.34535484688469 -0.64313344334433
 6  3.75377383818382  1.49705287178718 -0.17630189698970
 6  2.53529563536354  0.86543836933693 -0.44789897489749
 6  2.17296254645465 -0.45507276517652 -0.69099857445745
 6  3.56897753785379  2.81765156735674  0.01099909020902
 6  1.62525393049305 -3.27196889818982 -2.14963230883088
 6 -5.52194110081008 -2.87137275217522  1.26514377867787
 6 -3.66422028132813 -1.83314829072907  0.12265819761976
 6  2.09119343144314  3.03997399159916  0.09743736713671
 6 -5.00939363566357 -1.65512447634763  0.47477152105211
 6  5.12425768766877  0.77832274917492 -0.31640059875988
 6 -2.57643245894589 -1.00038859425943 -0.32852932673267
 6 -1.57062672477248 -3.69926968006801 -1.68877919471947
 6 -4.29780944934493 -3.81976620842084  1.34728985458546
 6  2.05992712641264 -4.44405342904290 -1.15064429122912
 6  5.36187498989899 -0.11668979247925  0.90639318651865
 6  4.59216527782778  3.81098394769477  0.25976817711771
 6  1.28820749914992  4.11118566886689  0.23537525812581
 6 -6.76627127772777 -3.52399717951795  0.86368543064306
 6 -5.83536311691169 -0.58839462346235  0.05125229212921
 6 -0.12221014031403  4.06770502030203  0.11305311721172
 6 -1.10574567316732  5.15900343404341  0.34432289778978
 6 -2.31160063376338  4.63382488388839  0.16618252425243
 6  2.95102168416842 -4.01783445364536  0.03852154135414
 6 -5.44546825632563  0.59130441904190 -0.65192665746575
 6  6.67193707270727 -0.73089855945595  0.77097799599960
 6 -3.66278382128213  5.41382244074407  0.31893640434043
 6 -2.06522607420742  3.22265722672267 -0.13890966076608
 6 -0.70238082918292  6.61746741674167  0.87178623022302
 6 -4.37576713931393  5.46415237193719 -0.96167525902590
 1 -0.21380296519652  0.46248311411141 -0.03355309500950
 1  3.08002536353635 -1.06526466766677 -0.88576866426643
 1  2.55891577287729 -2.83088468506851 -2.31275782288229
 1  1.05396640284028 -3.66886099699970 -2.89464782488249
 1 -5.56780850815082 -2.81124974967497  2.34142468236824
 1  5.19173168566857  0.10438982038204 -1.34386473377338
 1  6.06702526992699  1.55831535963596 -0.47618119271927
 1 -2.96531274897490  0.04142193249325 -0.43523392089209
 1  0.42282951355136  1.86996684058406 -0.29951739723972
 1 -1.60099483528353 -4.52990756125613 -0.89942945274527
 1 -2.57364747574757 -3.47348793519352 -2.35477361046105
 1 -1.05664084398440 -4.28860592939294 -2.40569615891589
 1 -2.22737512381238 -3.40871060176018  0.85671833703370
 1  0.96805763506351 -4.94748744704471 -0.85148053795380
 1  2.64727083148315 -5.15846995389539 -1.65832121402140
 1  4.51286651965196 -0.76827799119912  1.26302603870387
 1  5.40075442084208  0.47262330103010  1.84576237933793
 1  4.52287281288129  4.68652906930693 -0.31051242304230
 1  5.54071716341634  3.29321685488549  0.13180897049705
 1  4.53361039363936  4.20799627172717  1.42904862176218
 1  1.76669744834483  5.06355553295330  0.54770584578458
 1 -7.66878844714471 -2.76927201070107  0.91718298789879
 1 -7.10528459235924 -4.30867724982498  1.47313315371537
 1 -6.88762445944595 -3.99416683278328 -0.14539245084508
 1 -6.81009553185319 -0.73889479797980  0.41736973807381
 1 -5.02971194329433  1.39498431933193 -0.33722098339834
 1 -6.31754013141314  0.83068214321432 -1.14057837393739
 1 -4.85773508550855  0.46541670387039 -1.56694345914591
 1 -3.44426641214121  6.22854725982598  0.78725560206021
 1 -4.19897133533353  4.89619195109511  1.08261428772877
 1 -0.18382752725272  6.61593215861586  1.76852669426943
 1 -1.59172528282828  7.33330678537854  0.80445979767977
 1 -0.01972280428043  6.86343862956296 -0.03447249014901
 1 -3.77017492449245  6.10664829052905 -1.65237944044404
 1 -5.41320402760276  5.91092420852085 -0.95976585378538
 1 -4.64048752565257  4.44769493979398 -1.41093060106011
 1  3.51749014951495 -4.45053126562656  1.75613639603960
 1  8.05357338193819 -1.67729711871187  1.78974635763576

