%nproc=4
%Mem=2GB
# td=(NStates=1) B3LYP/SVP 

TD

0 1
 8 -4.35721723252325 -4.73557792899290  2.01528555695570
 8  2.90311434013401 -4.97943925072507  1.03902804010401
 8  6.87868417271727 -1.63357062676268  1.81014369386939
 8  3.88563362086209 -3.27136516151615 -0.00369370877088
 8  7.54710424702470 -0.66166606170617 -0.21060709340934
 8 -2.98596418251825  2.23225127592759 -0.27522908430843
 7 -0.25477247194719 -0.45157935103510 -0.62525953885389
 7  1.60782927562756  1.88560899339934 -0.21595317291729
 7 -3.28882087108711 -3.20020113311331  0.66577289588959
 7 -0.81500999669967  2.97001815121512 -0.02112595839584
 6  0.64778704300430 -2.30966892529253 -1.54109640474047
 6  0.98553145544554 -1.00893812551255 -1.03400224912491
 6 -0.70182431113111 -2.60829919211921 -1.35114717741774
 6 -1.22825324732473 -1.39027933933393 -0.68816794679468
 6  3.78101656245625  1.57157032353235 -0.14224849164916
 6  2.48517062286229  0.94293611911191 -0.53579776477648
 6  2.32097734793479 -0.40406766466647 -0.95920539513951
 6  3.55164580468047  2.93828363056306  0.16999498979898
 6  1.77699910501050 -3.27999970127013 -2.05599294489449
 6 -5.57994690139014 -2.71661727662766  1.49165642994299
 6 -3.58345220452045 -1.92081705760576  0.21209714151415
 6  2.06654096619662  3.08728872307231  0.12961058445845
 6 -5.06256895319532 -1.64067303120312  0.50531457535754
 6  5.15858112001200  0.90951586848685 -0.23317227592759
 6 -2.64007882358236 -1.06111466686669 -0.43639011281128
 6 -1.40153981608161 -3.85708546164616 -1.82865318211821
 6 -4.30853052145215 -3.70033426522652  1.34040916651665
 6  2.08289942364236 -4.48857788148815 -1.15196442324232
 6  5.48648745114511 -0.04280240374037  0.87443999119912
 6  4.45829189048905  3.94043689298930  0.69275147544754
 6  1.22040071847185  4.18558310861086  0.38152987358736
 6 -6.74973962456246 -3.44117889768977  0.99748881098110
 6 -5.72342192279228 -0.59116490049005  0.11745891279128
 6 -0.11636955625563  4.04564281408141  0.24834664656466
 6 -1.17811290989099  5.18504603830383  0.41238970447045
 6 -2.40498997269727  4.66358786018602  0.17736364236424
 6  3.08258484048405 -4.17930060026003  0.03042073127313
 6 -5.44669837933793  0.57408269686969 -0.76933839863986
 6  6.77001688068807 -0.78494396399640  0.70270116831683
 6 -3.77643518641864  5.16460751925193  0.22885739643964
 6 -2.11648119971997  3.15459042004200 -0.19762553235324
 6 -0.63017360846085  6.56792246224622  0.74406345794579
 6 -4.38071763436344  5.54701065776578 -1.12400149164916
 1 -0.49147073197320  0.55865273107311 -0.21874161386139
 1  3.17450481148115 -1.05363350455045 -1.27951803920392
 1  2.51864174547455 -2.73039463606361 -2.43627017411741
 1  1.09263026922692 -3.98802291319132 -2.97016537663766
 1 -5.47739946724672 -2.37244586928693  2.46078661856186
 1  5.21527403990399  0.31084046544654 -1.23640398769877
 1  5.98258682608261  1.54436396449645 -0.12909648424843
 1 -2.94847106480648 -0.01868407810781 -0.63537393489349
 1  0.66596382698270  1.72853269716972 -0.53903134863486
 1 -1.43773850965097 -4.68250282078208 -1.06337584738474
 1 -2.36756686768677 -3.75297588398840 -1.97582571567157
 1 -0.97388256815682 -4.02889995879588 -2.72840843014301
 1 -2.43210559685969 -3.71306103680368  0.60747341254125
 1  1.03587441674167 -4.82576527482748 -0.64603999389939
 1  2.38423452785279 -5.36627073397340 -1.62216759865987
 1  4.65809104210421 -0.71362252565257  1.19888962506251
 1  5.48391273667367  0.63191923062306  1.87005480858086
 1  4.50858138373837  4.80924134053405  0.10147877607761
 1  5.37646073777378  3.64852238543854  0.73950974057406
 1  4.25584261686169  4.26694216631663  1.73213893079308
 1  1.56726750535054  5.18641781918192  0.51649272447245
 1 -7.76070763906391 -3.07037212071207  1.21775304490449
 1 -6.88993305720572 -4.48578496059606  1.52692853325333
 1 -6.91182687968797 -3.55943335943594 -0.22348025962596
 1 -6.84128865116512 -0.51631253975398  0.38190619171917
 1 -4.98018699079908  1.39118393929393 -0.57188444974497
 1 -6.39751812921292  0.79526860186019 -1.30714503060306
 1 -4.95391470347035  0.00683084528453 -1.56367313211321
 1 -3.76702868836884  6.14182858795880  0.82042891939194
 1 -4.42023346154615  4.70081241314131  0.77693371967197
 1 -0.06845599009901  6.57828839423942  1.72672251385139
 1 -1.35347145744574  7.46017947264726  1.01981133283328
 1  0.02842201020102  6.89824210991099 -0.00802984588459
 1 -3.72450035703570  6.02507013271327 -1.74659886238624
 1 -5.44658736593659  6.08251136723672 -1.28211808900890
 1 -4.65208868576858  4.58717888818882 -1.75011451945194
 1  3.68955735623562 -4.78403461596159  1.63645442784278
 1  7.67675570017002 -2.21267065606561  1.57555493849385

