%nproc=4
%Mem=2GB
# td=(NStates=1) B3LYP/SVP 

TD

0 1
 8 -4.12148365916592 -4.84930930213021  1.84810883928393
 8  2.58105213391339 -4.67856916371637  1.23379751705171
 8  7.05118142244224 -1.66457372707271  1.70830350985099
 8  3.77892294979498 -3.11739976497650  0.09452611321132
 8  7.59805934253425 -0.62471236633663 -0.21619765246525
 8 -2.93311889798980  2.24444249504951 -0.35168673007301
 7 -0.34291128582858 -0.44759895299530 -0.74154116701670
 7  1.55619411211121  1.89962039453945 -0.27306888448845
 7 -3.23153514251425 -3.08641975497550  0.65543186178618
 7 -0.68956745244524  2.87545869526953 -0.12162600840084
 6  0.67141940624062 -2.28435639403940 -1.44859715481548
 6  0.92556545884588 -1.01609884158416 -0.93219206810681
 6 -0.72286641534153 -2.58470683288329 -1.21906396909691
 6 -1.32981340334033 -1.35304561596160 -0.80469959996000
 6  3.82302076287629  1.51476464296430 -0.29904417121712
 6  2.49234133993399  0.95082690819082 -0.57535172017202
 6  2.26133138333833 -0.46325358325833 -0.80372984758476
 6  3.60222086218622  2.83027282948295  0.13098108840884
 6  1.69887129222922 -3.32886458775878 -1.95049239483948
 6 -5.46149505620562 -2.81962757765777  1.36416368066807
 6 -3.58081194049405 -1.90999597549755  0.10841677347735
 6  2.14361867396740  3.10442043624362  0.03846146954695
 6 -4.95537823412341 -1.68860782468247  0.45009905380538
 6  5.16231149304931  0.80799571647165 -0.24987394609461
 6 -2.70031484718472 -0.98984754015402 -0.43550002380238
 6 -1.34026368846885 -3.82539229232923 -1.80344066086609
 6 -4.23360302870287 -3.74418865066507  1.42289741534153
 6  1.96754788848885 -4.37327635133513 -0.99764899169917
 6  5.46854565696570 -0.06672479597960  0.91339388658866
 6  4.51087714901490  3.95728857815782  0.49566176647665
 6  1.23266194459446  4.16273082338234  0.31954367496750
 6 -6.80452510311031 -3.53490827062706  0.88553761586159
 6 -5.87310689128913 -0.67144292829283  0.09356652355236
 6 -0.12453037233723  4.06320457025703  0.26825863776378
 6 -1.13339843844384  5.06002353605361  0.55943440894089
 6 -2.37203667736774  4.51766326772677  0.38307421342134
 6  2.87734431643164 -4.04096676687669  0.03048073727373
 6 -5.57439114861486  0.63995928452845 -0.71329279407941
 6  6.83239311831183 -0.78396386598660  0.69544044224422
 6 -3.74329187208721  5.22768382688269  0.26767127782778
 6 -2.07162671427143  3.10297525852585 -0.01692746254625
 6 -0.77880847194719  6.48080375037504  0.84952400400040
 6 -4.19621918451845  5.54324028072807 -1.22234132563256
 1 -0.73927551245124  0.63888075387539 -0.51605134483448
 1  3.06945430643064 -1.18318645984599 -0.87556764416442
 1  2.57706758805881 -2.70429202580258 -2.29166571367137
 1  1.27640864706471 -3.69081319221922 -2.91053941404140
 1 -5.82723445074507 -2.42056068076808  2.43022356225623
 1  5.31395390789079  0.30122950435043 -1.28888923622362
 1  5.89641820922092  1.63816334443444 -0.63256683128313
 1 -3.16404262196220  0.11136892719272 -0.74180457795780
 1  0.55195242584258  1.92562240614061 -0.18918636413641
 1 -1.42811754755476 -4.57781235173517 -1.18854836463646
 1 -2.43564367536754 -3.73154374077408 -2.18477661076108
 1 -0.82002718261826 -4.21087815661566 -2.74986057535754
 1 -2.16263865016502 -3.29945967666767  0.59902256745675
 1  0.96233706300630 -4.85958865716572 -0.58163355325533
 1  2.42842894729473 -5.26175028192819 -1.57132251415142
 1  4.73006823982398 -0.75524668806881  1.01053078917892
 1  5.48085243064306  0.39817585628563  1.94148195129513
 1  4.71835236083608  4.64928534493449 -0.44977634943494
 1  5.51531462316232  3.24689222242224  0.74963075267527
 1  4.16380341294129  4.41892736483648  1.47679339623962
 1  1.71372215081508  5.17669684708471  0.73097417261726
 1 -7.85500706900690 -3.08985406890689  1.26919818941894
 1 -6.80795485938594 -4.53752013411341  1.34829066946695
 1 -7.02764846184619 -3.77349476557656 -0.16898481008101
 1 -6.83413793609361 -0.65017592609261  0.45523352445244
 1 -4.97440641274127  1.44232905380538 -0.19650691199120
 1 -6.62389076647665  0.85658473347335 -0.92510682678268
 1 -4.90897020902090  0.40370053225323 -1.59898666346635
 1 -3.86510849634964  6.15967037213721  0.66667354385438
 1 -4.62781421962196  4.68699103100310  0.72892891919192
 1 -0.05534467896790  6.36380694609461  1.78231807340734
 1 -1.64601071137114  7.02318577327733  1.14248360006001
 1 -0.07714854685469  6.97066935263526  0.02289324642464
 1 -3.55225313231323  6.26050367606761 -1.57308151065107
 1 -5.20289299649965  5.96937005310531 -1.33640351755176
 1 -4.15120859775978  4.54656482678268 -1.82555206320632
 1  3.42927132763276 -4.46677288978898  1.72743352575258
 1  7.98558658325833 -2.06607599659966  1.51077846084608

