%nproc=4
%Mem=2GB
# td=(NStates=1) B3LYP/SVP 

TD

0 1
 8 -4.30123163396340 -5.01093546474647  1.64523855225523
 8  3.02301633033303 -4.94381568836884  1.13213735103510
 8  6.99586589088909 -1.39501677137714  1.83312599209921
 8  3.67715277277728 -3.08963698869887  0.07310397099710
 8  7.41159069566957 -0.63404329942994 -0.28666469916992
 8 -3.04540012611261  2.41308935973597 -0.40494205560556
 7 -0.19032602730273 -0.55524971807181 -0.52377939083908
 7  1.52945143784378  1.86721715421542 -0.37877945554555
 7 -3.33357534653465 -3.22067318031803  0.59021534013401
 7 -0.74432292799280  2.90814196359636 -0.09854370017002
 6  0.72141440574057 -2.46280423882388 -1.31198349344934
 6  0.97297019931993 -1.18554578627863 -0.88157700660066
 6 -0.69109323802380 -2.60999936213621 -1.19302136483648
 6 -1.22370279227923 -1.50816112751275 -0.60202933293329
 6  3.75499396019602  1.60136330283028 -0.26398066486649
 6  2.49578168396840  0.94567639313931 -0.61874605960596
 6  2.28924417461746 -0.45634289218922 -0.94061353595360
 6  3.51489212931293  2.91787158935894  0.03325131543154
 6  1.66780818591859 -3.35339704100410 -1.95315266086609
 6 -5.60997990469047 -2.89679529442944  1.30982824712471
 6 -3.65856971627163 -1.91515649154915  0.17122305410541
 6  2.03086739883988  3.08839883408341 -0.00828320492049
 6 -4.97914061036104 -1.63849281318132  0.48753279717972
 6  5.00366562846285  0.79710462736274 -0.42899185788579
 6 -2.59497431313131 -1.02005056045605 -0.20878735253525
 6 -1.30282994509451 -3.91281103420342 -1.54903522032203
 6 -4.43788345674568 -3.88388262006201  1.24754988058806
 6  2.08438957265727 -4.51758078177818 -1.02950217701770
 6  5.26068487088709 -0.08183630713071  0.87356990419042
 6  4.56039210051005  3.95944879417942  0.33973617391739
 6  1.29462814121412  4.15540009030903  0.38103982458246
 6 -6.74045869646965 -3.51824660446045  0.62597165926593
 6 -5.77896747734774 -0.58710449444944  0.29236640354035
 6 -0.15354327362736  4.07412566236624  0.27211902380238
 6 -1.11149624822482  5.15614314801480  0.48292675817582
 6 -2.33439291299130  4.64916641804180  0.20018592459246
 6  2.93799038103810 -4.06334900510051  0.12262995219522
 6 -5.44224793429343  0.67672296089609 -0.46342780758076
 6  6.65495537453745 -0.79383485308531  0.67779867806781
 6 -3.64598214111411  5.45137619611961  0.23158766946695
 6 -2.08029758135814  3.24238919991999 -0.14263003280328
 6 -0.74206479757976  6.56020169016902  1.05714476607661
 6 -4.14767433003300  5.78829478617862 -1.18983807530753
 1 -0.26569815471547  0.38963582938294 -0.06103584328433
 1  3.20117747874788 -1.11623976517652 -0.90990107750775
 1  2.81879176047605 -2.99944154075407 -2.19062560966097
 1  1.40020102630263 -3.72193630453045 -2.91650001010101
 1 -5.91272299959996 -2.63782240694069  2.26571711161116
 1  5.15202771527153  0.27145652705271 -1.44798514581458
 1  5.85330389778978  1.48097762586259 -0.54939851445144
 1 -2.76131234893489 -0.07762997269727 -0.50365076257626
 1  0.47678490909091  1.83962380628063 -0.19764721022102
 1 -1.23079781558156 -4.70170474097410 -0.72364187398740
 1 -2.48978908990899 -3.73767435383538 -1.60141827492749
 1 -0.85475065496550 -4.19677674647465 -2.77462305160516
 1 -2.45896828312831 -3.77409714041404  0.54948761396140
 1  1.25383621292129 -5.06633933223322 -0.49680507040704
 1  2.77482358675868 -5.12915702260226 -1.68489387128713
 1  4.55697093009301 -0.84449561296130  0.89256899299930
 1  5.18142248764876  0.41388742744274  1.92838064116412
 1  4.61703222882288  4.68541895829583 -0.51003237503750
 1  5.63642673437344  3.57750528372837  0.17385317491749
 1  4.39331636423642  4.30559603170317  1.44967068396840
 1  1.95381616021602  5.04686386378638  0.59546062126213
 1 -7.63664523282328 -2.81139622312231  0.41020228982898
 1 -6.93627769166917 -4.45780216231623  1.10036587698770
 1 -6.51790748774877 -3.72789020512051 -0.50727863946395
 1 -6.86483100540054 -0.68887979647965  0.70172817391739
 1 -4.66565553765377  1.50646546744674  0.00830356905691
 1 -6.18097647504750  1.35801487648765 -0.93386770287029
 1 -4.82975228722872  0.34079424162416 -1.27926469126913
 1 -3.59606159165917  6.22079648474848  0.91357823432343
 1 -4.30491192939294  4.67811014291429  0.69647567386739
 1 -0.36549569406941  6.54878544394439  2.21738157975798
 1 -1.50852696299630  7.24292774747475  0.89266861856186
 1 -0.00482131413141  7.05537782348235  0.27028798589859
 1 -3.60702860986099  6.67692531823182 -1.50587478997900
 1 -5.18533124032403  5.96985010111011 -0.99942982018202
 1 -3.99355283218322  4.93234340464046 -1.97810731873187
 1  3.74157255775578 -4.64064027652765  1.81282206460646
 1  7.92229025362536 -1.73756314531453  1.91538892189219

