%nproc=4
%Mem=2GB
# td=(NStates=1) B3LYP/SVP 

TD

0 1
 8 -4.37809932073207 -4.79413378457846  1.87456148454845
 8  2.89013304200420 -4.74841614841484  1.09826396369637
 8  7.08538484278428 -1.55454272397240  1.83912659215922
 8  3.77378243574357 -3.10340836583658 -0.03835717511751
 8  7.47872740934093 -0.59683957905791 -0.28432446514651
 8 -2.93610919701970  2.18921697249725 -0.25400696209621
 7 -0.26095309000900 -0.43676786988699 -0.61314832773277
 7  1.52123061576158  1.78021845434543 -0.20773235083508
 7 -3.27147913691369 -3.10649176217622  0.73666998559856
 7 -0.76797529322932  2.88007915731573 -0.06929077487749
 6  0.73192545684568 -2.33141109950995 -1.39198149324932
 6  0.88660156245625 -1.00482771447145 -0.97721657055706
 6 -0.69034316301630 -2.59176753895390 -1.17782984568457
 6 -1.28523894589459 -1.40717102850285 -0.72814194419442
 6  3.88422688348835  1.51293445994599 -0.25256952375238
 6  2.46183828962896  0.82281410691069 -0.45339952495250
 6  2.23702895309531 -0.42968022592259 -0.92983245784578
 6  3.61625226532653  2.85601540374037  0.02944093439344
 6  1.57572897799780 -3.32375407670767 -1.89437678327833
 6 -5.59303821052105 -2.67195281018102  1.31221848614861
 6 -3.56823068236824 -1.77154213011301  0.33173910571057
 6  2.16838115021502  3.06081607580758  0.05421304470447
 6 -4.90802349864986 -1.56100506440644  0.40413445734573
 6  5.15529079097910  0.81515643254325 -0.24509346804680
 6 -2.59374419011901 -1.07591614701470 -0.34527100090009
 6 -1.40025968806881 -3.80273002610261 -1.65499581638164
 6 -4.33435310371037 -3.61055528732873  1.36409153475348
 6  2.12422355605561 -4.46830585428543 -1.01925115191519
 6  5.34297309970997 -0.07123524702470  0.89832237943794
 6  4.63519958125813  3.92323517281728  0.42582478277828
 6  1.35051372977298  4.16370092039204  0.20613233383338
 6 -6.78772342294229 -3.23877865766577  0.69689875197520
 6 -5.82034161476148 -0.69796558055806 -0.17682051515152
 6 -0.15100301960196  4.03627187698770  0.23562537443744
 6 -1.08513361196120  5.07222475617562  0.41546001150115
 6 -2.40112958665867  4.59371087248725  0.29532543854385
 6  3.00346692869287 -4.05145781598160 -0.02045435623562
 6 -5.52947665716572  0.53477876647665 -1.05623708850885
 6  6.79882976197620 -0.75451092069207  0.69525042324232
 6 -3.73196073897390  5.13835489398940  0.38550306100610
 6 -2.14088363996400  3.02913787478748 -0.02615838563856
 6 -0.73153374447445  6.46327199719972  0.88733778537854
 6 -4.52045160776078  5.39020497719772 -0.91700079157916
 1 -0.33352493739374  0.47823468926893 -0.12877261696170
 1  3.25316267726773 -1.04499264046405 -1.00032011941194
 1  2.38490837213721 -2.87419901650165 -2.10097664476448
 1  1.37954896109611 -3.59315342624262 -2.95142350245025
 1 -5.80956268356836 -2.50102872757276  2.32934347424743
 1  5.05009752225223  0.04922430383038 -1.05377572487249
 1  6.08334690209021  1.48728825692569 -0.55333890849085
 1 -2.99141535923592  0.07694548484849 -0.40095049254925
 1  0.53050028062806  1.98951879577958 -0.44078152365236
 1 -0.88828356415642 -4.65555012551255 -0.85759526932693
 1 -2.73084319531953 -3.94008459485949 -1.37056518961896
 1 -1.44724990489049 -4.10411748054805 -2.75364095339534
 1 -2.39522190849085 -3.40928065876588  0.96751941714171
 1  1.39232006130613 -5.10246294459446 -0.46981237113711
 1  2.76202230663066 -5.30618472537254 -1.57534291619162
 1  4.64569980298030 -0.90888205160516  1.11984172027203
 1  5.53142748814882  0.40413645234523  1.92342014511451
 1  4.59110963656366  4.85792620902090 -0.32922429422942
 1  5.64109720142014  3.49550708390839  0.40818660826083
 1  4.43992102470247  4.41952742484249  1.53299901680168
 1  1.83333411201120  5.19346852425243  0.50196127132713
 1 -7.70116168446845 -2.61142622612261  0.90438170777078
 1 -6.81962602650265 -4.26042242434243  1.20472631303130
 1 -6.57945364236424 -3.64573198929893 -0.34362227382738
 1 -6.84156867916792 -0.76282719121912  0.26355435653565
 1 -5.32555152725273  1.46871169206921 -0.51982924422442
 1 -6.44374275167517  0.73934300930093 -1.54150846694669
 1 -4.88727803980398  0.14271443364336 -1.76721348614862
 1 -3.72992497799780  6.13662806790679  1.01109798629863
 1 -4.22780421862186  4.33246557845785  1.14482050835084
 1  0.04442529802980  6.25870643604360  1.73814365596560
 1 -1.73740985128513  7.10458391309131  1.03461281298130
 1 -0.21230206220622  6.94399668536854  0.08890984808481
 1 -3.89552745974597  6.26761438713871 -1.29075327782778
 1 -5.59887259445945  5.58442155825583 -0.89083896109611
 1 -4.35716919381938  4.42286245654565 -1.33737324532453
 1  3.53206160666067 -4.24236044854485  1.50082086448645
 1  8.08358638323832 -1.80105949494950  1.37954533753375

