%nproc=4
%Mem=2GB
# td=(NStates=1) B3LYP/SVP 

TD

0 1
 8 -4.22329384018402 -4.85345971717172  1.78592262066207
 8  2.82982701140114 -4.94487579437944  1.14134827212721
 8  7.10040634493449 -1.59680695039504  1.73485616511651
 8  3.61401645914591 -3.12785081008101  0.11889855045505
 8  7.70229976657666 -0.37904779987999 -0.01301733443344
 8 -2.97684327042704  2.31851990279028 -0.29760132153215
 7 -0.27693468816882 -0.48407260036004 -0.54892190509051
 7  1.44885337803780  1.80000043254325 -0.34008558615862
 7 -3.28915090409041 -3.15166627962796  0.58069438803880
 7 -0.73338183388339  2.95205635503550 -0.09470331613161
 6  0.62043430773077 -2.45360331873187 -1.44492678777878
 6  0.96780968326833 -1.09316654835484 -1.00074892379238
 6 -0.78202233093309 -2.67292565476548 -1.30311237393739
 6 -1.25264568656866 -1.37641795319532 -0.74375350535054
 6  3.83228168896890  1.48702186868687 -0.34503877067707
 6  2.47969007480748  0.84516634213421 -0.50654483948395
 6  2.28670392059206 -0.43778103600360 -0.83404287888789
 6  3.53120376047605  2.79935973817382  0.07379536983698
 6  1.59741114621462 -3.37830953225323 -2.01979932553255
 6 -5.52484139083908 -2.86177179207921  1.32593985828583
 6 -3.61828568786879 -1.81406638253825  0.24643057485749
 6  2.15406971907191  2.99294928912891 -0.01970434703470
 6 -4.96316901320132 -1.62498146204620  0.46251029492949
 6  5.17114237613761  0.70294521142114 -0.35618457715772
 6 -2.57303211891189 -1.00134869026903 -0.39183565736574
 6 -1.51171083318332 -3.79313906700670 -1.77037735453545
 6 -4.27076674507451 -3.85748998079808  1.19994512011201
 6  2.04721585528553 -4.48281730543054 -1.04316354315432
 6  5.54998380078008  0.02317419391939  1.00077262446245
 6  4.43755981728173  3.96681953125312  0.22179437973797
 6  1.27097577597760  4.15154970527053  0.20759247984798
 6 -6.85893054365437 -3.49417419721972  0.86474553665367
 6 -5.85148472907291 -0.59397518151815  0.07704487138714
 6 -0.15929384868487  4.02528077787779  0.20728254015402
 6 -1.14308940754075  5.19097663136314  0.48869733523352
 6 -2.31916138983898  4.58885038643864  0.26611251725173
 6  2.91900848284828 -4.05631830203020  0.15391308050805
 6 -5.63476718621862  0.62958824742474 -0.77393885868587
 6  6.91482136113611 -0.60537600720072  0.88999989818982
 6 -3.64547209010901  5.18585964446445  0.37301181188119
 6 -2.09875942754275  3.13730869186919 -0.04918068786879
 6 -0.60165075617562  6.54413008300830  0.98915796739674
 6 -4.33698326092609  5.69160511721172 -1.02013110461046
 1 -0.70239182408241  0.33082994879488 -0.32249198889889
 1  3.09829719071907 -1.09552769396940 -1.26766685408541
 1  2.61539142044204 -2.90571216781678 -2.28342488958896
 1  1.21312231843184 -3.98773288418842 -2.97235559565957
 1 -5.50353208050805 -2.40373899859986  2.42822336223622
 1  5.23012552505250 -0.01815243384338 -1.15049539683968
 1  5.90694926232623  1.63487301540154 -0.42014558915892
 1 -2.84459067676768  0.16085387568757 -0.27218761626163
 1  0.48131536213621  1.95346519041904 -0.56398384388439
 1 -1.49219395519552 -4.68548311881188 -1.06366587638764
 1 -2.57737784878488 -3.61569215561556 -1.93973210631063
 1 -1.26949212911291 -4.20750781958196 -2.76389197849785
 1 -2.20670305660566 -3.35312504320432  0.77845051025103
 1  1.14756558585859 -4.81779447774777 -0.59316470637064
 1  2.67364346874687 -5.50687479437944 -1.47536291819182
 1  4.74966019901990 -0.73950511391139  1.33703343944394
 1  5.64829917531753  0.94654069276928  1.79290709380938
 1  4.04116464206421  4.77754817121712 -0.73795516731673
 1  5.50244333603360  3.69313684688469  0.38354414401440
 1  4.34148118071807  4.65070054215422  1.20834655155516
 1  1.86612739133913  5.21658083548355  0.39608068326833
 1 -7.80423199149915 -2.97442252575258  1.40208147774777
 1 -6.77613167706771 -4.53115949804980  1.04853069346935
 1 -7.12245794279428 -3.36356377247725 -0.28054596619662
 1 -6.83505802810281 -0.86248715721572  0.53444144524452
 1 -5.34539351145115  1.53435825672567 -0.26232349364936
 1 -6.66902527992799  0.88305738073807 -0.98745306140614
 1 -4.95789510151015  0.55417557975798 -1.48876564136414
 1 -3.67953993949395  6.01640604570457  1.09583646014601
 1 -4.31847328552855  4.26508884078408  0.65653167946795
 1  0.07684854035404  6.48572913831383  1.74248409000900
 1 -1.49675578587859  7.15166862156216  1.23768312001200
 1 -0.15837666966697  7.01367365306531 -0.06287533043304
 1 -3.44318222522252  6.44840246594659 -1.25879008150815
 1 -5.31834454165416  6.16068918501850 -1.06989686688669
 1 -4.49364284118412  4.68935910621062 -1.59532904090409
 1  3.50313871437144 -4.75611182368237  1.93422420482048
 1  8.12191021562156 -1.71302069106911  1.65471285428543

