%nproc=4
%Mem=2GB
# td=(NStates=1) B3LYP/SVP 

TD

0 1
 8 -4.18729023982398 -4.76169054025403  1.91873590199020
 8  3.03054708340834 -4.55627693449345  1.25081921922192
 8  6.98607491179118 -1.48958622832283  1.97296997649765
 8  3.91026608410841 -3.03775180018002 -0.14713805320532
 8  7.36203574017402 -0.74659455455546 -0.19414544724472
 8 -3.02589817591759  2.30999905070507 -0.45771733313331
 7 -0.23258025272527 -0.52062625572557 -0.67797481038104
 7  1.53196168886889  1.74373480598060 -0.38563014061406
 7 -3.26999898889889 -3.11640275327533  0.67830414901490
 7 -0.79146764246425  2.84989613901390 -0.22869671547155
 6  0.64741700600060 -2.42629058745875 -1.51462375747575
 6  0.94095699799980 -1.07736496819682 -1.20176902580258
 6 -0.72460658935894 -2.62120048224822 -1.30055211791179
 6 -1.29324974697470 -1.42219253065307 -0.88933806380638
 6  3.75595405620562  1.49194236073607 -0.18617288408841
 6  2.46721882768277  0.78660048554855 -0.64387857285729
 6  2.25308055825583 -0.50609786768677 -1.08574804940494
 6  3.42848348844885  2.65629543174317  0.29884787508751
 6  1.69323072817282 -3.39990169146915 -1.99396674227423
 6 -5.43978288498850 -2.69291490639064  1.38677594189419
 6 -3.53546740604060 -1.72026700260026  0.14499043084308
 6  2.02047635973597  2.89506950115012  0.09957758115812
 6 -4.91538423472347 -1.51601056495650  0.53223726762676
 6  5.11583684558456  0.80551546844684 -0.32221117981798
 6 -2.64721953765377 -0.98473702910291 -0.51734820862086
 6 -1.38842850495050 -3.78933868696870 -1.81701201800180
 6 -4.25225489388939 -3.62999723152315  1.44894001960196
 6  2.16000713441344 -4.38137716141614 -0.97794702150215
 6  5.28921772417242 -0.20149827332733  0.81758430563056
 6  4.32599866116612  3.84493734303430  0.78838103840384
 6  1.26020469886989  4.10236478677868  0.28321004160416
 6 -6.76480113071307 -3.33166794659466  1.15304436653665
 6 -5.71469104970497 -0.48592437643764  0.04690185708571
 6 -0.16687460676068  3.98626687648765  0.28195000690069
 6 -1.08628372697270  5.09301683538354  0.50191865736574
 6 -2.32254172787279  4.62722422382238  0.29606551255126
 6  3.17051363336334 -3.85263793399340  0.09903759295930
 6 -5.52555626512651  0.67767305590559 -0.98546001080108
 6  6.61167104610461 -0.82228769836984  0.72480337853785
 6 -3.66528407130713  5.17649870837084  0.31649616031603
 6 -2.17908746034603  3.17962292329233 -0.13856962676268
 6 -0.71050164126413  6.37060273027303  0.99393844544454
 6 -4.37169673227323  5.44926088278828 -0.98999809130913
 1 -0.33598518341834  0.48880574637464 -0.25190493019302
 1  3.14373173417342 -0.91865000620062 -1.68295838323832
 1  2.58922880418042 -2.98012960956096 -2.49717626472647
 1  1.30044105030503 -3.85480959185919 -2.93134149424942
 1 -5.37391911921192 -2.24462308700870  2.63437397729773
 1  5.32989550205020  0.52547192859286 -1.47026737403740
 1  6.19911847924793  1.48249777787779  0.00536696209621
 1 -2.94707092479248  0.05124291459146 -0.78339873737374
 1  0.45627285788579  1.85797564146415 -0.48936638213821
 1 -0.92562729852985 -4.87603217371737 -1.11183069286929
 1 -2.53876398739874 -3.73460404680468 -1.72431056415642
 1 -1.14848002790279 -4.28540560936094 -2.87268285758576
 1 -2.24738712501250 -3.63597332803280  0.52841550675068
 1  1.33191402070207 -5.04706740504050 -0.24437982788279
 1  2.72274837923792 -5.12380648754876 -1.56271165306531
 1  4.45038027102710 -1.01712287568757  1.05554529062906
 1  5.09550389578958  0.17119315801580  1.90804860796080
 1  3.91013153875388  4.86731714811481  0.46679530773077
 1  5.39230232193219  3.53643117631763  0.11539732933293
 1  4.65163219581958  3.73388886098610  2.04107982488249
 1  1.81956273487349  5.07659683708371  0.62421349654966
 1 -7.60390195849585 -2.68136321982198  1.14151542114211
 1 -6.77715177907791 -4.15102148424842  1.84778061846185
 1 -6.73519921692169 -3.70809822592259  0.08863095149515
 1 -6.77939246154615 -0.44047495599560  0.45028302940294
 1 -5.12879185128513  1.45439025992599 -0.53300056135614
 1 -6.54466284368437  0.83114218921892 -1.25364968106811
 1 -4.97897720972097  0.38789895209521 -1.67126389118912
 1 -3.78411039653965  6.17831223632363  0.83562043854385
 1 -4.39129056725673  4.66153848574858  0.95142116841684
 1  0.11124197969797  6.41929249464946  1.84461430303030
 1 -1.36749285958596  7.21760521522152  1.29500885258526
 1 -0.04035486748675  6.91674396009601  0.19389034613461
 1 -3.89552745974597  6.27274490019002 -1.49892409490949
 1 -5.35511821902190  5.66090920702070 -0.72799267646765
 1 -4.26019949684969  4.42252242254225 -1.66231573957396
 1  3.70299870037004 -4.40704691719172  1.87912869526953
 1  7.76823484808481 -1.73527291629163  1.53158054105411

