%nproc=4
%Mem=2GB
# td=(NStates=1) B3LYP/SVP 

TD

0 1
 8 -4.18844035483548 -4.86878124932493  1.80556458485849
 8  2.82443647234724 -4.78172947974797  1.24195833313331
 8  6.90764706900690 -1.47197446714671  1.79656233573357
 8  3.75608066556656 -3.18816684168417 -0.09305264466447
 8  7.77723726032603 -0.48418831393139 -0.03795982868287
 8 -3.00472605870587  2.31232928372837 -0.49285084648465
 7 -0.21899889458946 -0.50620481358136 -0.55870288318832
 7  1.52009050175017  1.90836126862686 -0.44008558615862
 7 -3.30238222722272 -3.10872198519852  0.54551086968697
 7 -0.80552904860486  2.92168331773177 -0.18883272907291
 6  0.69141140544054 -2.40682864126413 -1.35837813291329
 6  0.93913681598160 -1.11124835653565 -0.95404425332533
 6 -0.68240236893689 -2.56338470067007 -1.27457952065207
 6 -1.25202562456246 -1.36257656905691 -0.71401053105311
 6  3.74064252505251  1.50608377487749 -0.29297356415642
 6  2.49890199599960  0.88461028652865 -0.60212439743974
 6  2.19135438563856 -0.46379363726373 -0.86789626422642
 6  3.47626826692669  2.77315711791179  0.09313730403040
 6  1.57199860496050 -3.39051075237524 -1.97299464506451
 6 -5.32990189688969 -2.75265087998800  1.36089335363536
 6 -3.60144400370037 -1.81559653555356  0.18638457025703
 6  2.04901921402140  3.05204519871987 -0.01547392399240
 6 -4.95503820012001 -1.58984794869487  0.49519356325633
 6  5.04704996689669  0.77087200410041 -0.35336429512951
 6 -2.62355717141714 -1.05991454685469 -0.33687016081608
 6 -1.40259992209221 -3.81037079017902 -1.81238155495550
 6 -4.25109477787779 -3.77720195199520  1.32488761436144
 6  2.06489762346235 -4.53923294699470 -1.00971019781978
 6  5.44671347374737 -0.10514863836384  0.80325287248725
 6  4.48801486278628  3.76555940524052  0.50689288958896
 6  1.27391607000700  4.14032858315832  0.42790451105110
 6 -6.67042169276928 -3.39323410321032  1.03025208730873
 6 -5.80680026062606 -0.58926471047105  0.06968413531353
 6 -0.14663258255826  4.06432468226823  0.28725053695370
 6 -1.13156825542554  5.12496002970297  0.47947641314131
 6 -2.36844631833183  4.62481398279828  0.21341724772477
 6  2.98992557455746 -4.11352402260226  0.05158284748475
 6 -5.53891760126013  0.59769505810581 -0.74220568536854
 6  6.75452533153315 -0.74784025362536  0.73374427262726
 6 -3.71356889978998  5.22941399989999  0.28838334903490
 6 -2.19624917651765  3.17024198519852 -0.22519828962896
 6 -0.79876046714671  6.49247491749175  1.01596064766477
 6 -4.18324788738874  5.68433439013901 -1.05006409790979
 1 -0.32117370227023  0.40390725652565 -0.08594833453345
 1  3.15417277827783 -1.18447658885889 -0.79425951335134
 1  2.38636851815181 -3.16160775737574 -2.72353890099010
 1  1.07071807800780 -3.95998010891089 -2.85020338043804
 1 -5.45493722102210 -2.37505613031303  2.36686722662266
 1  5.01954446694669  0.34540392179218 -1.37138748604861
 1  5.94737330473047  1.54030355845585 -0.42310588518852
 1 -2.74004022172217  0.08556634693469 -0.50868126562656
 1  0.54522175277528  1.86139598349835 -0.49009645514551
 1 -1.33676841264126 -4.57753232373237 -1.00383989378938
 1 -2.65680579157916 -3.63367395379538 -1.77887602070207
 1 -1.06915209510951 -4.09832690149015 -2.73868945824582
 1 -2.32726511281128 -3.25240497119712  0.45896856205621
 1  1.18194902420242 -4.93377607590759 -0.72990838073807
 1  2.53587969236924 -5.34445855275528 -1.69406478837884
 1  4.49720495349535 -0.88110927432743  1.06516625272527
 1  5.40007435283528  0.39621566026603  1.84608241134113
 1  4.51583210881088  4.63989440584058 -0.31558293009301
 1  5.49362245394540  3.23747128032803  0.68359414901490
 1  4.15826285888589  4.34555002710271  1.55363108000800
 1  1.89966074467447  4.90859003640364  1.29373044824482
 1 -7.65055662396240 -2.75753083658366  1.48812008160816
 1 -7.03889795369537 -4.41676805890589  1.27820366076608
 1 -6.89561525852585 -3.61672908900890 -0.18255616721672
 1 -6.84464898719872 -0.83010391889189  0.53847184828483
 1 -4.91557052915292  1.41175599649965 -0.11155841714171
 1 -6.47763614101410  0.99097817281728 -1.06111042714271
 1 -4.99614892689269  0.30888105030503 -1.56438320312031
 1 -3.66254824032403  5.93010741584158  1.22922979947995
 1 -4.54428586678668  4.40528286018602  0.60429645594559
 1 -0.30991013551355  6.53425399079908  1.93096293789379
 1 -1.59514562486249  7.02054550925093  1.14445379707971
 1 -0.15345617761776  6.99512179787979  0.36864782188219
 1 -3.46789469646965  6.53627125282528 -1.40098430093009
 1 -5.21071377857786  6.06521963806381 -0.85341521872187
 1 -4.34331780868087  4.94554472477248 -1.75487499549955
 1  3.62064046454645 -4.48735494799480  1.82119290169017
 1  7.80825885048505 -1.88766815581558  1.93585096809681

