%nproc=4
%Mem=2GB
# td=(NStates=1) B3LYP/SVP 

TD

0 1
 8 -4.37538904970497 -4.91622599379938  1.77689171757176
 8  2.96987101580158 -4.94067537433743  1.13299743704370
 8  7.07027333163316 -1.33220048974897  1.90967364686469
 8  3.77474253175318 -3.16229425442544  0.09509617021702
 8  7.71841137773777 -0.43652354745475  0.01292525982598
 8 -3.09595518161816  2.40143819461946 -0.31086264766477
 7 -0.26448344304430 -0.51840603370337 -0.66064307720772
 7  1.54326281898190  1.88127856035604 -0.42900447804780
 7 -3.32490447944794 -3.10933204620462  0.62158847744774
 7 -0.82757125282528  2.83736488588859 -0.04166801260126
 6  0.66367863216322 -2.40749870827083 -1.37144944004400
 6  0.88136103840384 -1.10600783248325 -0.93183203210321
 6 -0.75389951865187 -2.58466682888289 -1.29319138183818
 6 -1.34623504550455 -1.43748405980598 -0.74898402840284
 6  3.73113157395740  1.46942010851085 -0.34752901970197
 6  2.45104721052105  0.94171599709971 -0.64281846684668
 6  2.18963421362136 -0.43624088198820 -0.93788326292629
 6  3.52583322342234  2.82039184138414  0.04734272457246
 6  1.64667607270727 -3.39164086538654 -1.93052039763976
 6 -5.55400430713071 -2.81160677557756  1.22534979927993
 6 -3.59216307560756 -1.77962293819382  0.21308724052405
 6  2.04342865496550  3.04621461566157 -0.05875825242524
 6 -5.03551624792479 -1.61874083798380  0.53283732763276
 6  5.10604586648665  0.73400831773177 -0.43501245994599
 6 -2.75538035373537 -1.00824938033803 -0.46423289708971
 6 -1.48107776987699 -3.76415616871687 -1.70698101490149
 6 -4.33821348974898 -3.82963719551955  1.25403052865287
 6  2.05251638533853 -4.54276330003000 -1.05178440524052
 6  5.46498530093009  0.00629250575058  0.84196674387439
 6  4.45956201750175  3.88903175247525  0.40936313661366
 6  1.27590626902690  4.02096664696470  0.20187190779078
 6 -6.77325197579758 -3.47060183998400  0.77244630673067
 6 -5.82991257185719 -0.58414419841984  0.08061522842284
 6 -0.08794671397140  3.99859810961096  0.23637544944494
 6 -0.97307240584058  5.04758229192919  0.43781224672467
 6 -2.27897737143714  4.60774227562756  0.44543044904490
 6  2.99724630663066 -4.08916158635864  0.05436312551255
 6 -5.30008371787179  0.65284057265727 -0.64557602240224
 6  6.82790266926693 -0.53458892849285  0.87318821702170
 6 -3.63822136503650  5.25005606410641  0.47569207990799
 6 -2.15074462606261  3.20849581058106 -0.01980775057506
 6 -0.56300689178918  6.41785745574558  0.71036008760876
 6 -4.28416797939794  5.62227818451845 -0.91618070957096
 1 -0.32178376327633  0.31334820062006 -0.20448018771877
 1  2.94260162116212 -1.05410355155516 -1.08805889328933
 1  2.65763564486449 -2.93894549114912 -2.22980952805280
 1  1.23612461866187 -3.88093220412041 -2.83585194529453
 1 -5.72811453875387 -2.55544416911691  2.30252079197920
 1  5.29906241874187 -0.01617223582358 -1.30969131643164
 1  5.94245281268127  1.49961949004900 -0.45470904550455
 1 -2.75666188388839  0.19404719501950 -0.38424882238224
 1  0.41509874047405  1.99925976987699 -0.45409285478548
 1 -1.71573630943094 -4.66606117661766 -0.98666817661766
 1 -2.67714782578258 -3.64774536093609 -1.76495462856286
 1 -1.31451663156316 -4.12509957875788 -2.67210279957996
 1 -2.50661304760476 -3.82672240294029  0.40129279447945
 1  1.18861969126913 -5.15254795309531 -0.57936332623262
 1  2.54855095949595 -5.28938304520452 -1.53715909780978
 1  4.80717595059506 -0.92293345674567  1.25567530363036
 1  5.50120446584658  0.65040107880788  1.72522032513251
 1  4.35093561916192  4.83504392079208 -0.51132250405040
 1  5.51128422012201  3.40229776297630  0.42058784838484
 1  4.08349538213821  4.26442191429143  1.55620133703370
 1  1.80791156975698  4.93883306070607  0.41282235743574
 1 -7.60344191249125 -2.68899398289829  1.10042131173117
 1 -7.01310537443744 -4.35283166526653  1.41972781318132
 1 -6.76229192619262 -3.79959737583758 -0.22464037563756
 1 -6.81749627192719 -0.57320822932293  0.45485348644865
 1 -4.78708768086809  1.43541836273627 -0.28902616391639
 1 -6.24326270367037  1.06659573457346 -1.19583389948995
 1 -4.84823413541354  0.34451461366137 -1.46843360816082
 1 -3.61060304580458  6.24054845994600  0.93411028752875
 1 -4.24352579077908  4.68195052695270  1.18563458975898
 1  0.17391824732473  6.29922048744875  1.63420326192619
 1 -1.46068217851785  7.18219167386739  0.84407375907591
 1 -0.21104193619362  6.72347463316332 -0.12534157705770
 1 -3.71498940594059  6.37239486518652 -1.42925712821282
 1 -5.34386709390939  5.89301241734174 -0.69717959515952
 1 -4.27012048894890  4.61274144444445 -1.79869937793779
 1  3.57823622412241 -4.46765297779778  1.71163194559456
 1  8.00096812141214 -1.61467085608561  1.72767015001500

