%nproc=4
%Mem=2GB
# td=(NStates=1) B3LYP/SVP 

TD

0 1
 8 -4.24437594839484 -4.85307967916792  1.75755978437844
 8  3.15918994769477 -4.74450575737574  1.07663180048005
 8  7.02498880318032 -1.73567083678368  1.77341002050205
 8  3.82689774727473 -3.01368939393939 -0.17259059845985
 8  7.64436397299730 -0.46726662176218  0.02909687698770
 8 -3.08989457555756  2.37418546934693 -0.36216777817782
 7 -0.29153614831483 -0.47750194329433 -0.60560757365737
 7  1.51710020272027  1.84527495999600 -0.25861743934393
 7 -3.29365135413541 -3.04369548254825  0.85601191979198
 7 -0.86860535623562  2.89876102550255 -0.07469131493149
 6  0.73162542684268 -2.36943490189019 -1.43847614271427
 6  0.91310421272127 -0.97758499019902 -1.02177102600260
 6 -0.67856198489849 -2.62992135433543 -1.20624268696870
 6 -1.31656207820782 -1.48136844824482 -0.72326145614561
 6  3.84251271207121  1.47537070357036 -0.22529679647965
 6  2.49637174297430  0.86906873237324 -0.53956814181418
 6  2.21993724392439 -0.44786204410441 -0.84961443604360
 6  3.61445208530853  2.78278808100810  0.20686867716772
 6  1.62029343444344 -3.40020172147215 -2.05411275687569
 6 -5.56331523822382 -2.81760737563756  1.38976624092409
 6 -3.62173603290329 -1.83721869776978  0.28821475327533
 6  2.06602091419142  3.06588658285829  0.14561218461846
 6 -5.07284998129813 -1.59091805570557  0.50815485938594
 6  5.18623388528853  0.77916283318332 -0.36294525322532
 6 -2.67164197989799 -1.05658421382138 -0.31360783458346
 6 -1.47060672277228 -3.88447820092009 -1.67836815361536
 6 -4.35379504790479 -3.80011424322432  1.35358048364836
 6  2.09425055875588 -4.50709973367337 -1.07134636143614
 6  5.31163996639664 -0.26813493699370  0.79391193839384
 6  4.56745280658066  3.93648649794980  0.51086328662866
 6  1.24581325972597  4.15723027332733  0.38142986358636
 6 -6.80250490109011 -3.54905968576858  0.87876693879388
 6 -5.94862444304430 -0.63797958195820  0.07248441534153
 6 -0.25486340564056  4.09472772257226  0.23713552545255
 6 -1.12505760436044  5.22171970567057  0.49358782428243
 6 -2.38545801950195  4.72749425082508  0.30698660466047
 6  3.14145072707271 -4.08108077827783 -0.05750806160616
 6 -5.59743345284528  0.58834412301230 -0.78059952475248
 6  6.76133601260126 -0.85942141174117  0.79852075027503
 6 -3.73028057095710  5.31729278777878  0.25716022672267
 6 -2.16955650725073  3.15930089108911 -0.08884465426543
 6 -0.66420701180118  6.66869253925393  0.80462951455146
 6 -4.18557812041204  5.63731968866887 -1.31095018651865
 1 -0.54943652855286  0.56725359115912 -0.35972571227123
 1  3.15456281728173 -1.07764590579058 -1.09665975337534
 1  2.51405128642864 -2.75030662726273 -2.49850639773977
 1  1.10232123832383 -4.05502961386139 -2.86064442454245
 1 -5.55310703800380 -2.52118074277428  2.36512705260526
 1  5.28974148664867  0.26427580898090 -1.32368271557156
 1  6.03962252965297  1.40872040014001 -0.35408898349835
 1 -2.95524174187419  0.06910470077008 -0.73720411791179
 1  0.53006023662366  1.94389423332333 -0.53807125262526
 1 -1.28774351015102 -4.92168673917392 -1.08285779557956
 1 -2.52645275627563 -3.56997758415842 -1.68363649674968
 1 -1.19531471137114 -4.20660772957296 -2.69385497479748
 1 -2.40586297259726 -3.62071180188019  0.64536720192019
 1  1.23979480878088 -5.05711841014101 -0.53658904880488
 1  2.50461656605661 -5.28865297219722 -1.71610699259926
 1  4.62857809080908 -1.11345250865086  0.60785052115212
 1  5.10446479187919  0.27992403110311  1.73368117121712
 1  4.53214373997400  4.57090750715072 -0.27948932073207
 1  5.62490558225823  3.50974850805080  0.50069585918592
 1  4.38780581318132  4.44847031913192  1.70182589948995
 1  1.88076885548555  5.04718389578958  0.62075315051505
 1 -7.66789835813581 -2.99954503800380  1.24746601620162
 1 -6.62838690259026 -4.72430881298130  1.44468030843084
 1 -6.73705940294029 -3.78563597969797 -0.19034694629463
 1 -6.91509603190319 -0.79111001950195  0.57035503660366
 1 -4.98288726082608  1.27748256915692 -0.06584384568457
 1 -6.33779215661566  1.15518459345935 -1.28863317941794
 1 -4.81275058705871  0.31680184238424 -1.52678944374437
 1 -3.71327331283128  6.20471487658766  0.77805468196820
 1 -4.31321275947595  4.50329266116612  0.58294432073207
 1 -0.25523466796680  6.52886345174517  1.83981382298230
 1 -1.50533664396440  7.41669512421242  0.77188654035404
 1  0.06077524552455  6.82535482118212  0.04960591769177
 1 -3.42537044404440  6.54349197489749 -1.58554275677568
 1 -5.17729043624362  6.00667378347835 -1.29812969016902
 1 -4.12143562046205  4.78665883618362 -2.08849835783578
 1  3.86296469696970 -4.17223343584358  1.58114889728973
 1  8.05871389598960 -2.11219060806081  1.54867225022502

