%nproc=4
%Mem=2GB
# td=(NStates=1) B3LYP/SVP 

TD

0 1
 8 -4.02409392019202 -4.81460583178318  2.06028005640564
 8  2.95883991269127 -4.94467577437744  1.00332446974697
 8  6.77447375167517 -1.53544081378138  2.04897757725773
 8  3.73018807630763 -3.23635166016602 -0.05810915031503
 8  7.60477001360136 -0.65570546564656  0.18215218251825
 8 -3.04017960406041  2.34850290109011 -0.51246280768077
 7 -0.28407540224022 -0.45705989908991 -0.69870688358836
 7  1.57851634433443  1.86667710021002 -0.46438801640164
 7 -3.18952094109411 -3.08918003100310  0.60268658725873
 7 -0.78489698539854  2.83058420782078 -0.09278312411241
 6  0.59324158845885 -2.40060801920192 -1.45133742884288
 6  0.93663656595660 -0.99928716041604 -1.11641048994899
 6 -0.74772890159016 -2.51245960816082 -1.34470653335334
 6 -1.26490691269127 -1.33476378777878 -0.77660679067907
 6  3.77986644744474  1.52044521102110 -0.26838110491049
 6  2.52011411721172  0.89015084058406 -0.69221340634063
 6  2.26751200140014 -0.39678693659366 -0.99487896249625
 6  3.49838047814782  2.80588039023902  0.03698168846885
 6  1.68734013911391 -3.27006870817082 -2.07440478607861
 6 -5.35921482818282 -2.73938955385539  1.37567483178318
 6 -3.59253311261126 -1.87293226912691  0.18950488228823
 6  2.05843015511551  3.05008500270027 -0.01488386498650
 6 -4.92905560186019 -1.55446441034103  0.60729477337734
 6  5.12587784968497  0.78721363826383 -0.21106006470647
 6 -2.59480429612961 -0.99776833223322 -0.35421189498950
 6 -1.48481814391439 -3.67054680778078 -1.79549986678668
 6 -4.07851752015202 -3.69303353515352  1.53689881548155
 6  2.12910404410441 -4.49999902360236 -1.28742796959696
 6  5.31751055345535 -0.14550267376738  0.95969851705170
 6  4.49691575287529  3.87611046034603  0.48856105640564
 6  1.23654233263326  4.09155370567057  0.34921664226423
 6 -6.71832648324832 -3.34047882768277  1.04928399049905
 6 -5.74865444604460 -0.53090887488749  0.21227839473947
 6 -0.18211613091309  3.95249349914991  0.27775958785879
 6 -1.17692279087909  5.07992552625262  0.53211167666767
 6 -2.36330580428043  4.52705420682068  0.16005191119112
 6  3.03803038503850 -4.19493216341634 -0.13729604040404
 6 -5.53954766426643  0.56020130873087 -0.84439590439044
 6  6.58603848284829 -0.77088255785579  0.91658255645565
 6 -3.73622116501650  5.14770582908291  0.27750226092609
 6 -2.07782733433343  3.10906586758676 -0.18747451725173
 6 -0.76242683378338  6.50002567256726  0.89577862946295
 6 -4.38871843444344  5.65183113981398 -1.04139323082308
 1 -0.54003558845885  0.51404827062706 -0.20525026472647
 1  3.05732309330933 -1.18250639183918 -1.21878196559656
 1  2.53400328162816 -2.59312090869087 -2.51390793789379
 1  1.33974498069807 -3.81432554345435 -3.04124248434843
 1 -5.49283101040104 -2.47438606330633  2.43112365226523
 1  5.26228874137414  0.22045142654265 -1.24383473077308
 1  5.95202376977698  1.58894842294229 -0.49742331693169
 1 -2.73410962866287  0.16554434473447 -0.50489088658866
 1  0.44941217181718  1.75582542644264 -0.50451789728973
 1 -1.17357209300930 -4.65642021252125 -1.23876338613861
 1 -2.46416652765277 -3.31568215461546 -1.59770790389039
 1 -1.26969214911491 -3.70859792859286 -2.89912550185019
 1 -2.13041542784278 -3.11100083078308  0.53446611181118
 1  1.11648247754776 -4.96526922522252 -0.85992138203820
 1  2.78942504690469 -5.06150025692569 -1.90264564646465
 1  4.49321455445545 -1.00960212361236  0.98153788988899
 1  5.19774411981198  0.52064810351035  1.79663746684668
 1  4.75442596819682  4.85032544894490 -0.16270764256426
 1  5.60393348504850  3.43515104830483  0.72183797339734
 1  4.25786281888189  4.40259573167317  1.51671738863886
 1  1.79399017761776  4.98290746814681  0.69545062026203
 1 -7.60398196649665 -2.58578366186619  1.09388065766577
 1 -7.18625268916892 -4.23778016011601  1.85083092349235
 1 -6.46397209420942 -4.00882829892989  0.07354944334433
 1 -6.65232975527553 -0.41075198369837  0.68811681278128
 1 -4.83912288438844  1.37766258715872 -0.33663092439244
 1 -6.55409378677868  1.00587966296630 -0.81554587068707
 1 -4.85688500050005  0.42766292849285 -1.81681844664466
 1 -3.51169315481548  6.08827323242324  1.05850272677268
 1 -4.36466790499050  4.49247157905791  0.54782080838084
 1  0.33265412091209  6.33647421282128  1.61712155375538
 1 -1.64225033533353  7.07154060876088  1.03741309300930
 1 -0.31888272027203  7.00003228892889 -0.04180322322232
 1 -3.97622552955296  6.35724335003500 -1.73685788828883
 1 -5.52100480768077  6.13626674277428 -0.74179405660566
 1 -4.94695817271727  4.67145731603160 -1.55262477047705
 1  3.68458685918592 -4.53490970347035  1.72744352675268
 1  7.59249727432743 -1.92772216121612  2.05141252425243

