%nproc=4
%Mem=2GB
# td=(NStates=1) B3LYP/SVP 

TD

0 1
 8 -4.23612512331233 -4.89997436863686  1.80070409880988
 8  2.97976200490049 -4.71373268006801  1.26257039433943
 8  6.84389069336934 -1.61888915861586  1.83777645714571
 8  3.89760481798180 -3.17495552055205 -0.00532387178718
 8  7.56290582718272 -0.75333522862286 -0.12895892859286
 8 -2.99659524562456  2.39833788458846 -0.44512607400740
 7 -0.25187218191819 -0.43690788388839 -0.67562457535754
 7  1.51986047874787  1.81068150065007 -0.43068464606461
 7 -3.31504349334933 -3.16601771477148  0.64586090469047
 7 -0.77588608430843  2.85790694009401  0.03591974617462
 6  0.70839310361036 -2.36354431283128 -1.38131042614261
 6  0.97092999529953 -0.99144637633763 -1.04818366726673
 6 -0.69293342204220 -2.65124348654865 -1.31902396509651
 6 -1.18615903790379 -1.35171548294829 -0.74604373437344
 6  3.84446290709071  1.61354452095209 -0.30714498129813
 6  2.52310441624162  0.86776860236024 -0.63313749874988
 6  2.28907415761576 -0.37930518841884 -0.87046652125213
 6  3.46776741684168  2.83977377957796  0.07026501680168
 6  1.74614601970197 -3.29942164346435 -1.90890823642364
 6 -5.56504541124112 -2.74969058395840  1.35554281858186
 6 -3.47994185348535 -1.95827080298030  0.19808574037404
 6  1.99222353445345  3.03927392159216  0.01810943434343
 6 -4.98546124242424 -1.62115107900790  0.43933797769777
 6  5.17385264716472  0.86385130203020 -0.35379433813381
 6 -2.60391520722072 -1.08767732313231 -0.38932540634063
 6 -1.45060472257226 -3.86030578367837 -1.75871618841884
 6 -4.30102977137714 -3.79688392019202  1.33131825742574
 6  2.10777191089109 -4.52024104780478 -1.02867209400940
 6  5.28897770017002 -0.23658178167817  0.68591113831383
 6  4.48044410571057  3.94350720002000  0.60408260856086
 6  1.20244892329233  4.14344889518952  0.32648436903690
 6 -6.79376402700270 -3.43270805060506  0.84522358445845
 6 -5.78928850945095 -0.59112489648965  0.15296246314631
 6 -0.25200311961196  3.97912616241624  0.28921073297330
 6 -1.03929902850285  5.17408494219422  0.48644711021102
 6 -2.34570404410441  4.60584208560856  0.15445135113511
 6  3.05409199119912 -4.02047471767177  0.11995968516852
 6 -5.47481119061906  0.65914120272027 -0.54683614841484
 6  6.67272715171517 -0.84512998259826  0.75587648584858
 6 -3.70194773767377  5.31153221172117  0.33097760846085
 6 -2.14947449904991  3.20396535753575 -0.14506027582758
 6 -0.74104469556956  6.62845851585159  0.87154620622062
 6 -4.40256981958196  5.67557351405140 -1.04119321082108
 1 -0.33036462136214  0.32479934573457 -0.10412015171517
 1  3.15551291229123 -0.98802694389439 -1.04685477287729
 1  2.64176405770577 -3.08077967456746 -2.47379392649265
 1  1.23749475567557 -3.72454656555656 -2.75142350245024
 1 -5.56369809710971 -2.50042866756676  2.40059059895990
 1  5.29103161566157  0.39470885228523 -1.27933828112811
 1  5.99423799119912  1.66065559365937 -0.24528810341034
 1 -3.05770198789879 -0.03173538323832 -0.36003640114012
 1  0.44037126772677  1.69562940684068 -0.69605705120512
 1 -1.47964270007001 -4.75186975747575 -1.21067057685769
 1 -2.47010712171217 -3.61877246364636 -1.88862699579958
 1 -0.96844202410241 -4.41739880868087 -2.72843843314331
 1 -2.44619700600060 -3.41841157185719  0.58058072327233
 1  1.09370019931993 -4.92532523082308 -0.79199458935894
 1  2.80551665606561 -5.19281338823882 -1.47573295519552
 1  4.57882311531153 -1.10897206060606  0.48152788888889
 1  5.08897324272427  0.30909694839484  1.65641344444444
 1  4.16365689128913  4.89627004340434  0.11256988518852
 1  5.46042913461346  3.67442497569757  0.49451524112411
 1  4.42840987358736  4.03882935503550  1.70081579847985
 1  1.73232401100110  5.06989616701670  0.49507058225823
 1 -7.70750231853185 -2.97585266876688  1.49160042964296
 1 -6.80486455035504 -4.38508489058906  1.31137697809781
 1 -6.97168286528653 -3.66720413651365 -0.25844375597560
 1 -6.87011153345335 -0.70623153165317  0.57849585068507
 1 -4.79211818391839  1.42361718261826 -0.02521978327833
 1 -6.19139751715172  1.31373044804481 -0.97652196829683
 1 -4.72207151915191  0.40770093229323 -1.49336610141014
 1 -3.62677466296630  6.38138254335434  0.57534441094109
 1 -4.32457389558956  4.68842117401740  0.85199122542254
 1  0.39906076157616  6.61236180158016  1.46407624922492
 1 -1.56598270857086  7.12994644934493  1.65560491219122
 1 -0.50162099409941  7.10012229792979 -0.36299534243424
 1 -3.81233914091409  6.59949757545755 -1.37307150965097
 1 -5.36937964516452  5.99457257335734 -0.84527440464046
 1 -4.04012748964896  4.76020619091909 -1.74434394239424
 1  3.63504190469047 -4.36015222772277  1.85421620402040
 1  7.80468849344934 -2.03738312731273  1.79767715071507

