%nproc=4
%Mem=2GB
# td=(NStates=1) B3LYP/SVP 

TD

0 1
 8 -4.37951946274627 -4.95802017321732  1.74339836823682
 8  2.72408643734373 -4.92586389318932  1.08660279757976
 8  7.29570587488749 -1.31747901760176  1.82953563306331
 8  3.86693175067507 -3.26383440844084 -0.11323466286629
 8  7.84510404700470 -0.27959785488549 -0.06007203990399
 8 -3.02426801290129  2.36558460926093 -0.46023758515852
 7 -0.27515451015102 -0.48233242634263 -0.45689270217022
 7  1.58599709240924  1.76607704020402 -0.35654723232323
 7 -3.29726171517152 -3.14557567056706  0.88636495509551
 7 -0.89259775547555  2.85747689708971  0.03257941214121
 6  0.65006727102710 -2.27945590399040 -1.45482777787779
 6  0.90980388268827 -1.00849808150815 -1.00038888778878
 6 -0.77240136883688 -2.51221958415842 -1.36457852055206
 6 -1.32327274927493 -1.40740105150515 -0.69308843884388
 6  3.80044850565056  1.48144131063106 -0.16884115091509
 6  2.49341144694469  0.83804563006301 -0.56366055105511
 6  2.24926017621762 -0.39889714761476 -0.93382285688569
 6  3.47272791289129  2.77855765796580  0.11823981428143
 6  1.59472087718772 -3.32970467176718 -2.10155750135013
 6 -5.53383228992899 -2.80720633553355  1.37908517281728
 6 -3.64524838413841 -1.81956693259326  0.30248618041804
 6  2.06187049914992  2.94515450965097  0.14669229262926
 6 -5.02980567686769 -1.55508447234723  0.52286633053305
 6  5.14480974287429  0.91027594449445 -0.32713167186719
 6 -2.63607842354235 -1.04341289668967 -0.27270374417442
 6 -1.62698236033603 -3.72955270837084 -1.72583290009001
 6 -4.33464313271327 -3.80892512431243  1.45286041164116
 6  1.99893102680268 -4.44609363306331 -1.14492371917192
 6  5.46845564796480 -0.15858398189819  0.71867441464146
 6  4.60966702800280  3.78649149844984  0.71293349364936
 6  1.29133781218122  4.05073962426243  0.38938065866587
 6 -6.80142479307931 -3.48138291809181  0.82409147124712
 6 -5.82623220382038 -0.57686347034703  0.18374554145415
 6 -0.19103702300230  3.91234948474847  0.39310112201220
 6 -1.08608370697070  5.13330086378638  0.45291375687569
 6 -2.36130560426043  4.65617711911191  0.20874678067807
 6  2.96550313231323 -4.12443511371137 -0.00710302110211
 6 -5.49510321982198  0.61544683328333 -0.76890835563556
 6  6.97197707670767 -0.54476994659466  0.76957785598560
 6 -3.62949049194919  5.37507856635664  0.10921543224322
 6 -2.25544509610961  3.19321428242824 -0.04477024682468
 6 -0.68135872697270  6.51918758875888  0.83526257785779
 6 -4.17991755435544  5.43759971667167 -1.35749484098410
 1 -0.53439502440244  0.47950481628163 -0.04684442414241
 1  3.15351271227123 -1.19283742494249 -1.03823391079108
 1  2.48305818711871 -2.90905250185018 -2.66042258935894
 1  1.05975698189819 -4.05279939083908 -2.87666602670267
 1 -5.70843257055706 -2.61781040574057  2.32504304420442
 1  5.14125663816382  0.32768214961496 -1.26185653295330
 1  5.92286085348535  1.55534506260626 -0.40640421502150
 1 -2.84843106080608 -0.04858706840684 -0.53824422192219
 1  0.44292152275228  1.66584642854286 -0.69669711521152
 1 -1.59571430723072 -4.45539010951095 -0.94587409720972
 1 -2.69553966496650 -3.24563514991499 -1.81083921702170
 1 -1.37987316721672 -4.22845991479148 -2.70318590789079
 1 -2.51559394569457 -3.53823355405541  0.67776044124412
 1  1.09286011531153 -5.07750044834483 -0.72747813771377
 1  2.40534663906391 -5.40576468336834 -1.63491887378738
 1  4.88692392539254 -1.12356351975198  0.63608334443444
 1  5.38006235163516  0.01802784148415  1.86835463856386
 1  4.26967749334933  4.86559697609761  0.38041666986699
 1  5.40649374107411  3.37651518471847  0.32562835243524
 1  4.51084811741174  3.66943241534154  1.90626634353435
 1  1.75006578517852  5.04758393579358  0.36752782798280
 1 -7.75360692899290 -2.89250433393339  1.23479474907491
 1 -6.77097116101610 -4.57069345144514  1.32465830623062
 1 -6.70210590759076 -3.68748616471647 -0.28334624622462
 1 -7.10911543384338 -0.64891580008001  0.50143814491449
 1 -4.82490146224622  1.31253607450745 -0.09447670897090
 1 -6.51063944134413  0.89166824182418 -1.28471278737874
 1 -4.93820313231323  0.16339650185019 -1.68159492429243
 1 -3.55765775127513  6.23720812591259  0.65416229272927
 1 -4.28625006320632  4.79625195709571  0.59424545084508
 1 -0.11484062856286  6.54718528392839  1.81577141874187
 1 -1.50925703600360  7.25743919861986  1.14398375007501
 1 -0.14589542154215  6.71917420312031 -0.03374241714171
 1 -3.59277718471847  6.37490511621162 -2.01098530103010
 1 -5.09696240344034  5.83209632573257 -1.58597847504750
 1 -3.86468994589459  4.51263143344335 -1.93787329532953
 1  3.40993939443944 -4.74392060456046  1.70151093349335
 1  8.20112813741374 -1.72339172817282  1.66144352735274

