%nproc=4
%Mem=2GB
# td=(NStates=1) B3LYP/SVP 

TD

0 1
 8 -4.15100661146115 -4.94355872707271  1.71153518191819
 8  2.77342137083708 -4.82688399519952  1.10997513481348
 8  6.80329663396340 -1.74866213591359  1.86476915641564
 8  3.79332438993899 -3.10269829482948  0.04500116071607
 8  7.47301683828383 -0.76678657375738 -0.04991102380238
 8 -3.02327791389139  2.39981803260326 -0.40142170357036
 7 -0.27976497119712 -0.41441563466347 -0.46453346624662
 7  1.52892138483848  1.87892832533253 -0.32228380598060
 7 -3.12152414141414 -3.05086619961996  0.58415473407341
 7 -0.79743823952395  2.84373552295230 -0.01379522532253
 6  0.59667193149315 -2.25871382978298 -1.43836613171317
 6  1.00557345964596 -0.94577180888089 -0.92822167106711
 6 -0.73822795149515 -2.54752311451145 -1.22054411711171
 6 -1.33402382438244 -1.36055636703670 -0.62982211221122
 6  3.83059151995200  1.59809297579758 -0.26728099489949
 6  2.47392949874987  0.92143396889689 -0.57315150015001
 6  2.17037228742874 -0.41561881978198 -0.98319779437944
 6  3.52800344044404  2.85392519471947  0.13593158345835
 6  1.64071547664766 -3.17558926022602 -2.05789313491349
 6 -5.30468937563756 -2.80646626152615  1.47482474677468
 6 -3.60618447774777 -1.82707768366837  0.29996592839284
 6  2.08242255435544  3.01772176637664  0.07897552095210
 6 -4.97722041834183 -1.63005196909691  0.51704574847485
 6  5.18218348024802  0.89699461636164 -0.33713267196720
 6 -2.66621143684368 -1.05744429982998 -0.33940041384138
 6 -1.49124878697870 -3.78288804190419 -1.85328564536454
 6 -4.20368003640364 -3.76810104190419  1.34673979957996
 6  2.05667680138014 -4.34824384808481 -1.14663389018902
 6  5.29969877227723 -0.23167129062906  0.79927247444744
 6  4.51556761806181  3.88864171347135  0.53450565086509
 6  1.30208888728873  4.13607815811581  0.32008372897290
 6 -6.54809946054605 -3.59335411521152  1.09026808890889
 6 -5.79000858145815 -0.61680746474647  0.12298946584658
 6 -0.08124604390439  3.94802305210521  0.27262907480748
 6 -1.04439953855386  5.18921645534553  0.43040150565057
 6 -2.35505497919792  4.60440194159416  0.19235514151415
 6  3.02531911391139 -4.05648831903190  0.07564525372537
 6 -5.48501221072107  0.41396668526853 -0.82326379117912
 6  6.65283516251625 -0.85549101870187  0.79146004420442
 6 -3.67739528242824  5.33902496099610  0.22587709840984
 6 -2.12047159875988  3.17728268926893 -0.07684345414541
 6 -0.67473806490649  6.66041171117112  0.70455950755075
 6 -4.39320888348835  5.47803376007601 -1.15129422092209
 1 -0.61616320122012  0.49161602740274 -0.05467520722072
 1  3.25085244624462 -1.03772191339134 -1.20316040344034
 1  2.52031191249125 -2.45737733433343 -2.37090363746375
 1  1.26636764296430 -3.69777388828883 -2.85603396349635
 1 -5.36960868816882 -2.42398102280228  2.39616015591559
 1  5.34236674917492  0.59586896829683 -1.49301964926493
 1  6.08675724312431  1.68440796889689  0.12673909930993
 1 -2.80461667936794 -0.00288249794979 -0.61513191069107
 1  0.68492572317232  1.77231707560756 -0.64463190869087
 1 -1.52733746954695 -4.47471204170417 -0.91271078087809
 1 -2.47022713371337 -3.52448303470347 -2.45361349444945
 1 -0.85113029292929 -4.11762883168317 -2.77753334263426
 1 -2.07763014931493 -3.33118284898490  0.32511517671767
 1  1.10405123442344 -4.68006070437044 -0.75920131003100
 1  2.68275437983798 -5.06290039693969 -1.94540992289229
 1  4.71024625762576 -1.19123028642864  0.38842857895790
 1  5.07324166956696 -0.02933689498950  1.95640344344434
 1  4.46632715831583  4.79543996039604 -0.09630100190019
 1  5.57558064976498  3.71000853405341  0.36507229682968
 1  4.37445447804780  4.00057552965297  1.60878659555956
 1  1.66268704730473  5.18847802520252  0.79831090629063
 1 -7.49239080738074 -2.95921100460046  1.22332360196020
 1 -6.72174623852385 -4.48574495659566  1.65608144854485
 1 -6.44569026602660 -3.70419783588359  0.02427451585158
 1 -6.81238576087609 -0.72114302280228  0.41020902200220
 1 -5.03317228932893  1.26255107600760 -0.42468973027303
 1 -6.29211758915892  1.16216529152915 -1.24196851295129
 1 -4.76354566656666  0.21689185138514 -1.62171893669367
 1 -3.44523650915092  6.37438184328433  0.62548942544254
 1 -4.45596703490349  4.76583891579158  0.84577060336034
 1 -0.27170631513151  6.75586615201520  1.74178402000200
 1 -1.67542365266527  7.04886834153415  0.82991234293429
 1 -0.20512134413441  6.95321760746075 -0.16798584148415
 1 -3.79343725072507  5.99428705440544 -2.03119732223222
 1 -5.36121882908291  6.08948206430643 -1.14334421162116
 1 -4.45267874477448  4.39545971627163 -1.51800130813081
 1  3.33468186868687 -4.38384459695970  1.86825760816082
 1  7.75905392999300 -1.99986937593759  1.59869725272527

