%nproc=4
%Mem=2GB
# td=(NStates=1) B3LYP/SVP 

TD

0 1
 8 -4.23032454325433 -4.85936030723072  1.82258628702870
 8  3.12542657135714 -4.90538184498450  1.00424456175618
 8  7.09687599189919 -1.64269153885389  1.82473515301530
 8  3.86587164466447 -3.13327135213521 -0.15007834723472
 8  7.63660319691969 -0.40312020712071  0.00577454475448
 8 -3.06541212731273  2.41084913571357 -0.17923948534854
 7 -0.28785578027803 -0.53300749384938 -0.55674268716872
 7  1.58458695139514  1.80768120062006 -0.26127770537054
 7 -3.28762075107511 -3.09078019101910  0.71465778437844
 7 -0.81697019271927  2.90878202760276 -0.01614546034603
 6  0.56272853715372 -2.35776373477348 -1.46624891999200
 6  0.87209011131113 -1.09220645234523 -0.88971782068207
 6 -0.88506263496350 -2.53157151935194 -1.36703876657666
 6 -1.36890731273127 -1.41635194659466 -0.65262439243924
 6  3.80008846964696  1.50800396689669 -0.18027229402940
 6  2.47684979077908  0.74744657015702 -0.45794997999800
 6  2.20101535173517 -0.40837809570957 -0.80511998659866
 6  3.48267890799080  2.77805760796080  0.13487147744774
 6  1.51544294939494 -3.33896559785979 -2.05195254085409
 6 -5.45028393509351 -2.73106872177218  1.39855712001200
 6 -3.59907376667667 -1.84466944284428  0.17469340114011
 6  2.15384969706971  2.95766576077608  0.09728735213521
 6 -5.00195289158916 -1.57981694559456  0.48344238813881
 6  5.04240950285029  0.79557447434743 -0.23911286998700
 6 -2.68550336603660 -1.06375493089309 -0.32189866366637
 6 -1.64793445554555 -3.66350610371037 -1.94098441524152
 6 -4.26399606800680 -3.76647087888789  1.42550767636764
 6  2.04422555625563 -4.49950897459746 -1.06494572137214
 6  5.44688349074907 -0.06893501700170  0.88393094029403
 6  4.63984004530453  3.71948479777978  0.56338853915392
 6  1.22806148454846  4.06264081438144  0.28170989158916
 6 -6.67847249784978 -3.50192497229723  0.94462352445245
 6 -5.75996557715772 -0.53407919191919  0.08350551745175
 6 -0.24225214451445  4.03935218501850  0.24149596149615
 6 -1.05333043164316  5.14527206090609  0.32437090259026
 6 -2.38985845954595  4.68349985138514  0.26627253325333
 6  3.09542612461246 -3.98154082428243 -0.03998630943094
 6 -5.47676138563856  0.55193048164816 -0.88880034483448
 6  6.78272815181518 -0.64621009060906  0.90863176137614
 6 -3.66721426432643  5.30507156565657  0.22700721142114
 6 -2.24206375797580  3.26391135213521  0.00523475367537
 6 -0.63257384848485  6.62926859685969  0.53769282088209
 6 -4.32227178977898  5.36770272697270 -1.17200629212921
 1 -0.63241482638264  0.40038690449045 -0.24074381408141
 1  3.05830319131913 -0.87765590679068 -1.27297738513851
 1  2.47017689898990 -2.65333693029303 -2.35009155625563
 1  0.97103811001100 -3.91358546944694 -2.89152751285128
 1 -5.47359908720872 -2.37667629232923  2.35755629552955
 1  5.22952546504650  0.23739312071207 -1.24820516781678
 1  5.92441100850085  1.48943847194719 -0.41606518111811
 1 -2.84402061976198 -0.04296650635063 -0.24719511701170
 1  0.46066329692969  1.91596144004400 -0.32752019751975
 1 -1.63589832563256 -4.50996556705671 -1.34940445024503
 1 -2.71342145314531 -3.26353694009401 -2.11329946304630
 1 -1.29912509240924 -3.96044311311131 -3.01516710601060
 1 -2.48484087038704 -3.62702243294329  0.66235890109011
 1  1.31984281358136 -5.01794449274928 -0.62874826472647
 1  2.75648175257526 -5.12890699759976 -1.71278666056606
 1  4.80661589458946 -0.94300546394640  0.92353208930893
 1  5.30466481188119  0.36158219691969  1.91727953105311
 1  4.51351187678768  4.58170858725873  0.07984661286129
 1  5.61997508920892  3.33195072827283  0.30492628222822
 1  4.54000103270327  3.95578105020502  1.50339605650565
 1  1.58725950455045  5.00832000940094  0.73270434563456
 1 -7.58916048434843 -3.05475055855586  1.06140741034103
 1 -7.05714977887789 -4.49215559765977  1.52118795919592
 1 -6.49098479547955 -3.93469088518852 -0.24839275087509
 1 -6.84498902120212 -0.65387629612961  0.52500050115012
 1 -5.14781375347535  1.55359017991799 -0.41642890419042
 1 -6.28523690109011  0.66753582858286 -1.61178549464946
 1 -4.74595390739074  0.30291045324532 -1.67211397619762
 1 -3.47723970947095  6.38890329542954  0.79532640914091
 1 -4.31297273547355  4.78861119301930  1.21452747904790
 1  0.11996285178518  6.67555812121212  1.44266410801080
 1 -1.38993510381038  7.26204965966597  0.59684903660366
 1 -0.02390322232223  7.30938322402240 -0.28201724462446
 1 -3.75977388438844  6.02560018571857 -1.76301050355035
 1 -5.42409511671167  5.76480959705971 -0.97768764596460
 1 -4.28873235013501  4.34598476877688 -1.50249975797580
 1  3.80259866036604 -4.56705291779178  1.61251203360336
 1  7.93458148274827 -1.90208959795980  1.55556293929393

