%nproc=4
%Mem=2GB
# td=(NStates=1) B3LYP/SVP 

TD

0 1
 8 -4.27535904670467 -4.89329370057006  1.83967799619962
 8  3.19847387608761 -4.81962326912691  1.05710984828483
 8  6.99176548084808 -1.58861613131313  1.89955263476348
 8  3.86531158865887 -3.19365739073907 -0.22547588698870
 8  7.72292182878288 -0.39841973707371  0.10566453375338
 8 -3.06290187628763  2.43497154795480 -0.39805136653665
 7 -0.26419341404140 -0.53843803690369 -0.56997401030103
 7  1.55638413111311  1.83421385388539 -0.30537211481148
 7 -3.29868185718572 -3.11238235123512  0.73429974857486
 7 -0.81518001370137  2.82783393279328 -0.03536738253825
 6  0.58424068836884 -2.40781874027403 -1.47415971107111
 6  0.86659956225623 -1.10057728942894 -0.94850369926993
 6 -0.73004713341334 -2.55113347554755 -1.27176923962396
 6 -1.27304772677268 -1.38972928432843 -0.74196332633263
 6  3.86197465826583  1.56616978347835 -0.32997726452645
 6  2.46146825262526  0.87370919641964 -0.54525871087109
 6  2.19595484568457 -0.47948520642064 -0.86579605420542
 6  3.50282092219222  2.75412521472147  0.07326531683168
 6  1.54528593369337 -3.42311401270127 -1.95888323392339
 6 -5.50988989568957 -2.83874948984898  1.35333259755976
 6 -3.55352921222122 -1.86666164206421  0.22999893169317
 6  2.11873618571857  3.04192418661866  0.05935355875588
 6 -4.96872956925693 -1.60141910581058  0.56587063096310
 6  5.14853011491149  0.82491740864086 -0.31469042774277
 6 -2.67847266296630 -1.03407196259626 -0.46247272107211
 6 -1.57283694579458 -3.69502925602560 -1.98108842564256
 6 -4.41173084148415 -3.76841107290729  1.26633175877588
 6  1.99465059875988 -4.51138016171617 -0.92894212101210
 6  5.43179198159816 -0.17501562506251  0.88085063226323
 6  4.65030109140914  3.83841669096910  0.34244644494449
 6  1.28195687408741  4.05277982828283  0.39659137973797
 6 -6.83443809440944 -3.37217199699970  1.05480454255426
 6 -5.78969855045505 -0.59490527452745  0.13319048594859
 6 -0.16536445574557  4.05420367016702  0.22547435933593
 6 -1.12441754035404  5.23727126082608  0.36483494899490
 6 -2.42335180888089  4.63138463986399  0.21468737473747
 6  3.10228681068107 -4.01794446464646  0.03592128132813
 6 -5.60682439193919  0.52709799839984 -0.92492395719572
 6  6.83188306730673 -0.70210568016802  0.88683958215822
 6 -3.76173371627163  5.23461451995199  0.35658016871687
 6 -2.22862241384138  3.27574253525353 -0.11346711651165
 6 -0.68775936703670  6.50899656965697  0.86153520512051
 6 -4.30865042764276  5.67135309200920 -1.01669076057606
 1 -0.34779636453645  0.39839670547055 -0.02734247394739
 1  3.11081844284428 -1.07632577377738 -0.97015710311031
 1  2.34182406370637 -2.87969956655666 -2.57323387048705
 1  1.08215922212221 -3.95635974687469 -2.74215257535754
 1 -5.49454118141814 -2.76756538123812  2.34798533843384
 1  5.42163467596760  0.40922030343034 -1.42350269756976
 1  5.94173274067407  1.58703823192319 -0.20409398399840
 1 -2.90285650335033  0.03708149844985 -0.58808920642064
 1  0.63685091569157  1.78015785968597 -0.59207665316532
 1 -1.75689042484248 -4.54589916041604 -1.28816832663266
 1 -2.36265637663766 -3.41010159655966 -2.39786791989199
 1 -1.04413959385939 -4.00005707450745 -2.85961155045505
 1 -2.39604199049905 -3.57254698539854  0.77100976617662
 1  1.04169499879988 -4.69153185148515 -0.26769215911591
 1  2.52504860926093 -5.38145225212521 -1.45654103600360
 1  4.62058729172917 -1.02900406380638  0.91913164926493
 1  5.33841818721872  0.32758879757976  1.79358716181618
 1  4.29503002860286  4.69433985038504 -0.18559993179318
 1  5.60717380908091  3.50697823102310  0.04779056865687
 1  4.51935896849685  4.08346381848185  1.50308602550255
 1  1.66273705230523  5.06783596099610  0.61241231643164
 1 -7.57674924322432 -2.57118220172017  0.88882015161516
 1 -7.00186425032503 -4.08809519161916  1.85807164756476
 1 -6.63110880788079 -4.23897131323132  0.09212130053005
 1 -6.73598812111211 -0.86374728322832  0.59751775287529
 1 -4.87952692479248  1.36429125002500 -0.70355761706171
 1 -6.67164554195420  0.89051812681268 -1.30319463556356
 1 -4.93079239123912 -0.01266110391039 -1.61846861166117
 1 -3.60684266976698  6.12676708180818  0.96668354485449
 1 -4.29453089128913  4.42233456535654  0.73706973327333
 1  0.04757561306131  6.39951051645165  1.65963580518052
 1 -1.40662677297730  7.41715517021702  0.90662001370137
 1 -0.01038187018702  6.84866715241524  0.24706566366637
 1 -3.41654956195619  6.02250987668767 -1.63813801630163
 1 -5.12621532873287  6.51414453055306 -0.90909078627863
 1 -4.92707618451845  4.77407757805781 -1.59866937493749
 1  3.85518391889189 -4.58910512301230  1.73847462986299
 1  7.91809983458346 -2.03628301730173  1.79269665266527

