%nproc=4
%Mem=2GB
# td=(NStates=1) B3LYP/SVP 

TD

0 1
 8 -4.42844435523552 -4.77076144734473  1.96424045244524
 8  3.00830485918592 -4.84011531833183  1.10764490179018
 8  7.08882518681868 -1.70085735543554  1.71388406790679
 8  3.98544360186019 -3.18147617261726 -0.23726706610661
 8  7.65130466706671 -0.48017791289129 -0.02420845354535
 8 -3.05220080618062  2.24270232103210 -0.27778934033403
 7 -0.30167716241624 -0.47039123222322 -0.44934194709471
 7  1.54159265196520  1.85666609910991 -0.27102868046805
 7 -3.37982997199720 -3.07758887188719  0.76512283088309
 7 -0.85707420312031  2.96651780118012 -0.15842968876888
 6  0.68281054535454 -2.40857881628163 -1.36247854295430
 6  0.94947785008501 -1.01433866556656 -0.89480832973297
 6 -0.72267639633963 -2.51240960316032 -1.18485054775478
 6 -1.31296171817182 -1.32574288568857 -0.64264339433943
 6  3.78782724352435  1.56009917641764 -0.23548781558156
 6  2.49638174397440  0.87971979747975 -0.44042822782278
 6  2.19532478267827 -0.40139739763976 -0.81225069966997
 6  3.54753539363936  2.87481728392839  0.09372736303630
 6  1.59690109520952 -3.31772347364736 -2.00647799339934
 6 -5.49987889458946 -2.71021663656366  1.29030629492949
 6 -3.65013887318732 -1.89124410031003  0.13836976877688
 6  2.15480979307931  3.01125111931193  0.10198782218222
 6 -4.99007170347035 -1.56227519141914  0.42646669056906
 6  5.09832509440944  0.90365528242824 -0.30246920562056
 6 -2.65637045274527 -1.06876543194319 -0.37440391419142
 6 -1.41219088118812 -3.69810956405641 -1.76755707250725
 6 -4.35366503490349 -3.69569380118012  1.32680780638064
 6  2.11909304300430 -4.47910693439344 -1.06141536833683
 6  5.46503530593059 -0.22030015351535  0.88616116331633
 6  4.52996905820582  3.94998784808481  0.46071827212721
 6  1.29265794419442  4.12009655995600  0.38053977457746
 6 -6.85094974557456 -3.31753653345335  0.87122618471847
 6 -5.82698227882788 -0.54076986098610 -0.00464329742974
 6 -0.13874179347935  4.04907315711571  0.18147995989599
 6 -1.10734583318332  5.10126766046605  0.50122858835884
 6 -2.33336280998100  4.56685818721872  0.28477438343834
 6  3.22056863886389 -4.07915058525853 -0.08317062786279
 6 -5.56850055955596  0.57802309090909 -0.90867233203320
 6  6.80208008700870 -0.82068753835384  0.74250514871487
 6 -3.76212375527553  5.10749180768077  0.25356986768677
 6 -2.10276982858286  3.13251821282128 -0.19892566236624
 6 -0.68338892999300  6.54830050005001  0.88018707030703
 6 -4.38290785338534  5.22353831053105 -1.12251134263426
 1 -0.36684826972697  0.41597846364636  0.00102036233623
 1  3.16806416741674 -0.89748788998900 -1.14250433783378
 1  2.53333321462146 -2.63328492509251 -2.33787033413341
 1  0.90743174937494 -3.92906701760176 -2.74072243234323
 1 -5.42325405270527 -2.25003362806281  2.27731827172717
 1  5.30035254775478  0.35292467386739 -1.12915326262626
 1  5.81643021042104  1.76840636873687 -0.18414198879888
 1 -2.83964018171817  0.00419821012101 -0.48242864036404
 1  0.54173140374037  1.67581742564256 -0.07185463096310
 1 -1.68011274707471 -4.71924649514952 -1.01946145594559
 1 -2.55019513051305 -3.53466405280528 -1.94225235833583
 1 -1.23597877777778 -3.88927599639964 -2.66971256055606
 1 -2.46907929422942 -3.56866659735974  0.65929859505951
 1  1.24831566086609 -4.88148084638464 -0.66317170707071
 1  2.40981708610861 -5.31552565946595 -1.77613299519952
 1  4.62967820082008 -1.09684084748475  0.65819555565557
 1  5.33169751515152  0.29176521522152  1.83942174527453
 1  4.27890841644165  4.78380879727973 -0.14120549234923
 1  5.60337342904290  3.53316084928493  0.32586837643764
 1  4.32575960856086  4.20590606270627  1.46441215811581
 1  1.52401317991799  5.14372354975498  0.63950502570257
 1 -7.47328889718972 -2.57970305380538  1.03351462106211
 1 -7.05489955385539 -4.24435081718172  1.37290313071307
 1 -6.78891458845885 -3.56954437053705 -0.20798871047105
 1 -6.84538906120612 -0.52106301480148  0.48622662376238
 1 -4.95450442254225  1.41576639753975 -0.34816207750775
 1 -6.52869124652465  0.93608268326833 -1.32237655375538
 1 -4.92653196519652  0.19772993519352 -1.65230199499950
 1 -3.80003198869887  6.07603200830083  0.67594447094709
 1 -4.49557099529953  4.63163549544955  1.20889691599160
 1 -0.18651779627963  6.72868343374337  1.62939278087809
 1 -1.65588169846985  7.14867832253225  0.79411876357636
 1 -0.11631246324633  7.01597388308831  0.02837379447945
 1 -3.86066397339734  5.87282490819082 -1.85379958245825
 1 -5.42869557675767  5.45686880298030 -1.07588746594659
 1 -4.24034751165116  4.22617278757876 -1.65016452445245
 1  3.74154255475548 -4.81810802330233  1.71565234763476
 1  7.92787081168117 -2.12698208720872  1.48900628362836

