%nproc=4
%Mem=2GB
# td=(NStates=1) B3LYP/SVP 

TD

0 1
 8 -4.22573408420842 -4.82375674687469  1.84721875027503
 8  2.93683771247125 -4.74826613341334  1.17963210051005
 8  7.09712601690169 -1.52238950865087  1.84230691019102
 8  3.69188424592459 -3.10479850485049 -0.06433977337734
 8  7.54275381198120 -0.69829972507251 -0.22607864056406
 8 -3.01235682178218  2.26787483828383 -0.29411097249725
 7 -0.19775677037704 -0.47225141824182 -0.61186819971997
 7  1.60258875157516  1.88412884538454 -0.53979555715572
 7 -3.30947293629363 -3.12395350835083  0.63379969856986
 7 -0.79071756745675  2.94356550595059 -0.17410125592559
 6  0.66006827112711 -2.37204516291629 -1.40270256535654
 6  1.03840674297430 -1.08537576927693 -0.90635948484848
 6 -0.76992112081208 -2.56485484768477 -1.26031809450945
 6 -1.26244666666667 -1.39416972837284 -0.68638776877688
 6  3.75018347914791  1.44366753325333 -0.27965223202320
 6  2.41416352215222  0.87370919641964 -0.56148033303330
 6  2.32559780998100 -0.44638189608961 -0.84983445804580
 6  3.51300194029403  2.81470127232723  0.17920591089109
 6  1.65803720882088 -3.36242794409441 -2.01713905950595
 6 -5.47657656435644 -2.72413802870287  1.31299856415642
 6 -3.55662952225223 -1.83920889678968  0.10706663846385
 6  2.07037134923492  2.96362635683568 -0.01878425502550
 6 -4.90841353765377 -1.59989895379538  0.38859290319032
 6  5.07288255015502  0.79727464436444 -0.26383534223422
 6 -2.59891470717072 -0.97438599399940 -0.40687716151615
 6 -1.44413407550755 -3.78709846294629 -1.77893821062106
 6 -4.24301396979698 -3.71134536633663  1.43184831043104
 6  2.04813594729473 -4.46117514121412 -1.01038026482648
 6  5.47889669206921 -0.14213233673367  0.91572411961196
 6  4.50137619891989  3.84305715501550  0.63094529482948
 6  1.26048472687269  4.09001355165517  0.23944566516652
 6 -6.83889854045405 -3.47608238803880  0.89429849194919
 6 -5.76272585318532 -0.58421420542054  0.14891205810581
 6 -0.19394731403140  4.08404665446545  0.19426123802380
 6 -1.14788988758876  5.17220475417542  0.36596506200620
 6 -2.40934040774077  4.62719422082208  0.15646155215522
 6  2.99880646264626 -4.03573624382438  0.04288197739774
 6 -5.42127583708371  0.57355264386439 -0.68274973977398
 6  6.77542742174217 -0.70577604720472  0.79689058725873
 6 -3.75275281818182  5.26719777827783  0.24011852255226
 6 -2.18358791039104  3.13916887788779 -0.13369913971397
 6 -0.69961055215522  6.47342301230123  1.10206925852585
 6 -4.39074863746375  5.54661061776178 -1.12069116061606
 1 -0.78122970787079  0.39156602240224 -0.09186892659266
 1  3.23366072707271 -1.19269741094109 -0.83166325372537
 1  2.57041692299230 -2.56906850345035 -2.43237978507851
 1  0.92518352455246 -3.81032514341434 -2.78114647474747
 1 -5.65949767706771 -2.22273089778978  2.22600314021402
 1  5.14496700920092  0.25936531793179 -1.30002034933493
 1  5.69320788818882  1.75046457455746 -0.40360393499350
 1 -2.94208042574257 -0.05385759545955 -0.61527192469247
 1  0.58934616521652  1.80816065996600 -0.63670111561156
 1 -1.13004774057406 -4.59398396889689 -1.08269777957796
 1 -2.54279439043904 -3.80392097849785 -1.78425655875588
 1 -1.04241942184218 -3.99357642644264 -2.69931552085208
 1 -2.39610199649965 -3.52159188988899  0.73020568576858
 1  1.11034186348635 -4.85771847014701 -0.55457084698470
 1  2.36934303870387 -5.57018112501250 -1.56255163706371
 1  4.66302153515351 -0.91550271367137  1.11481121722172
 1  5.38232257765777  0.60678671737174  1.90370817391739
 1  4.21142166776678  4.74778519491949  0.04176280448045
 1  5.47425051675168  3.48988652185219  0.14398018761876
 1  4.68705573817382  4.04005947804781  1.89547526442644
 1  1.87812859145915  4.81241041844184  1.07642871807181
 1 -7.59412098039804 -2.76435151865187  1.33294456405641
 1 -6.81508557245725 -4.36509289138914  1.40209605000500
 1 -7.01322701970197 -3.66844426052605 -0.22914082568257
 1 -6.75386990929093 -0.61325223372337  0.64345234633463
 1 -4.81303027512751  1.45535035593559 -0.36914417571757
 1 -6.27586596399640  1.05410448544854 -1.02076639273927
 1 -4.91159047104710  0.37351751395139 -1.50101686648665
 1 -3.72058404390439  6.04483888898890  1.03190006650665
 1 -4.32058349654966  4.70524285618562  0.93663969026903
 1 -0.12265140964096  6.23272383778378  2.06523636523652
 1 -1.50371648194820  7.05132858755876  1.67489684138414
 1 -0.14260509250925  7.08397068276828  0.29511046814681
 1 -3.86390429742974  6.37546517221722 -1.57029123162316
 1 -5.42768547574757  5.99859297539754 -0.89157903510351
 1 -4.35300877777778  4.64355452575258 -1.65839534753475
 1  3.77506590709071 -4.45310152265227  1.74881566396640
 1  7.98535656025603 -1.97796718571857  1.69357674067407

