%nproc=4
%Mem=2GB
# td=(NStates=1) B3LYP/SVP 

TD

0 1
 8 -4.20130164096410 -5.03970834203420  1.70866489488949
 8  2.85316934563456 -4.74487579437944  1.11489562686269
 8  6.96650295459546 -1.69026629632963  1.76694937443744
 8  3.85181023852385 -3.14157218221822 -0.17703104250425
 8  7.63440297689769 -0.43047294239424 -0.02153818651865
 8 -3.08377396349635  2.51262931373137 -0.47299886128613
 7 -0.23231022572257 -0.52681687478748 -0.60847786068607
 7  1.60803929662966  1.80874130663066 -0.37588916651665
 7 -3.26540852985299 -3.15017613061306  0.77203352195220
 7 -0.85100359605961  2.90767191659166  0.04920107430743
 6  0.64767703200320 -2.40460841924192 -1.36883917901790
 6  0.94276717901790 -1.04492172387239 -0.91347019591959
 6 -0.74038816751675 -2.62169053125313 -1.17290935363536
 6 -1.23473389538954 -1.32973328472847 -0.63334246424642
 6  3.77239570037004  1.48447161366137 -0.27038130493049
 6  2.50270237603760  0.93197502300230 -0.58221240624062
 6  2.32450770097010 -0.48157541544154 -0.85857533213321
 6  3.58429907000700  2.89718952115212  0.12726071637164
 6  1.62302370747075 -3.41444314561456 -1.97664501010101
 6 -5.56759566626663 -2.90325594049405  1.29586685098510
 6 -3.61851571087109 -1.93551852775278  0.25129106090609
 6  2.11001531363136  3.06068606280628 -0.03227560416042
 6 -5.04619731603160 -1.69758872277228  0.57990203410341
 6  5.10222548444844  0.71374629152915 -0.33020197889789
 6 -2.70011482718272 -1.05533408880888 -0.36902337613761
 6 -1.52786244834483 -3.75377513061306 -1.83780409720972
 6 -4.39449911831183 -3.90285451725173  1.28977410301030
 6  1.98280941464146 -4.52803182688269 -1.12360158695870
 6  5.42912171457146 -0.06673479697970  1.01208375557556
 6  4.44803086438644  4.04630748004800  0.61049324962496
 6  1.21936061446145  4.09725427572757  0.31640336093609
 6 -6.85082973357336 -3.48391317111711  0.92315137723772
 6 -5.76194577517752 -0.67842362636264  0.20094726162616
 6 -0.16869478877888  4.05266351615162  0.24172598449845
 6 -1.04376947554755  5.16887442114211  0.41195966146615
 6 -2.29757923162316  4.72394389578958  0.29638554455446
 6  2.98485506750675 -4.04698736893689 -0.05749806060606
 6 -5.44841855135514  0.51659694829483 -0.60187165196520
 6  6.80069994899490 -0.70685615521552  0.81933283148315
 6 -3.65288283118312  5.39580063856386  0.23535804650465
 6 -2.19504905650565  3.28815377637764 -0.10070584038404
 6 -0.52865345644564  6.62410808080808  0.73930298189819
 6 -4.31523108570857  5.52196815351535 -1.23731282278228
 1 -0.37678926382638  0.33770063586359 -0.09082882258226
 1  3.09154651565157 -1.07241538273827 -1.32847293469347
 1  2.51532141344134 -2.93989558615862 -2.35992253935394
 1  1.33091409760976 -3.89872398329833 -2.99103746384638
 1 -5.52619434673467 -2.78093671837184  2.49103964386439
 1  5.15763827632763 -0.00313093169317 -1.26158650595059
 1  6.02747131453145  1.34367389548955 -0.52894646924692
 1 -2.83104932263226 -0.00333254295430 -0.50189058655866
 1  0.45833306390639  1.96935677957796 -0.46881432693269
 1 -1.81605634143414 -4.50283485398540 -1.07926743654365
 1 -2.54398450945095 -3.25261584798480 -2.19785791889189
 1 -1.00036521642164 -4.12713978277828 -2.81020660996100
 1 -2.25758814511451 -3.59409914061406  0.59807247244724
 1  1.19829065836584 -4.92137483578358 -0.59213460336034
 1  2.27080318471847 -5.44813892079208 -1.60221560346035
 1  4.61822705570557 -0.87372853625363  1.33363309940994
 1  5.47911225662566  0.72586862556256  1.94559236233623
 1  4.48711923752375  4.90792120852085 -0.12919429122912
 1  5.49747283898390  3.62152968616862  0.81312710231023
 1  4.08622565516552  4.33872934503450  1.47080279717972
 1  1.75554633323332  5.08436761416142  0.31634270947095
 1 -7.65510707900790 -2.84021910541054  0.98689995959596
 1 -6.97633169706971 -4.22337871997200  1.57441328172817
 1 -6.68805450245025 -3.94247166326633 -0.09204711631163
 1 -6.74546906920692 -0.56023693219322  0.83702170327033
 1 -4.82959193129313  1.38263308420842 -0.10452771407141
 1 -6.42450082748275  1.01132020702070 -1.15898021412141
 1 -4.56185549754976  0.34238440064006 -1.32961972677268
 1 -3.47520950645064  6.42699710481048  0.80665754225423
 1 -4.00704214241424  4.52812514441444  0.91495752205220
 1  0.05776663216322  6.50922148754876  1.68239808140814
 1 -1.49620573087309  7.17308076277628  0.82142149384939
 1  0.11104027202720  7.05061734743474  0.04012496959696
 1 -3.41844975197520  6.25430305600560 -1.68698290079008
 1 -5.46641934913491  5.94979809590959 -1.26496637383738
 1 -4.40557403430343  4.54415458575858 -1.70986049404940
 1  3.67477587808781 -4.47334354685468  1.51138192059206
 1  7.76504452905291 -1.92293168216822  1.57731511451145

