%nproc=4
%Mem=2GB
# td=(NStates=1) B3LYP/SVP 

TD

0 1
 8 -4.19192070287029 -4.87332170337034  1.87744177257726
 8  2.91483551225123 -4.97270857765777  1.17162129942994
 8  7.00777708200820 -1.74376164586459  1.77022970247025
 8  3.69022407990799 -3.16061408640864 -0.00956429582958
 8  7.53034257085709 -0.56449634473447 -0.09488552125212
 8 -3.02298788488849  2.42282033283328 -0.37820938233823
 7 -0.25645263996400 -0.44304849794980 -0.57750476337634
 7  1.56486497919792  1.82390282278228 -0.36138771637164
 7 -3.17930991999200 -3.13227434043404  0.68387470607061
 7 -0.80211870757076  3.01187233663366 -0.18977282308231
 6  0.58658092239224 -2.33908186658666 -1.41569386448645
 6  0.96498940124012 -1.06845407710771 -1.00574942384238
 6 -0.71082521122112 -2.66896525872587 -1.23824588728873
 6 -1.33975439743974 -1.35410572197220 -0.61847097709771
 6  3.79287774857486  1.47862102860286 -0.25907017381738
 6  2.55196730253025  0.90175200070007 -0.55609979497950
 6  2.20714596479648 -0.41145840374037 -0.83139261386139
 6  3.48462910301030  2.84071387358736  0.03718170847085
 6  1.63722512761276 -3.33126482778278 -1.93234057965797
 6 -5.53383228992899 -2.86639225412541  1.32539980428043
 6 -3.58567242654265 -1.85755073097310  0.21403733553355
 6  2.09033334543454  3.03334332853285 -0.00267264386439
 6 -5.05044774107411 -1.68269723362336  0.45662970687069
 6  5.13452871477148  0.75832074897490 -0.31428038673867
 6 -2.65722053775378 -1.00493904930493 -0.41805827962796
 6 -1.46397605970597 -3.79555930903090 -1.77243756055606
 6 -4.18811848024803 -3.80353458525853  1.30869599519952
 6  2.02898403210321 -4.38278730243024 -0.94489371617162
 6  5.45092389478948 -0.05086320982098  0.88610115731573
 6  4.46480254155416  3.95898874817482  0.37543974427443
 6  1.27553623202320  4.08874342464246  0.32991471207121
 6 -6.67922257285729 -3.63937871767177  0.67207626972697
 6 -5.83185276587659 -0.61152693669367  0.01797896479648
 6 -0.13994191349135  4.12430067986799  0.24976678857886
 6 -1.12606770537054  5.18045557925793  0.56209467496750
 6 -2.35695516921692  4.75127662906291  0.15977188318832
 6  2.96886346834683 -4.15944861506151  0.06274396359636
 6 -5.44125783528353  0.65780106870687 -0.50836230103010
 6  6.81107098609861 -0.73152862246225  0.76522742094209
 6 -3.66414395729573  5.35780683918392  0.33829834053405
 6 -2.16196574817482  3.32299726072607 -0.19902567236724
 6 -0.63233382448245  6.62022769276928  0.88769782138214
 6 -4.40776033863386  5.41083704040404 -1.03745283678368
 1 -0.33334491939194  0.49049591539154 -0.11596133583358
 1  3.14815217621762 -0.90966910811081 -0.91939202660266
 1  2.41306118741874 -2.81302289888989 -2.58693524062406
 1  1.10660166636664 -3.80554466536654 -2.66570493059306
 1 -5.52735446274627 -2.32820144484448  2.31114165406541
 1  5.05488800130013  0.24817419881988 -1.30042038933893
 1  5.94053262066207  1.58439796789679 -0.32529610421042
 1 -2.99631584928493 -0.02221443114311 -0.39496989448945
 1  0.55242247284728  2.04205404930493 -0.52035948144814
 1 -1.54673940974097 -4.74906947744774 -1.03996350615062
 1 -2.43980409140914 -3.58129871627163 -1.94730286338634
 1 -1.01457663756376 -4.36042311111111 -2.70994658395840
 1 -2.17208959525953 -3.25545527622762  0.96547921312131
 1  1.15043587288729 -4.95546824512451 -0.49122451235124
 1  2.53723982838284 -5.12262636953695 -1.46104148604860
 1  4.63619885288529 -0.79713087648765  1.04736447254725
 1  5.26828117351735  0.54238027672767  1.86086388948895
 1  4.58376890249025  4.85684610101010 -0.09886125792579
 1  5.60537362906291  3.59133666686669  0.17189297889789
 1  4.41329836243624  4.04086955905591  1.49171488838884
 1  1.80779155775578  5.02043122052205  0.61610268546855
 1 -7.62209377767777 -3.02133721722172  0.60502177177718
 1 -6.76253031693169 -4.72567894999500  1.12366820722072
 1 -6.28806450345035 -4.09003641974197 -0.39410732233223
 1 -6.90828535083508 -0.60683159165917  0.18663666476648
 1 -4.92255122722272  1.15480030093009  0.22049478817882
 1 -6.19296767416742  1.10646972197220 -1.16822113821382
 1 -4.53932324432443  0.68815897809781 -1.25787255205520
 1 -3.51086307180718  6.46445085018502  0.86911378787879
 1 -4.32485392359236  4.60027235913591  0.90431645794579
 1  0.15427628312831  6.65958652405241  1.76911675327533
 1 -1.63576968726873  7.26096955165517  1.25519487118712
 1 -0.28184901690169  7.00485277097710 -0.00098914181418
 1 -3.96780468746875  6.06962458815882 -1.89278348084808
 1 -5.37816052325233  5.88657177327733 -0.95883576077608
 1 -4.57524100100010  4.42107227752775 -1.56612612061206
 1  3.78919732023202 -4.84554076657666  1.52603338573857
 1  7.87929595419542 -2.36019540854085  1.69237662066207

