%nproc=4
%Mem=2GB
# td=(NStates=1) B3LYP/SVP 

TD

0 1
 8 -4.23032454325433 -4.93533790499050  1.84917894629463
 8  2.98766279497950 -4.88483979077908  0.94382852015202
 8  6.89925622992299 -1.70258752845285  1.87932061156116
 8  3.79992505000500 -3.14772279727973 -0.16175951535154
 8  7.66864640124012 -0.54983487858786 -0.01514754745475
 8 -3.08562414851485  2.47508555935594 -0.52802436383638
 7 -0.28380537523752 -0.49658385148515 -0.69199621252125
 7  1.57218571127113  1.76897733023302 -0.30994257185719
 7 -3.21617360636064 -3.14714582758276  0.78145446404640
 7 -0.80618911461146  2.92116326572657 -0.22565641144114
 6  0.60189245354535 -2.34202216061606 -1.52406470157016
 6  0.88509141144114 -1.03501073277328 -1.02483133203320
 6 -0.75223935263526 -2.57274563676368 -1.22967503020302
 6 -1.33296371837184 -1.38631894329433 -0.71129025902590
 6  3.75249371017102  1.46837000350035 -0.15700996779678
 6  2.56478858465847  0.90158198369837 -0.55732991799180
 6  2.24566981718172 -0.44979223712371 -0.86582605720572
 6  3.56131677177718  2.80840064226423  0.16390438073807
 6  1.64273567866787 -3.29367106840684 -2.10278762436244
 6 -5.38600750745074 -2.79011462636264  1.39166643094309
 6 -3.51322518181818 -1.83403837973797  0.36088202000200
 6  2.07287159925993  2.98875887008701  0.02761038443844
 6 -4.94483718001800 -1.73642260616062  0.63434747864786
 6  5.03527878977898  0.76381129802980 -0.27928688738874
 6 -2.62763757945795 -1.01516007140714 -0.30574704850485
 6 -1.53419308140814 -3.78176792989299 -1.80899121592159
 6 -4.30401006940694 -3.79668390019002  1.40384551015101
 6  2.04906604030403 -4.47109613331333 -1.23468269506951
 6  5.52623142554255  0.00904278077808  1.04535708290829
 6  4.36986304760476  3.88807165646565  0.71199339963996
 6  1.23746242464246  4.09771432173217  0.27307902850285
 6 -6.78233288388839 -3.43990877067707  1.00412947504750
 6 -5.78345792639264 -0.62968875287529  0.22427959485949
 6 -0.22998091739174  4.02534078387839  0.18031984388439
 6 -1.15118021662166  5.23561109480948  0.36315478097810
 6 -2.40905037873787  4.65528703010301  0.20351625762576
 6  2.99111569356936 -3.98236090629063 -0.06718902970297
 6 -5.41699540904090  0.54510979957996 -0.55378684348435
 6  6.85719559855986 -0.81423689328933  0.90474137233723
 6 -3.67787533043304  5.32795385388539  0.09519403010301
 6 -2.14736428802880  3.22688764976498 -0.24408017781778
 6 -0.69368996009601  6.54423009300930  0.95950500210021
 6 -4.26542610521052  5.54721067776778 -1.29263835533553
 1 -0.50849243414341  0.35121198699870 -0.23836357605761
 1  3.13971133213321 -1.11204934613461 -0.83056314371437
 1  2.64955483678368 -2.78736033263326 -2.49328587568757
 1  1.18694970117012 -3.41303541444144 -3.07088544864486
 1 -5.67442917021702 -2.68214683938394  2.52419295919592
 1  5.04232674517452  0.12361174257426 -1.13076342364236
 1  5.91469003640364  1.54182371047105 -0.56319989458946
 1 -2.68972519021902  0.12071986228623 -0.65593599109911
 1  0.55511274187419  1.97459730363036 -0.78124557005701
 1 -1.73861859765977 -4.35762033253325 -1.06312582238224
 1 -2.59121923292329 -3.54030461686169 -1.97639577267727
 1 -1.03555873577358 -4.28872594139414 -2.63455904520452
 1 -2.26397878417842 -3.42810254095410  0.62690535573557
 1  1.21375220452045 -5.02295499379938 -0.95572096199620
 1  2.55891199559956 -5.17860196709671 -2.04245962786279
 1  4.75704093709371 -0.80908207160716  1.50232996909691
 1  5.73285763116312  0.74158019671967  1.99295709880988
 1  4.33686421202120  4.85987640404040  0.14765339353935
 1  5.45098819051905  3.46705423862386  0.31095688528853
 1  4.35503253585358  4.14461993409341  1.91116683358336
 1  1.86315709430943  4.88164734213421  0.83778485368537
 1 -7.59586115441544 -2.69345442894289  1.46573784338434
 1 -6.80083414731473 -4.46733311541154  1.48259409980998
 1 -6.79111480848085 -3.74448186428643 -0.07947585918592
 1 -6.95997051935194 -0.64808571707171  0.52977097819782
 1 -4.83315228732873  1.15021984288429  0.07761049974997
 1 -6.27490586798680  1.27611668666867 -0.85811012711271
 1 -4.71270058205821  0.38570873307331 -1.41010777557756
 1 -3.54042602810281  6.35226963206321  0.62137901440144
 1 -4.59563100130013  4.87901023292329  0.65642166846685
 1 -0.23438258275828  6.47191775717572  1.85917575917592
 1 -1.65595170547055  7.26659011371137  1.09754910661066
 1  0.14016318431843  6.92767505320532  0.30780173727373
 1 -3.51813972097210  5.95493311901190 -2.04204840734073
 1 -5.23494620182018  6.10189330543054 -1.03846372357236
 1 -4.79224270117012  4.70633080338034 -1.86839634763476
 1  3.67003540404040 -4.48368458095810  1.50850163256326
 1  7.83434145874587 -2.40149953895390  1.73989137213721

