%nproc=4
%Mem=2GB
# td=(NStates=1) B3LYP/SVP 

TD

0 1
 8 -4.30020153095310 -4.75664003520352  2.00671469986999
 8  3.13153718241824 -4.86641794859486  0.95121925922592
 8  7.04944124842484 -1.72493976367637  1.77494017351735
 8  3.81054611211121 -3.12397042204220 -0.33522686208621
 8  7.83864340094009 -0.17771766686669  0.20532449974998
 8 -2.94975056115612  2.24953300410041 -0.26265782718272
 7 -0.28434542924292 -0.53454764786479 -0.52318933183318
 7  1.51794028672867  1.77270770327033 -0.36681825942594
 7 -3.33255524452445 -3.00849196219622  0.78546486508651
 7 -0.75094359005901  2.86079722912291  0.02612876707671
 6  0.64398666296630 -2.38363632203220 -1.41796409150915
 6  0.95581848414841 -1.08641587328733 -0.93808265716572
 6 -0.81482561126113 -2.55893425562556 -1.23745580828083
 6 -1.35348577057706 -1.44224453585359 -0.63275240524052
 6  3.83744220502050  1.51679484598460 -0.31772603940394
 6  2.54515662146215  0.89604142964296 -0.46469065406541
 6  2.28972422262226 -0.44481173907391 -0.77655713031303
 6  3.50349098919892  2.75113491569157  0.15280327062706
 6  1.57107851295130 -3.31539324062406 -2.04612195779578
 6 -5.61255016171617 -2.73607922282228  1.26316358065807
 6 -3.60499435873587 -1.80967594349435  0.22603853565357
 6  2.13414772687269  3.02830282448245  0.04885250865087
 6 -5.12716541284128 -1.64301326522652  0.42497654155416
 6  5.18252351425143  0.90386530343034 -0.32697165586559
 6 -2.64971978767877 -1.00836939233923 -0.25078155195520
 6 -1.62897255935594 -3.75320507360736 -1.66258657545755
 6 -4.38877854625463 -3.62929716151615  1.42592771837184
 6  1.94852598629863 -4.46748577227723 -1.10306953375338
 6  5.40428923132313 -0.12098022152215  0.81932447964796
 6  4.48943500480048  3.90035288458846  0.46785898619862
 6  1.27422610101010  4.02283683398340  0.35824754535454
 6 -6.81915656625663 -3.54671945174517  0.73384244634463
 6 -5.90885046564657 -0.51677746174617 -0.01782461556156
 6 -0.16271419071907  3.97388563836384  0.20337214911491
 6 -1.07624272287229  5.08532606630663  0.40892935843584
 6 -2.36537601130113  4.55811731313131  0.29312521852185
 6  3.04211079307931 -4.06740941114111 -0.11856416721672
 6 -5.47779148864887  0.66203149174917 -0.74761622642264
 6  6.93243312231223 -0.58826429602960  0.86798769696970
 6 -3.67036457935794  5.24136519501950  0.24246875757576
 6 -2.16823637523752  3.10654561556156 -0.09128489828983
 6 -0.72416300740074  6.47124279427943  0.74756380798080
 6 -4.23326288888889  5.37822377907791 -1.12530162166217
 1 -0.37761934683468  0.29049591539154 -0.08269800950095
 1  3.05940330133013 -1.12326046724672 -0.85032511991199
 1  2.37404728602860 -2.79984158075808 -2.53930047714771
 1  1.06187719391939 -3.72206631753175 -2.99419777987799
 1 -6.01297302460246 -2.52838146284629  2.25469600950095
 1  5.20269278177818  0.18340772217222 -1.30617096439644
 1  6.05422398979898  1.51624115221522 -0.51792536713671
 1 -2.69643586128613  0.19862765306531 -0.37621801930193
 1  0.45952318291829  1.73619346324632 -0.53787123262326
 1 -1.39851458725873 -4.51871644214421 -0.91577108690869
 1 -2.66961707270727 -3.47106769316932 -1.69711784488449
 1 -1.42555773567357 -4.05072214101410 -2.67336292559256
 1 -2.37132951925193 -3.33214294499450  0.94880754595460
 1  0.92535336463646 -4.74012671097110 -0.60675606550655
 1  2.34960106450645 -5.41116522342234 -1.70222560446045
 1  4.79089432243224 -1.01991315471547  0.59100883698370
 1  5.18044238963896  0.53608964766477  1.67800560366037
 1  4.22373289888989  4.63808422482248 -0.13582495429543
 1  5.52271536323632  3.43604113731373  0.27150293989399
 1  4.29374640724072  4.16184165626563  1.54106982388239
 1  1.67437821642164  5.04255343274327  0.45778685388539
 1 -7.77361893019302 -2.86077116061606  0.64800607020702
 1 -6.97378144204420 -4.34429081118112  1.37603344374437
 1 -6.66163186018602 -4.00210762686269 -0.32227013861386
 1 -6.97469199149915 -0.76229713821382  0.34669267036704
 1 -5.00737971007101  1.56944176507651 -0.28571583288329
 1 -6.29959833723372  1.06473554855486 -1.39635395149515
 1 -4.81013032503250  0.46835699789979 -1.51599836463646
 1 -3.71741372687269  6.19256366146615  0.86073294979498
 1 -4.34273571177118  4.42239457135714  0.84513053935394
 1 -0.06921606610661  6.46417698309831  1.57953779537954
 1 -1.38781489178918  7.21454490919092  0.91370072177218
 1 -0.06080691269127  6.83989627532753 -0.25160420332033
 1 -3.74060196719672  6.24183180888089 -1.76552075457546
 1 -5.36481918911891  5.50459357545755 -1.33722359955996
 1 -4.05917939483948  4.35016518681868 -1.84040354835483
 1  3.87838623912391 -4.51581779427943  1.57401818421842
 1  7.94837286188619 -2.03248263726373  1.80064744774477

