%nproc=4
%Mem=2GB
# td=(NStates=1) B3LYP/SVP 

TD

0 1
 8 -4.20427193799380 -4.80741511271127  1.76845087348735
 8  2.93460748944894 -5.01735304210421  1.05297943524352
 8  7.08228453275328 -1.51474874457446  1.86691937143714
 8  3.90488554605461 -3.24030205520552 -0.02110544994499
 8  7.54219375597560 -0.51930182528253 -0.16368240094009
 8 -3.04215980208021  2.38392644344434 -0.53764532593259
 7 -0.32577957265727 -0.53163735683568 -0.56998401130113
 7  1.54338283098310  1.90532096459646 -0.39094067166717
 7 -3.24509649864986 -3.09379049204920  0.69365568416842
 7 -0.85860435613561  2.95144629402940 -0.10638448424842
 6  0.75396766106611 -2.41324928332833 -1.32909520462046
 6  0.92851575387539 -1.04703193489349 -0.91886073497350
 6 -0.70831496019602 -2.57818618081808 -1.25939800250025
 6 -1.26927734973497 -1.46736704810481 -0.67291642164216
 6  3.75371383218322  1.60446361286129 -0.22068633543354
 6  2.49128123392339  0.87225905140514 -0.49054323932393
 6  2.23159841004100 -0.42989024692469 -0.87651712631263
 6  3.44950559065907  2.82877267946795  0.22086007630763
 6  1.65782718781878 -3.32806450775078 -2.05958330393039
 6 -5.58847775447545 -2.81745736063606  1.34614187848785
 6 -3.55725958525853 -1.80303527942794  0.22826875867587
 6  2.06646095819582  3.05784577877788  0.10223784718472
 6 -5.06385908220822 -1.57481644554455  0.60860490439044
 6  5.03333859575958  0.81026594349435 -0.25709466816682
 6 -2.61275609130913 -1.12987154255426 -0.31577805160516
 6 -1.46971663376338 -3.80615036813681 -1.71267158395840
 6 -4.27267693609361 -3.69141337313731  1.36478160376038
 6  2.15525665936594 -4.51809083278328 -1.12738196499650
 6  5.34201300370037 -0.28221634513451  0.75117766496650
 6  4.47407346864687  3.85340819011901  0.63216541684168
 6  1.24096277467747  4.26062061236124  0.25481720232023
 6 -6.73462811341134 -3.56110088988899  0.66601566366637
 6 -5.74887446804680 -0.47666345034503  0.29508667556756
 6 -0.18306622592259  4.05642389218922  0.24295610751075
 6 -1.13041814041404  5.18950648434843  0.39975844134413
 6 -2.31814128782878  4.66552805420542  0.19118502450245
 6  3.05599218121812 -4.16145881608161 -0.03717602840284
 6 -5.39362307180718  0.78190347894789 -0.46568803360336
 6  6.73806368536854 -0.67742321192119  0.72388328652865
 6 -3.73290083298330  5.32005306380638  0.13269778047805
 6 -2.15402495409541  3.16401136213621 -0.17940371017102
 6 -0.72326291739174  6.40644631463146  0.94840389198920
 6 -4.30222978557856  5.48823478017802 -1.22693178467847
 1 -0.34049563446345  0.29919678547855 -0.05676541624162
 1  3.09124648564857 -1.16682482368237 -1.11354144154415
 1  2.66811669296930 -2.81083267986799 -2.52218876597660
 1  1.10546155235524 -3.86899101000100 -2.66737509760976
 1 -5.75759748704870 -2.66730535523552  2.30600114001400
 1  5.10164267676768  0.31445082648265 -1.27799814711471
 1  5.96165473287329  1.50196972507251 -0.38986256085609
 1 -2.76578279597960 -0.01456366606661 -0.47587798529853
 1  0.57904513511351  1.83360320422042 -0.63969141464146
 1 -1.40009474527453 -4.70188475897590 -1.17746725652565
 1 -2.58751886288629 -3.57321790819082 -1.85413354645465
 1 -1.19635481538154 -4.04808187698770 -2.65969155845585
 1 -2.42585497179718 -3.63782351305131  0.95343800900090
 1  1.44052488178818 -4.95128782708271 -0.59759514941494
 1  2.64525062946295 -5.26066017291729 -1.62326770867087
 1  4.78621385438544 -1.13699486288629  0.38603833993399
 1  4.92300664606461 -0.00244420572057  2.02989079217922
 1  4.17925845144515  4.85844626102610  0.17299592779278
 1  5.50895398709871  3.85754328752875  0.03443923352335
 1  4.53329036163616  4.03038851095110  1.80140585748575
 1  1.80987176577658  5.07997717511751  0.48459953515352
 1 -7.59767133543354 -2.87696277977798  0.59958122772277
 1 -7.22319638353835 -4.26718310041004  1.58856469686969
 1 -6.50994669166917 -3.98350576667667 -0.25489340094009
 1 -6.64447897019702 -0.37575848434843  0.97207520862086
 1 -4.89352832493249  1.54021884278428  0.03168590729073
 1 -6.26922529992999  1.28567764276428 -0.69215353145315
 1 -5.00136944894489  0.40617077927793 -1.45141190599060
 1 -3.56181816731673  6.40549495459546  0.58733561006101
 1 -4.37998943714372  4.92477480938094  0.78632465876588
 1 -0.30283942844284  6.40010057545755  2.08127796939694
 1 -1.46859296959696  7.13928738343834  0.96979633133313
 1  0.11061022902290  6.86649893559356  0.26753771087109
 1 -3.69904781178118  6.02191981768177 -1.82966716921692
 1 -5.35881858905891  5.95046816291629 -1.43884376157616
 1 -4.47913139003900  4.33221339163916 -1.58076758475848
 1  3.41978037853785 -4.63385959845985  1.68255903830383
 1  7.99743776837684 -1.75771516051605  1.92149953295329

