%nproc=4
%Mem=2GB
# td=(NStates=1) B3LYP/SVP 

TD

0 1
 8 -4.39064057485749 -4.89648401960196  1.84990901930193
 8  2.91453548224823 -4.94159546634663  1.15418955625563
 8  7.21391769606961 -1.34293156285629  1.82385506500650
 8  3.67160221772177 -3.06170419541954  0.01113777437744
 8  7.71928146474647 -0.35128502360236 -0.12958899159916
 8 -3.04223981008101  2.37628567936794 -0.34013557495750
 7 -0.20375737043704 -0.48662285538554 -0.44934194709471
 7  1.56077457015702  1.83937436993699 -0.44950652825283
 7 -3.35492748174817 -3.15686679967997  0.73441976057606
 7 -0.79901839753975  2.86275742514251  0.10271642584258
 6  0.61306357065707 -2.39483744214421 -1.31180347544754
 6  0.95545844814481 -1.03796102780278 -0.85690453935394
 6 -0.76411053975398 -2.59996835903590 -1.21135319801980
 6 -1.31631205320532 -1.43960427182718 -0.65862499249925
 6  3.81102956375638  1.49623278977898 -0.32514678147815
 6  2.46948905470547  0.79880170567057 -0.52299648464846
 6  2.26729197939794 -0.52209946784678 -0.63029250385038
 6  3.59777041714171  2.85745554775478 -0.00086209590959
 6  1.60980238533853 -3.35655735703570 -1.99478682428243
 6 -5.63348225492549 -2.81359697459746  1.28188545284528
 6 -3.72420627992799 -1.90002497839784  0.26408234003400
 6  2.14710902300230  3.05368536273627 -0.01051342794279
 6 -5.08101079737974 -1.64434339823982  0.46654069796980
 6  5.15242050395040  0.79563448034803 -0.50049900860086
 6 -2.74699951565157 -1.13274182958296 -0.29301577537754
 6 -1.48655831793179 -3.81284103720372 -1.78106842364236
 6 -4.50087975637564 -3.82188642044204  1.34039916551655
 6  2.03077421112111 -4.46110513421342 -1.08291751855186
 6  5.42765156755676 -0.09324744824482  0.67886043324332
 6  4.52594865616562  3.90517336663666  0.35326752705271
 6  1.29311799019902  4.08427297759776  0.32157387798780
 6 -6.86601125172517 -3.36731151095109  0.50756981908191
 6 -5.80962054265427 -0.61220700470047 -0.02277511061106
 6 -0.05141306060606  4.01487973777378  0.39136094799480
 6 -1.00981608020802  5.12277981168117  0.60234870037004
 6 -2.28658813251325  4.62270377177718  0.20045595159516
 6  2.90529711171117 -3.99027169736974  0.06136382558256
 6 -5.42432614211421  0.57742303090309 -0.76579804460446
 6  6.93079295829583 -0.54841031063106  0.77206810501050
 6 -3.60755829872987  5.22854391289129  0.29041355205521
 6 -2.16965651725173  3.13869883088309 -0.01399716951695
 6 -0.64481507260726  6.60658632863286  0.84966401800180
 6 -4.23584314691469  5.36663261996200 -1.03651274277428
 1 -0.31386297119712  0.27807467326733  0.12631289158916
 1  3.09186654765477 -1.14948308950895 -0.76596668406841
 1  2.35214509580958 -2.88843043964396 -2.46281282838284
 1  1.11869287548755 -3.79612372327233 -2.90102846294629
 1 -5.99101082838284 -2.11733035773577  2.25438597849785
 1  5.35006751925193  0.11763114451445 -1.33206355365537
 1  6.04366293369337  1.55438496659666 -0.59469304390439
 1 -2.90302652035203 -0.10895310501050 -0.10781117861786
 1  0.40002723332333  1.80654049794979 -0.27326477197720
 1 -1.11566630243024 -5.00578514901490 -1.38984849464946
 1 -2.57128723972397 -3.84942552895290 -1.74959309240924
 1 -1.23102828272827 -4.00428749754976 -2.83484907420742
 1 -2.44530691699170 -3.61691142184218  0.76661932713271
 1  1.09628045734573 -4.85785848414841 -0.56354174407441
 1  2.71975808020802 -5.08254236113611 -1.64110949284929
 1  4.74831006400640 -0.86883804720472  0.73788352445245
 1  5.04499884528453  0.45759179787979  1.48349615271527
 1  4.21445197079708  4.91370178657866 -0.11987335913591
 1  5.58521161286129  3.60851838503850  0.07284307390739
 1  4.46236326892689  4.04162963506351  1.30537625452545
 1  1.65368614721472  5.02889206660666  0.60042111731173
 1 -7.88229979827983 -2.75588067156716  0.50886215581558
 1 -7.06554061796180 -4.45196157825783  0.87464330473047
 1 -6.38748444544454 -3.62929034513451 -0.49849776137614
 1 -6.98866338863886 -0.43256416491649  0.30417841894189
 1 -4.84169314141414  1.31585640654065 -0.16451371267127
 1 -6.41858023542354  1.04749382438244 -0.99717403350335
 1 -4.99443875587559  0.55642580478048 -1.79981674647465
 1 -3.62363434893489  6.30333473857386  0.57645452195220
 1 -4.14879631783178  4.58791112301230  0.83062908920892
 1  0.14409526502650  6.45331589698970  1.70427026862686
 1 -1.37297340764076  7.37620107480748  0.99920927262726
 1 -0.03624445644564  7.03461574727473 -0.02351139403940
 1 -3.64327223422342  6.17706533223322 -1.67645184768477
 1 -5.35484819201920  5.63337645374538 -1.03104298149815
 1 -3.96955043194319  4.43604377467747 -1.40785029302930
 1  3.55447384788479 -4.50489670217022  1.77713849624962
 1  8.21361938653865 -1.60943033203320  1.79399678267827

