%nproc=4
%Mem=2GB
# td=(NStates=1) B3LYP/SVP 

TD

0 1
 8 -4.37290880168017 -4.89495386658666  1.74210823922392
 8  3.14586861556156 -4.90064137093709  1.09119325662566
 8  6.85442174647465 -1.58818608830883  1.83213589308931
 8  3.96467152465247 -3.19246727172717 -0.18598193759376
 8  7.70880041664166 -0.31321121622162  0.18415238253825
 8 -3.03363894999500  2.49240729152915 -0.53746530793079
 7 -0.27715471017102 -0.56336052915292 -0.64849186208621
 7  1.56932542524252  1.77788822132213 -0.39697127472747
 7 -3.23173516251625 -3.12583369636964  0.81608792739274
 7 -0.86042453815382  2.87568871827183 -0.13350719651965
 6  0.61564382868287 -2.45147310571057 -1.41875417051705
 6  0.92380528282828 -1.08109534123412 -0.99797864676468
 6 -0.68633276197620 -2.57050541274127 -1.36238830153015
 6 -1.29524994699470 -1.39445975737574 -0.76226535653565
 6  3.74761322212221  1.51541470797080 -0.27646191299130
 6  2.48940104590459  0.87324915041504 -0.60679486448645
 6  2.21243649384938 -0.44347160506051 -0.95855533013301
 6  3.52312295239524  2.84077387958796  0.06569455975598
 6  1.55103650875088 -3.45697739903990 -1.95408275387539
 6 -5.43559246594659 -2.65754136903690  1.43442070637064
 6 -3.59272313161316 -1.87882285818582  0.16907283908391
 6  2.12966727882788  3.01081107530753  0.05126274967497
 6 -4.97402009830983 -1.61249021292129  0.43002704660466
 6  5.08634389628963  0.92419733663366 -0.35344430313031
 6 -2.63840865656566 -1.02936149154915 -0.50525699949995
 6 -1.54441410351035 -3.77910766386639 -1.66954727152715
 6 -4.26186585498550 -3.69066329812981  1.40952607820782
 6  2.21410254395440 -4.55258428212821 -1.07870709750975
 6  5.27712651505151 -0.14382250575058  0.83646619381938
 6  4.49864592589259  3.80245309460946  0.55510771107111
 6  1.22564124252425  4.08990354065407  0.32851457205721
 6 -6.83327797839784 -3.30064484428443  1.12449151125113
 6 -5.85882546314631 -0.68181396539654  0.11652881978198
 6 -0.17695561486149  3.97813606340634  0.21399321122112
 6 -1.05292039063906  5.12225975967597  0.57448591409141
 6 -2.29760923462346  4.67231873327333  0.25813171917192
 6  3.25717229922992 -4.14961763196320 -0.00354266506651
 6 -5.45945965546555  0.49940522912291 -0.82156362116212
 6  6.67465734473447 -0.66164163376338  0.81834273247325
 6 -3.73448099099910  5.34508556705671  0.37297180788079
 6 -2.18195774737474  3.25763072407241 -0.25974174397440
 6 -0.63346393749375  6.52949861986199  0.98391744334433
 6 -4.39119868246825  5.63453941064106 -1.07776686818682
 1 -0.49935152005200  0.41898876467647 -0.53407314701470
 1  2.84732209320932 -1.07728586978698 -1.32145223262326
 1  2.28100798209821 -3.00580217681768 -2.43111965906591
 1  0.84373537973797 -4.08383249414941 -2.76878523862386
 1 -5.56054778207821 -2.55385401010101  2.42474301420142
 1  5.19418193069307  0.31260064146415 -1.34166451375138
 1  5.82015058245825  1.62406193429343 -0.30593416801680
 1 -3.10277649534953  0.02399018931893 -0.62336273377338
 1  0.55443267386739  1.77758760266027 -0.50595804130413
 1 -1.45892062786279 -4.57936250675068 -0.91540104990499
 1 -2.85872598359836 -3.46504709110911 -1.53684181728173
 1 -1.40956613651365 -4.43727079587959 -2.68479406870687
 1 -2.38428081438144 -3.82003173387339  0.39345201040104
 1  1.41846267556756 -5.23254595289529 -0.61411680158016
 1  2.72010811521152 -5.29779388628863 -1.61207658955896
 1  4.70988622162216 -1.20513167656766  0.60228996509651
 1  4.91910625602560  0.30113615231523  1.81160896399640
 1  4.48298882448245  4.73172358875888  0.16250487868787
 1  5.70376346804681  3.72361989518952  0.30958674827483
 1  4.36311334393439  3.98239371147115  1.67915363226323
 1  1.87759853845385  4.94590376777678  0.53059413461346
 1 -7.50851241954195 -2.21329641314131  1.10643191279128
 1 -7.32247631153115 -3.96279266136614  1.92853869426943
 1 -6.90694639163916 -3.54053146924692  0.17348943734373
 1 -6.80440496279628 -0.76345725422542  0.44257225832583
 1 -4.82183115521552  1.46494131503150 -0.59475673697370
 1 -6.32439081648165  0.84595367036704 -1.21193550965096
 1 -4.87520683268327  0.26313647584759 -1.63615037983798
 1 -3.53908589408941  6.19922432753275  1.02025890239024
 1 -4.39683112131213  4.35291762366237  0.82557858415842
 1 -0.10263940844084  6.29717028242824  1.93624346594660
 1 -1.56998310861086  7.03332678737874  1.15886523822382
 1  0.03953312131213  6.96032831853185  0.44092504960496
 1 -3.81525943294329  6.37856548224822 -1.73055725822582
 1 -5.31869457665767  6.07221033713371 -0.75676555375538
 1 -4.54076755365537  4.88367853815382 -1.72175168316832
 1  3.83300170067007 -4.73458967146715  1.84406518891889
 1  7.65969399399940 -2.22351174017402  1.83824120712071

