%nproc=4
%Mem=2GB
# td=(NStates=1) B3LYP/SVP 

TD

0 1
 8 -4.37957946874687 -4.71227559875988  2.09852388078808
 8  2.89601363006301 -4.71822312911291  1.15430956825683
 8  7.06984328862886 -1.52026929662966  1.71373405290529
 8  3.68943400090009 -3.04841286628663  0.05777243784378
 8  7.64577411401140 -0.54001389648965 -0.23352938563856
 8 -3.15681126722672  2.42983103390339 -0.74502606400640
 7 -0.30840783548355 -0.44049824292429 -0.72822983588359
 7  1.52931142384238  1.70026045854585 -0.25966754435444
 7 -3.24023601260126 -3.13820493349335  0.75215153375338
 7 -0.92484097979798  2.84142529192919 -0.08951279707971
 6  0.68846111041104 -2.42743070147015 -1.41742403750375
 6  0.99141204350435 -1.04674190589059 -0.99355820472047
 6 -0.68807293599360 -2.61857021922192 -1.30622268496850
 6 -1.29283970597060 -1.33958426982698 -0.85382451245125
 6  3.78248670947095  1.52664583108311 -0.19630389718972
 6  2.53243534933493  0.87391921742174 -0.49194337933793
 6  2.19724497469747 -0.46919417731773 -0.90539001360136
 6  3.50474111421142  2.80013981618162  0.29278726902690
 6  1.71306271137114 -3.34964666596660 -2.04534187978798
 6 -5.50392929962996 -2.69582519741974  1.36528379267927
 6 -3.55143900320032 -1.89768474437444  0.18532446424642
 6  2.05062937503750  2.88098809300930  0.12574019741974
 6 -5.00020271657166 -1.55855481938194  0.40668471237124
 6  5.11627688958896  0.78374329122912 -0.40916987568757
 6 -2.61496631233123 -1.02170072547255 -0.40144661846185
 6 -1.33570323242324 -3.90687044014401 -1.77223754055406
 6 -4.31572124052405 -3.67058128992899  1.50846597219722
 6  2.13581471517152 -4.52308133183318 -1.14537376417642
 6  5.51489029142914 -0.03884200770077  0.77228977617762
 6  4.43029909120912  3.85850870017002  0.73234543484348
 6  1.19318799719972  4.03964851515151  0.54140586118612
 6 -6.83366801740174 -3.34556933673367  1.05893495559556
 6 -5.74717429802980 -0.50282606660666 -0.05670850395040
 6 -0.16929484878488  3.91103935373537  0.29216102800280
 6 -1.06416151475148  5.02833036673667  0.58800726622662
 6 -2.33429290299030  4.61100260166017  0.25629153515352
 6  3.00923750575057 -3.98392106230623  0.00599828902890
 6 -5.34404811431143  0.62464775337534 -0.88453991879188
 6  6.84790466946695 -0.76295176477648  0.64998589678968
 6 -3.65291283418342  5.33614467296730  0.22145665636564
 6 -2.25462501410141  3.16454141514151 -0.27187295709571
 6 -0.76460705180518  6.36444211421142  1.13216226782678
 6 -4.25494505710571  5.36625258195820 -1.22726181768177
 1 -0.45789737463746  0.37824469026903 -0.26554629432943
 1  3.18290565156516 -1.09473761496150 -1.19796988438844
 1  2.54591447274727 -2.77219881648165 -2.55123167026703
 1  1.23442444864486 -3.83768787968797 -2.75586394649465
 1 -5.60488221552155 -2.14553317801780  2.39582012191219
 1  5.07425993849385  0.20307968936894 -1.32758310561056
 1  5.87578614601460  1.60051958005801 -0.91626520112011
 1 -2.89704592229223  0.12794058435844 -0.28282868036804
 1  0.44631186178618  1.75879572347235 -0.59982742824282
 1 -1.28815355115512 -4.63798836933693 -0.93465297509751
 1 -2.38456856785679 -3.60829141554155 -2.05246337943794
 1 -0.73075825572557 -4.13526059485949 -2.72266785608561
 1 -2.34331671797180 -3.86262599329933  0.59800246544655
 1  1.32760358965897 -5.11961465976598 -0.87101249114911
 1  2.86548265266527 -5.16654076097610 -1.84005938783878
 1  4.82122735573557 -0.85975713911391  1.00696043214321
 1  5.70759510491049  0.54823086178618  1.69333713681368
 1  4.17010753635364  4.77069748614861 -0.02816418821882
 1  5.38794188588859  3.69093662686269  0.56997278687869
 1  4.32997002960296  4.36043151525153  1.62270798769877
 1  1.93299407800780  4.89466864426443  1.01558263346335
 1 -7.58136970527053 -2.76736181968197  1.28257952755276
 1 -6.97621168506851 -4.11589797189719  1.78983482388239
 1 -6.95055075207521 -3.83285070117012  0.25024711311131
 1 -6.72365688798880 -0.35858676717672  0.43658165926593
 1 -4.85256422852285  1.34020884178418 -0.28387564886489
 1 -6.04721309870987  1.22575165016502 -1.41635595169517
 1 -4.70120943294329  0.35772593479348 -1.76070283508351
 1 -3.61572355785579  6.16736114121412  0.82973985048505
 1 -4.32194363256326  4.64946727862786  0.75505153145315
 1 -0.14006315081508  6.12970353575357  2.09870971257126
 1 -1.66565267556756  6.81441489618962  1.89727907960796
 1 -0.38636946894689  6.97337962366237  0.26308726582658
 1 -3.55108301530153  5.88275590129013 -1.91948615111511
 1 -5.18027073427343  5.99863297939794 -1.15443532073207
 1 -4.49330280718072  4.35572574287429 -1.61242075007501
 1  3.60337873837384 -4.45132134463446  1.76570735313531
 1  7.95034305890589 -1.75221461046105  1.72541992499250

