%nproc=4
%Mem=2GB
# td=(NStates=1) B3LYP/SVP 

TD

0 1
 8 -4.28055956675668 -4.96840121132113  1.79270329872987
 8  3.01982601130113 -5.14142544934493  1.00485462276228
 8  7.00496680098010 -1.62027929762976  1.65584826432643
 8  3.50948600610061 -3.06317434243424  0.12828948954896
 8  7.70557009360936 -0.32704259935994 -0.09263529622962
 8 -2.93095868196820  2.39643769456946 -0.33664522592259
 7 -0.26241323602360 -0.45556975007501 -0.46910392329233
 7  1.53108160086009  1.80753118561856 -0.29413099069907
 7 -3.37842983198320 -3.23944505750575  0.81175749434943
 7 -0.81441993769377  2.84512566196620 -0.05432927872787
 6  0.56228849314931 -2.31936989538954 -1.45086738183818
 6  0.97768067036704 -1.06381361306131 -0.91087993689369
 6 -0.78787291599160 -2.53962232443244 -1.27462952565257
 6 -1.30557097909791 -1.43051336273627 -0.56350548054805
 6  3.81908036883688  1.55165833233323 -0.17315158195820
 6  2.52506461226123  0.86240806630663 -0.54585877087709
 6  2.18250350055006 -0.40641789968997 -0.83478295289529
 6  3.67442808290829  2.86509631183118  0.07661565186519
 6  1.62849425452545 -3.24987668896890 -2.00447779337934
 6 -5.54073297999800 -2.90736635153515  1.22417968226823
 6 -3.57977183648365 -1.89729470537054  0.33190912271227
 6  2.13688800090009  3.06780677487749  0.04675229862986
 6 -4.99997269356936 -1.65523448734873  0.46523056695670
 6  5.17135239713971  0.77134205110511 -0.29976893559356
 6 -2.65511032673267 -1.07653620902090 -0.27784425822582
 6 -1.57955761786179 -3.72350210331033 -1.74642495929593
 6 -4.33053272167217 -3.76942117391739  1.39106423202320
 6  1.96178731243124 -4.45811483518352 -1.00679990679068
 6  5.40023882628263 -0.17528565206521  0.89344189138914
 6  4.54769083038304  4.01124397369737  0.47887008730873
 6  1.30116879527953  4.15037958825883  0.28679039963996
 6 -6.75079973057306 -3.57999277907791  0.59569863196320
 6 -5.77410699129913 -0.58271405540554  0.16144331123112
 6 -0.10552847214721  4.07531578137814  0.14273608550855
 6 -0.98021311991199  5.23506103980398  0.36032449794979
 6 -2.32890236393639  4.69904140554055  0.21390729672967
 6  3.03586016801680 -4.20186285648565  0.06516420562056
 6 -5.49210291979198  0.58390367896790 -0.63238470327033
 6  6.82964284328433 -0.68702417201720  0.72447334553455
 6 -3.70311785468547  5.22080313881388  0.24321883258326
 6 -2.11882143374337  3.25652061306131 -0.07850362016202
 6 -0.66069666076608  6.62156782678268  0.76925597719772
 6 -4.36686624922492  5.59508546524652 -1.13582267376738
 1 -0.27444902980298  0.43252011781178 -0.18522826252625
 1  3.00089745074507 -0.99290743194319 -0.93245333273327
 1  2.65083496479648 -2.80070166676668 -2.30391693879388
 1  1.18273928012801 -3.55951006190619 -2.92871123122312
 1 -5.76261798909891 -2.47350597529753  2.42625316521652
 1  5.32060457295730  0.32115149654966 -1.33320366766677
 1  5.84200276767677  1.66249577767777 -0.32706628122812
 1 -3.01095731343134  0.03373116341634 -0.43607400490049
 1  0.49307653825383  1.94485432933293 -0.70183762926293
 1 -1.41076581238124 -4.56514108460846 -1.16829633943394
 1 -2.49266937793779 -3.44131471787179 -1.95478361146115
 1 -1.28486366626663 -4.04949201800180 -2.83127871717172
 1 -2.35699808610861 -3.47718744944494  0.93188585378538
 1  1.02960378967897 -4.64144684298430 -0.56088147804780
 1  2.42489859425943 -5.35513962086209 -1.55357073897390
 1  4.80255548854885 -1.13156431983198  0.84574431053105
 1  5.27014135953595  0.38150418911891  1.95729353245325
 1  4.73782430803080  4.79964038043804 -0.36601797359736
 1  5.64287737943794  3.78612614581458  0.80098588818882
 1  4.08723575617562  4.38328380048005  1.43651936883688
 1  1.65965674427443  5.17951712911291  0.53147422262226
 1 -7.63608517681768 -3.08949403290329  0.52027329692969
 1 -7.11979604350435 -4.53616999909991  1.06446228662866
 1 -6.40997669466947 -3.99826724282428 -0.46228414001400
 1 -6.67790231253125 -0.56875778427843  0.63230123122312
 1 -4.90476944904491  1.35173999489949 -0.14516177747775
 1 -6.51064944234423  0.89333840884088 -0.96584090019002
 1 -4.83592290429043  0.30923108530853 -1.47657442224222
 1 -3.75371735723572  6.03412781788179  0.97561443794379
 1 -4.38639007720772  4.30243257515752  0.50862688898890
 1  0.06176703220322  6.67427799319932  1.56475631723172
 1 -1.63285939623962  7.21627508220822  0.85010436213621
 1 -0.17624845684568  7.07584987068707  0.05673663076308
 1 -3.71887979497950  6.36269389508951 -1.94230843334333
 1 -5.42914562176218  5.83590670677068 -1.16769664686469
 1 -4.37308078497850  4.70190036033603 -1.65072458045805
 1  3.67157555805581 -4.73451966446645  1.58225900830083
 1  7.98395642024202 -1.84929431843184  1.51018840184018

