%nproc=4
%Mem=2GB
# td=(NStates=1) B3LYP/SVP 

TD

0 1
 8 -4.27264877567757 -4.74113848504851  2.05365939433943
 8  2.71771580028003 -4.67994930173017  1.26724086138614
 8  7.14414071837184 -1.33153042274227  1.94563724322432
 8  3.89129418691869 -3.25492351735174 -0.10685402480248
 8  7.59276881348135 -0.45458535363536 -0.12557859055906
 8 -3.01704729082908  2.36615466626663 -0.73687524892489
 7 -0.30266726142614 -0.46931112421242 -0.84091110401040
 7  1.57145563826383  1.86626705920592 -0.46336791439144
 7 -3.28311030003000 -3.07645875887589  0.87646396499650
 7 -0.85260375607561  2.77047819721972 -0.20272411821182
 6  0.68629089338934 -2.35769372777278 -1.49009130423042
 6  0.98090099239924 -1.07724495619562 -1.04855370427043
 6 -0.68589271797180 -2.61692005420542 -1.38639070177018
 6 -1.22386280828083 -1.40173048444844 -0.75857498749875
 6  3.79187764856486  1.52160532703270 -0.38327259405941
 6  2.55736784258426  0.86395822132213 -0.67580176517652
 6  2.18302355255526 -0.47465472337234 -1.08393786838684
 6  3.50911155125513  2.83414321652165  0.13854184448445
 6  1.67677908300830 -3.40272197349735 -2.06568391399140
 6 -5.56026493319332 -2.75979159405941  1.40608787308731
 6 -3.52859671897190 -1.83912888878888  0.30906683848385
 6  2.08385269736974  3.00970096429643  0.02211983538354
 6 -4.94352704900490 -1.58466743064306  0.44856890079008
 6  5.13398866076608  0.76679159605961 -0.36262522122212
 6 -2.56454126982698 -1.06739529492949 -0.47559403320332
 6 -1.44944460656066 -3.86613636673667 -1.78817913471347
 6 -4.35720538893889 -3.69557378917892  1.48501362696270
 6  1.97724885858586 -4.59060808450845 -1.02578180498050
 6  5.37311611401140 -0.20362848634863  0.77917046424642
 6  4.41897795909591  3.81119396869687  0.75139734003400
 6  1.24704338273827  4.12881743204320  0.53468518911891
 6 -6.76573122372237 -3.47771255105511  0.74504356645665
 6 -5.75470505110511 -0.57781356535654  0.09075624252425
 6 -0.08206612591259  3.92751100090009  0.30822263416342
 6 -1.02174727332733  5.02236977067707  0.58728719421942
 6 -2.35508498219822  4.59279078047805  0.27465337133713
 6  2.88623520552055 -3.96396906710671  0.10018770797080
 6 -5.51853556305631  0.73473876247625 -0.68761022582258
 6  6.87013689268927 -0.60427589718972  0.74827572577258
 6 -3.69939748264826  5.26502756125613  0.33167767846785
 6 -2.15202475407541  3.07650261126113 -0.24465023482348
 6 -0.63042363346335  6.39287495749575  1.17707675927593
 6 -4.36947651025103  5.56056201290129 -0.96990608210821
 1 -0.38330991589159  0.29449631543154 -0.24684442414241
 1  3.06369373037304 -1.23171131233123 -1.03417350475047
 1  2.59411929322932 -2.79379097569757 -2.25339188628863
 1  1.33228423462346 -3.97323143404340 -3.02916127622762
 1 -5.69786151345135 -2.38862748744874  2.45710625052505
 1  5.28119063156316  0.20080946234623 -1.33686403370337
 1  5.94363293069307  1.62169169726973 -0.45274884948495
 1 -2.94498071577158  0.01510930123012 -0.63508390589059
 1  0.67347457805781  1.98800864476448 -0.81778922442244
 1 -1.57016175197520 -4.68536310681068 -0.88602811261126
 1 -2.45736584758476 -3.72936352275228 -2.09374750785079
 1 -0.87830301020102 -4.49303637243724 -2.60920650995100
 1 -2.33753613991399 -3.40095982668267  0.73424608980898
 1  1.16497732703270 -5.02131482978298 -0.47750314021402
 1  2.53806991139114 -5.38043215011501 -1.45054043594359
 1  4.84142937593759 -1.23702486588659  0.46561629772977
 1  4.86035038043804  0.17011305000500  1.77470527362736
 1  4.46661718731873  4.73651406780678  0.10335896409641
 1  5.48307139883988  3.31796933013301  0.89627541714171
 1  4.04832186478648  4.25934140624063  1.80066578347835
 1  1.68089886848685  5.03809298669867  0.91068214341434
 1 -7.58677024532453 -2.72581766526653  0.44029529912991
 1 -6.86861092499250 -4.17618400050005  1.43405924632463
 1 -6.40179587658766 -3.90127754385439 -0.11191910351035
 1 -6.92083660596060 -0.84289519801980  0.43152115321532
 1 -4.84104307640764  1.35341016191619 -0.10207746904690
 1 -6.49899827722772  1.21785086008601 -1.14391870797080
 1 -4.88168748074807  0.45800596279628 -1.67921468626863
 1 -3.73503548904890  6.18569297439744  0.72674955145514
 1 -4.39305074327433  4.51273360526053  0.84990101640164
 1 -0.18283742824282  6.26651721712171  2.21033087468747
 1 -1.62947905820582  7.01572502720272  1.15110446214622
 1  0.16387555555556  6.90744303000300  0.43544450155015
 1 -3.74310221722172  6.28344597029703 -1.70406460896090
 1 -5.41882458965897  5.85770888698870 -0.87469734693469
 1 -4.38543202010201  4.66727689798980 -1.68705821382138
 1  3.40877927842784 -4.25237144964496  1.95001578397840
 1  8.04631265586559 -1.71851124012401  1.84295167816782

