%nproc=4
%Mem=2GB
# td=(NStates=1) B3LYP/SVP 

TD

0 1
 8 -4.30576208700870 -4.78918328952895  1.82720674907491
 8  3.14351838053805 -4.81157246404640  1.15121925922592
 8  7.05498180248025 -1.37655492519252  1.90456313581358
 8  3.97116217371737 -3.04167219221922  0.03148980958096
 8  7.39569910651065 -0.88915881098110 -0.31826785948595
 8 -3.03426901300130  2.39349740054005 -0.36076763816382
 7 -0.30436743144314 -0.46014020712071 -0.69267628052805
 7  1.55637413011301  1.87793822632263 -0.37944952255226
 7 -3.36370835983598 -3.13206431943194  0.68950526912691
 7 -0.79732822852285  2.93972512191219 -0.16923076887689
 6  0.68606087038704 -2.41324928332833 -1.30260255535554
 6  0.89174207650765 -1.04457168886889 -0.99059790869087
 6 -0.74482861156116 -2.70668903110311 -1.25679774247425
 6 -1.30136055805581 -1.44627493889389 -0.75229435943594
 6  3.72176063686369  1.53988715521552 -0.26242050885089
 6  2.48960106590659  0.85713753925393 -0.51196538153815
 6  2.15869111931193 -0.45692295019502 -0.93718319291929
 6  3.52383302340234  2.88175797799780  0.03644163446345
 6  1.65768717381738 -3.41138283958396 -1.91822916851685
 6 -5.46720562726273 -2.70924653955396  1.34485174947495
 6 -3.70026388568857 -1.92693766966697  0.08142407420742
 6  1.99215352745275  2.98437843204320  0.10469809320932
 6 -5.06044874117412 -1.58900786468647  0.40788483238324
 6  5.06634189608961  0.75897081398140 -0.39487844654465
 6 -2.65671048674868 -1.07297585298530 -0.38841531533153
 6 -1.46148581068107 -3.87139689278928 -1.79124944174417
 6 -4.34339400780078 -3.74707893969397  1.30230535613561
 6  2.17832896659666 -4.41274029772977 -0.99287851465147
 6  5.39868867126713 -0.00326845034503  0.86279882708271
 6  4.50369643094309  3.89990283958396  0.58390059035904
 6  1.27505618401840  4.01424597489749  0.32678439903990
 6 -6.80311496209621 -3.43693847364736  0.92866192829283
 6 -5.85829541014101 -0.65456124012401 -0.00299313241324
 6 -0.06589450875088  3.97824607440744  0.27809962186219
 6 -1.06598169676968  5.12849038273827  0.54820328582858
 6 -2.32705217891789  4.59535103650365  0.36989289528953
 6  3.13827040904090 -3.95525819601960  0.09696738593859
 6 -5.53231694119412  0.49495478407841 -0.89564102890289
 6  6.67207708670867 -0.80731620122012  0.71524242244224
 6 -3.59438698159816  5.45254631313131  0.44499901060106
 6 -2.14738429002900  3.17481244224422 -0.12337810761076
 6 -0.68926951805181  6.49213488348835  0.99413846544654
 6 -4.25368493109311  5.53974993169317 -1.08710780228023
 1 -0.51423300820082  0.55046191199120 -0.33260300000000
 1  3.16930429142914 -1.08526666786679 -1.04468455585559
 1  2.68074795609561 -3.00746234283428 -2.22215876297630
 1  1.05683668986899 -4.02599671057106 -2.77565592569257
 1 -5.50856258355836 -2.32413103780378  2.36096663656366
 1  4.93314582708271  0.15523490489049 -1.30419076637664
 1  6.06333490089009  1.54584411251125 -0.71486506110611
 1 -2.89418563626363  0.02696048634864 -0.13139353685369
 1  0.46977420802080  1.94256410031003 -0.51057850335033
 1 -1.38476321212121 -4.71479605010501 -0.94662417221722
 1 -2.48031814281428 -3.49918050445044 -1.90292842594259
 1 -0.81580676057606 -4.19152622142214 -2.57546313561356
 1 -2.51328371467147 -3.65756548724872  0.68787145234523
 1  1.49950077937794 -4.88438113641364 -0.63813920382038
 1  2.75615171957196 -5.23706781368137 -1.48915429732973
 1  4.49815504850485 -0.73400456385639  1.23158289438944
 1  5.58313265866587  0.99294533323332  1.71235903900390
 1  4.35740626622662  4.89128954535454  0.13332196039604
 1  5.51219431113111  3.68193572677268  0.42582837243724
 1  4.44513154575458  4.34812028412841  1.66684240114011
 1  1.71777255585559  4.95341451885189  0.77540861606161
 1 -7.63227479577958 -2.86429151265127  1.03708497809781
 1 -6.81140520442044 -4.40170655275528  1.55849168956896
 1 -6.70200589758976 -3.72001941804180 -0.05583349494949
 1 -6.94522904520452 -0.66856776527653  0.58432643374337
 1 -4.76270524262426  1.27585240614061 -0.57488474977498
 1 -6.55940431783178  0.88605768076808 -1.26757107320732
 1 -5.00138945094509  0.11770193239324 -1.86460322512251
 1 -3.32519450495049  6.45194960006001  0.86073294979498
 1 -4.20932237043704  4.85165749764977  1.01451747804780
 1  0.22089294479448  6.39029959535953  1.73750359195920
 1 -1.54482059235924  7.15309876457646  1.36009536123612
 1 -0.06071690369037  7.07784006970697  0.11443240034003
 1 -3.60007791479148  6.42045967166717 -1.53910811331133
 1 -5.29595230243024  5.86565968206821 -1.36191606880688
 1 -4.17668114501450  4.75686585688569 -1.83960346834683
 1  3.55028342884288 -4.09423563606361  1.73013379577958
 1  7.91438946354635 -1.73485287428743  1.69744712771277

