%nproc=4
%Mem=2GB
# td=(NStates=1) B3LYP/SVP 

TD

0 1
 8 -4.30887239803980 -4.72686705790579  1.85662969136914
 8  3.05194922362236 -4.81359266606661  1.08918305560556
 8  6.96543284758476 -1.66042331203120  1.81263394289429
 8  3.84894995249525 -3.02423044804480 -0.00725406480648
 8  7.58336787338734 -0.30698059315932  0.05519948724872
 8 -3.06096168226823  2.37487553835384 -0.36128769016902
 7 -0.28671566626663 -0.45428962206221 -0.60447746064606
 7  1.58361685438544  1.83652408490849 -0.38362994059406
 7 -3.37733972297230 -3.14174528752875  0.58798511711171
 7 -0.84080257595760  2.84008515791579  0.04134028822882
 6  0.62085434973497 -2.41350930933093 -1.37573986908691
 6  0.94901780408041 -1.03797102880288 -1.00103895279528
 6 -0.74685881458146 -2.53087144934493 -1.26225828852885
 6 -1.29410983298330 -1.33791410281028 -0.77774690469047
 6  3.84680314111411  1.54525769226923 -0.23953822062206
 6  2.48047015281528  0.82334415991599 -0.53080726572657
 6  2.17196244644464 -0.49226648454845 -0.84723419801980
 6  3.50421106120612  2.75710551275127  0.04803279357936
 6  1.66801820692069 -3.47583928522852 -1.92937028262826
 6 -5.53740264696470 -2.83264887978798  1.40318758305831
 6 -3.56162002130213 -1.85474044994499  0.15396132793279
 6  2.14864917701770  2.99166916111611  0.02232985638564
 6 -5.02470516681668 -1.63267223112311  0.52693673757376
 6  5.14403966586659  0.74421933883388 -0.43202216091609
 6 -2.65007982368237 -0.94365292069207 -0.34604107790779
 6 -1.44362402450245 -3.84629438253825 -1.78932924972497
 6 -4.36369603800380 -3.63751798359836  1.37571269686969
 6  2.19058019171917 -4.50766979067907 -1.02453167996800
 6  5.26157495989599 -0.22999112261226  0.71665421262126
 6  4.45067112841284  3.96020887018702  0.39122132243224
 6  1.29108778717872  4.06898144844484  0.34092581318132
 6 -6.87912256285629 -3.47522230203020  0.85421448354835
 6 -5.72719229982998 -0.61429721372137  0.16241340824082
 6 -0.14584250355035  4.01223947374737  0.20724253615362
 6 -1.10617571617162  5.11943947764776  0.49362782828283
 6 -2.28198767246725  4.64225572697270  0.25747165316532
 6  3.10779736173617 -4.01428409860986 -0.00228253905391
 6 -5.45571928142814  0.56956224482448 -0.73858532333233
 6  6.72416229522952 -0.73259872947295  0.78337923612361
 6 -3.71079862276228  5.20439149764977  0.30494500520052
 6 -2.11269082068207  3.15785074607461 -0.10030580038004
 6 -0.73698428952895  6.50600627062706  0.92957200880088
 6 -4.19549911251125  5.52575853255325 -1.09621871337134
 1 -0.43407499239924  0.56000286608661 -0.23834357405741
 1  3.02733009400940 -1.17483562476248 -0.95842592999300
 1  2.34498437973797 -2.81949354595460 -2.31762830993099
 1  1.21698270447045 -3.94379849074908 -2.74443280338034
 1 -5.64844657195720 -2.57185581028103  2.37325786568657
 1  5.18675118761876  0.30236961836184 -1.40063041034103
 1  5.97179574697470  1.36956648474847 -0.57039061366137
 1 -2.91152737043704  0.04939272957296 -0.49606000350035
 1  0.62280951155116  1.83732357625763 -0.55758320382038
 1 -1.65984071987199 -4.80017458795880 -1.21864137393739
 1 -2.42671278227823 -3.48426901330133 -2.44729286238624
 1 -0.84011919181918 -3.98347541634163 -2.71256684598460
 1 -2.38976136243624 -3.21048077877788  0.76668933413341
 1  1.16204703400340 -4.85878857715772 -0.58963435333533
 1  2.63787989238924 -5.26720082698270 -1.62661804370437
 1  4.55504073707371 -0.99576073947395  0.96204594069407
 1  5.14253859925993  0.41676771547155  1.72140994409441
 1  4.37418794439444  4.81668208460846 -0.32561393319332
 1  5.40377346904691  3.59261679487949  0.47077286688669
 1  4.20083711631163  4.35573104520452  1.53354907180718
 1  1.85002578117812  5.15496467386739  0.73910498569857
 1 -7.65572714101410 -2.81024610811081  1.10932220182018
 1 -6.96708077197720 -4.51747812991299  1.29768560896090
 1 -6.71569726672667 -3.83204062016202 -0.27596550815082
 1 -6.68839336163616 -0.48791970047005  0.71190919201920
 1 -4.94871384348435  1.59836465736574 -0.23134039533953
 1 -6.39540791819182  1.01233030803080 -1.10531484758476
 1 -4.92129144114411  0.22301246344634 -1.77372413721372
 1 -3.60074205970597  6.13273767886789  0.88093496999700
 1 -4.35703714191419  4.52931526342634  0.89596562286229
 1 -0.42790193469347  6.29530009540954  1.97608745034503
 1 -1.53700981128113  7.17344079877988  0.68778813051305
 1  0.19079824782478  6.95216750245025  0.39959091619162
 1 -3.42363027002700  6.15449307500750 -1.73903810631063
 1 -5.36246895409541  5.86969008510851 -1.05650552775278
 1 -4.26930040694070  4.70551072137214 -1.83428293629363
 1  3.61145954645465 -4.33513972647265  1.71789257165717
 1  8.05352337693769 -1.86471586058606  1.93262064506451

