%nproc=4
%Mem=2GB
# td=(NStates=1) B3LYP/SVP 

TD

0 1
 8 -4.35875738653865 -4.90387475867587  1.62572660106011
 8  3.00649467816782 -4.94739604640464  1.07949208650865
 8  7.00875718001800 -1.44810207990799  1.90143282278228
 8  3.88253331083108 -3.24775280028003 -0.10711405080508
 8  7.53412294889489 -0.49825972107211  0.00280424772477
 8 -3.04092967906791  2.33497154795480 -0.30449201060106
 7 -0.27749474417442 -0.52077627072707 -0.50406741964196
 7  1.51172966566657  1.80827125962596 -0.29808138573857
 7 -3.27548953795380 -3.14751586458646  0.62268858745875
 7 -0.76796529222922  2.86182733213321  0.02941909610961
 6  0.65121738603860 -2.32972093049305 -1.43647594269427
 6  0.97907080938094 -1.00535776747675 -0.91452030093009
 6 -0.73845797449745 -2.62194055625563 -1.27514957765777
 6 -1.30289071107111 -1.37936824822482 -0.68796792679268
 6  3.86268472927293  1.46394956145615 -0.30328459525953
 6  2.45073717951795  0.92098392389239 -0.50472465746575
 6  2.27180243044304 -0.46375363326333 -0.73627310191019
 6  3.54086472657266  2.85589539173917 -0.01010302000200
 6  1.67479888498850 -3.22883458475848 -1.95412275787579
 6 -5.45235414211421 -2.75902151705171  1.42997026132613
 6 -3.56398025732573 -1.84756973287329  0.18037396919692
 6  2.02510682278228  3.07030702490249 -0.03456583318332
 6 -4.96911960826083 -1.63832279617962  0.44991903580358
 6  5.16102136403640  0.77981289818982 -0.37783674237424
 6 -2.57064187988799 -1.04934348974897 -0.34389086288629
 6 -1.48511817391739 -3.74938469156916 -1.75353567036704
 6 -4.32470213861386 -3.71263549534954  1.27070219581958
 6  1.99461059475948 -4.45404442814281 -1.06070529732973
 6  5.44254305670567 -0.13876199969997  0.80537308450845
 6  4.47574363566357  3.85848869816982  0.32539473977398
 6  1.19792847124712  4.11925647594759  0.30170189078908
 6 -6.78706335693569 -3.39239401920192  0.89366842894289
 6 -5.78527810841084 -0.63132891689169  0.12446961386139
 6 -0.18475639493949  4.01295954575458  0.30292210411041
 6 -1.07999309790979  5.18623615731573  0.38212667816782
 6 -2.33131260496050  4.55781728312831  0.26732263826383
 6  3.05514209620962 -4.11760443064306  0.00558824802480
 6 -5.51101481098110  0.64077936653665 -0.55521698649865
 6  6.75527540654065 -0.77097256685669  0.89490038823882
 6 -3.69790733363336  5.17548860736074  0.27451196189619
 6 -2.21665121672167  3.21024598559856 -0.14778054785479
 6 -0.70123071417142  6.54381005100510  0.81113016461646
 6 -4.26598616121612  5.57485344204420 -1.10460955245525
 1 -0.29859144404440  0.35783264906491  0.16760702100210
 1  3.21985934693469 -1.02229037023702 -0.91089117651765
 1  2.40783066436644 -2.84316591319132 -2.73353990109011
 1  1.08649965616562 -3.77088119901990 -2.62223058315832
 1 -5.52069379667967 -2.48275690039004  2.36170671057106
 1  5.49318183068307  0.27698708010801 -1.32493284058406
 1  5.94116268366837  1.62566209430943 -0.47150072467247
 1 -2.62088830653065  0.07058484878488 -0.41704210171017
 1  0.45104233483348  1.79582942684268 -0.48320576607661
 1 -1.56587132293229 -4.60042461296130 -0.87168667846785
 1 -2.53020313131313 -3.37319790619062 -2.01126926002600
 1 -0.96499167906791 -4.11839890869087 -2.72253784308431
 1 -2.37496988328833 -3.62271200190019  0.59770243544354
 1  0.97313814311431 -4.91179387768777 -0.47960335023502
 1  2.37033313771377 -5.28958306520652 -1.67258264016402
 1  4.67764299729973 -1.00820198359836  0.84034377047705
 1  5.16428077347735  0.27619365806581  1.76039384248425
 1  4.33883440904090  4.71609202560256 -0.33652502430243
 1  5.54648774047405  3.63756128932893  0.14202999259926
 1  4.73068010061006  4.21367683978398  1.31923764066407
 1  1.80223100170017  5.15800497789779  0.50267134233423
 1 -7.70200176847685 -2.54669975347535  0.91884315391539
 1 -6.99178324222422 -4.33114949704970  1.49192503290329
 1 -6.68745444244424 -3.51399881598160 -0.16103401500150
 1 -6.83035755805581 -0.44186509500950  0.68983698479848
 1 -5.09804877697770  1.53745856675668  0.01241398009801
 1 -6.38839721712171  1.16024509950995 -1.10704502060206
 1 -4.79657896989699  0.43507366956696 -1.34311107590759
 1 -3.74052603810381  6.09828423352335  0.73138001450145
 1 -4.47574901310131  4.58949128102810  0.72694872117212
 1 -0.27085623012301  6.59585015041504  1.65041488308831
 1 -1.63250936123612  7.24205766046605  0.98960831253125
 1 -0.06770760276028  6.97141942764276 -0.04086312921292
 1 -3.53769167616762  6.36469409510951 -1.63902810531053
 1 -5.45170787798780  6.04784790089009 -1.07437731493149
 1 -4.46210968786879  4.58822899319932 -1.82614212221222
 1  3.51529993049305 -4.46552276477648  1.76631741414141
 1  7.78381640624062 -1.97127651665167  1.75001238423842

