%nproc=4
%Mem=2GB
# td=(NStates=1) B3LYP/SVP 

TD

0 1
 8 -4.22214372517252 -4.78064243544354  1.91777580598060
 8  2.85329935863586 -5.10179148594859  0.85370950825083
 8  6.96961326562656 -1.42662993269327  1.99270194969497
 8  3.76470152765277 -3.16162418741874 -0.06458979837984
 8  7.68707824442444 -0.42172206730673  0.10848481578158
 8 -2.95305089118912  2.22763081388139 -0.45925748714871
 7 -0.23626062076208 -0.51565575867587 -0.50015702860286
 7  1.63292178487849  1.86508694119412 -0.43775535313531
 7 -3.21069305830583 -3.05146625962596  0.72536885548555
 7 -0.75164366006601  2.82781393079308 -0.13066691249125
 6  0.59486175047505 -2.38116607500750 -1.52044433953395
 6  0.93760666296630 -1.10144737643764 -1.00279912881288
 6 -0.74942907160716 -2.55321368356836 -1.17246930963096
 6 -1.25594601660166 -1.37225753715372 -0.61198032803280
 6  3.83830229102910  1.46178934543454 -0.25540980778078
 6  2.56458856465647  0.90764258975898 -0.61286547154715
 6  2.31653690389039 -0.50231748964896 -0.94862433703370
 6  3.52883352345235  2.84312411461146  0.18011600190019
 6  1.52166357145715 -3.30261196249625 -2.13290063566357
 6 -5.41889079577958 -2.67266288118812  1.32737000130013
 6 -3.60556441574157 -1.81760673657366  0.33741967376738
 6  2.20265457755776  3.01678167236724  0.08617624102410
 6 -4.98079077537754 -1.53898286218622  0.45742978687869
 6  5.13592885478548  0.78640355725573 -0.31698065676568
 6 -2.57645246094609 -0.97070562596260 -0.29003547734773
 6 -1.45624528662866 -3.77361711481148 -1.79765008180818
 6 -4.30359002740274 -3.70401463326333  1.46315144074407
 6  1.90333146684668 -4.39690871457146 -1.26447567436744
 6  5.45341414381438 -0.19565768926893  0.87883043024302
 6  4.30817687898790  4.02071492079208  0.43952615291529
 6  1.31024970337034  4.17507205750575  0.30435215581558
 6 -6.85178982958296 -3.35086986678668  1.00891995409541
 6 -5.77065664626463 -0.58987477147715  0.06782394929493
 6 -0.16118403770377  4.05632388218822  0.21399321122112
 6 -1.17496259485949  5.04697223092309  0.42966143164316
 6 -2.31513098679868  4.53831533293329  0.23747965396540
 6  2.94737131913191 -4.10012268246825 -0.10616292709271
 6 -5.48042175167517  0.60031532013201 -0.84243570837084
 6  6.81239111811181 -0.68385385498550  0.89725062326233
 6 -3.74084162706271  5.20182124062406  0.32623713441344
 6 -2.14062361396140  3.08533349434944  0.01473570377038
 6 -0.85624621572157  6.52061773177318  0.88068712031203
 6 -4.27348691129113  5.32953891059106 -1.17237632913291
 1 -0.20005159005901  0.49151601740174 -0.26570631033103
 1  3.07885524652465 -1.19908805000500 -0.90547063446345
 1  2.42451233253325 -2.68441003760376 -2.52799934703470
 1  1.11368237443744 -3.97798190909091 -3.00982934303430
 1 -5.64273600090009 -2.33179180388039  2.36476701660166
 1  5.00441295379538  0.30952033343334 -1.26710705800580
 1  6.09517808520852  1.61188071617162 -0.20849442404240
 1 -2.89387560526053 -0.03763597329733 -0.43401379887989
 1  0.67262449304931  1.73140298419842 -0.56316376187619
 1 -1.44964970077008 -4.70189475997600 -1.26691620142014
 1 -2.66060617161716 -3.73586417281728 -1.82729086218622
 1 -1.09255443534353 -4.11278834763476 -2.76768235753575
 1 -2.24678706500650 -3.50133986468647  0.79185185038504
 1  1.03128395769577 -4.62553525182518 -0.83687907780778
 1  2.44527063146315 -5.17113122002200 -1.93732911481148
 1  4.68581381438144 -1.20695185858586  0.79201893799380
 1  5.25724006940694  0.25798183688369  1.78045584868487
 1  4.13733425902590  5.06514693109311 -0.16061743354335
 1  5.29043213491349  3.66113364656466  0.21330712031203
 1  4.44838187078708  4.33770924302430  1.68772448934893
 1  1.75483626222622  5.25728490589059  0.73540461566157
 1 -7.77813938223822 -2.74750983448345  1.27417868746875
 1 -6.78034209810981 -4.30153653575358  1.61930777117712
 1 -6.70836653365336 -3.60322773887389  0.03340542894289
 1 -6.76318084038404 -0.60649155765577  0.33842184328433
 1 -4.83910288238824  1.41766658755876 -0.44222148344834
 1 -6.33091146854686  1.37291636663666 -1.09244356045605
 1 -4.97502681468147  0.42212237443744 -1.69262602740274
 1 -3.56463844934493  6.26233063816382  0.74582145864587
 1 -4.29115055325533  4.50775310721072  0.88106413271327
 1 -0.61404054855486  6.20717128252825  1.96525636723672
 1 -1.74818092839284  7.18679213391339  0.76780613231323
 1 -0.07954878687869  7.05202748844884  0.25246620372037
 1 -3.57358526552655  6.18175580128013 -1.54441864436444
 1 -5.36672938013801  5.58810192629263 -1.10377025422542
 1 -4.03758723562356  4.51346151645165 -1.83485299329933
 1  3.63946234673467 -5.01285749824982  1.53037381978198
 1  7.91785981058106 -1.72578196719672  1.97687507050705

