%nproc=4
%Mem=2GB
# td=(NStates=1) B3LYP/SVP 

TD

0 1
 8 -4.24074558535854 -4.76750112131213  1.92048607700770
 8  2.90524455315532 -4.86431773857386  1.07190132743274
 8  7.05121142544254 -1.48167543724372  1.93454613411341
 8  3.97140219771977 -3.26419444444444 -0.12514585398540
 8  7.63958349494950 -0.44962485758576  0.05397936523652
 8 -3.02502808890889  2.24849290009001 -0.46522808420842
 7 -0.32858985368537 -0.44235842894289 -0.65451246414641
 7  1.53819231193119  1.79973040554055 -0.42451402900290
 7 -3.22614460346035 -3.03703481648165  0.65573189178918
 7 -0.82001049674968  2.75166631603160 -0.10841468726873
 6  0.63445570987099 -2.36676463486349 -1.45025732083208
 6  0.91657455975598 -0.99699693139314 -1.09289813871387
 6 -0.72656678537854 -2.52552091429143 -1.19599166186619
 6 -1.26493691569157 -1.37082739413941 -0.67333646364636
 6  3.74145260606061  1.53964713121312 -0.29636390319032
 6  2.48146025182518  0.93643546904690 -0.55784996999700
 6  2.24981023122312 -0.31340859875988 -0.96438591319132
 6  3.50819145924592  2.79531933413341  0.20996898719872
 6  1.56740814591459 -3.34054575587559 -2.01109845544554
 6 -5.55335424212421 -2.67013262816282  1.27475473977398
 6 -3.62636649594960 -1.80962593849385  0.17990392219222
 6  2.04546885898590  3.07624761896190  0.03782140554055
 6 -4.99110180648065 -1.57557652155216  0.33162720662066
 6  5.04166942884288  0.73641855875588 -0.39205816451645
 6 -2.58341315701570 -0.94904345974597 -0.35314178797880
 6 -1.38854851695170 -3.78719847294729 -1.56732704950495
 6 -4.30017968636864 -3.68146237803780  1.32728785438544
 6  2.01044217791779 -4.42705172887289 -1.09169839663966
 6  5.38967777017702 -0.21205932943294  0.73411595879588
 6  4.60108616991699  3.80533338263826  0.57747994829483
 6  1.19918859725973  4.05906045634563  0.35658737933793
 6 -6.85033968456846 -3.29595437523752  0.98225728782878
 6 -5.83902348294829 -0.56648243224322  0.05982314921492
 6 -0.18965688498850  3.96305455525553  0.23392520442044
 6 -1.10021512011201  5.08398593229323  0.51537000250025
 6 -2.37054652835284  4.51192269366937  0.30530643664366
 6  3.04648123012301 -3.95871854205421 -0.06339865066507
 6 -5.39115282478248  0.54435972457246 -0.78179964476448
 6  6.86269614861486 -0.65661113071307  0.80333123132313
 6 -3.67038458135814  5.17312837133713  0.40544505520552
 6 -2.19630918251825  3.05864082508251 -0.12309807960796
 6 -0.70456104720472  6.43190886088609  0.80336938853885
 6 -4.32963252585259  5.41805776247625 -0.99187827932793
 1 -0.05999758465847  0.49309617541754 -0.25338507820782
 1  3.15300266126613 -1.04649279047905 -1.06102619001900
 1  2.60199008030803 -2.79138073467347 -2.37916446354635
 1  1.20463146934693 -3.91336544744474 -2.96157451755175
 1 -5.42713444074407 -2.40573919861986  2.32929346924692
 1  5.20212272477248 -0.00833145174517 -1.27194754205421
 1  5.86276484388439  1.32229175727573 -0.40336391099110
 1 -2.88217443514351  0.09329712001200 -0.38509890739074
 1  0.45143237383738  1.83699354325433 -0.35287273277328
 1 -1.55528026382638 -4.50095466596660 -0.64745425522552
 1 -2.59525963696370 -3.75730631703170 -1.78088622172217
 1 -0.92634781468147 -4.37725479427943 -2.43633922322232
 1 -2.31802418871887 -3.54139387008701  0.56225889108911
 1  1.16503733303330 -4.97870056835684 -0.57836322622262
 1  2.60921702610261 -5.13850795769577 -1.80162554445445
 1  4.47425265826583 -0.83813497689769  0.77699743584358
 1  5.12042638803880  0.34830086878688  1.79375717881788
 1  4.45974650025003  4.54455487188719 -0.26019739153915
 1  5.78091118281828  3.59477701090109  0.41404719431943
 1  4.44346137873787  4.26196166826683  1.54330004690469
 1  1.72360313891389  4.95183436083608  0.63998507370737
 1 -7.81936350465046 -2.53607869136914  1.02379364896490
 1 -6.98602266616662 -4.28706508860886  1.58115395579558
 1 -6.76081177817782 -3.55885330143014 -0.11327923952395
 1 -6.77420194249425 -0.45084599309931  0.78275627672767
 1 -4.82510148224822  1.32177699859986 -0.10694795609561
 1 -6.21155953335334  1.12455153015302 -1.37153146924692
 1 -4.47005631763176  0.24321448364836 -1.42839960476048
 1 -3.63857584308431  6.04592899799980  0.94825170167017
 1 -4.31942338053805  4.52019435133513  0.82242826912691
 1 -0.07692683718372  6.55959652505251  1.79909975157516
 1 -1.74346045634563  7.00878433313331  0.73664301600160
 1 -0.04447527952795  6.83721600730073  0.12091304840484
 1 -3.81184909190919  6.18018564426443 -1.65409961246125
 1 -5.26504921212121  5.78223133923392 -1.16796667386739
 1 -4.50269374627463  4.62698286858686 -1.70733024102410
 1  3.55000340084008 -4.70757697019702  1.87938872127213
 1  7.92867089168917 -1.91613100210021  1.93558094109411

