%nproc=4
%Mem=2GB
# td=(NStates=1) B3LYP/SVP 

TD

0 1
 8 -4.17804931573157 -4.88491286248625  1.77750177857786
 8  3.17975200390039 -4.88099940674067  1.18485262256226
 8  6.99373567786779 -1.57123439313931  1.73706638613861
 8  3.77297235473547 -3.18395642064206 -0.13755709510951
 8  7.72721225782578 -0.22330222532253  0.06039000630063
 8 -3.07450303640364  2.42701075187519 -0.47441900330033
 7 -0.34002099679968 -0.46879107220722 -0.57336434933493
 7  1.52620111281128  1.71632206470647 -0.17212879047905
 7 -3.29676166516652 -3.23234434743474  0.48769508810881
 7 -0.81870036573657  2.94137528692869 -0.12057590339034
 6  0.54685694999500 -2.42309026742674 -1.37383967906791
 6  0.84931783408341 -1.12135936763676 -0.96701555045505
 6 -0.85000912961296 -2.60383874607461 -1.24724678737874
 6 -1.40288071007101 -1.33800411181118 -0.85272440244024
 6  3.80550901170117  1.53531669816982 -0.26091035783578
 6  2.43602570837084  0.79540136563656 -0.45842002700270
 6  2.25635088528853 -0.52718997689769 -0.95184465906591
 6  3.48579922002200  2.77923772597260  0.11250924122412
 6  1.49443084818482 -3.45393709500950 -1.90213755935594
 6 -5.44145305200520 -2.91726734163416  1.33832109640964
 6 -3.62923678297830 -1.90363533943394  0.20405633743374
 6  2.10818513061306  2.99841983618362  0.20157778117812
 6 -4.99750244654465 -1.64121308520852  0.63928797269727
 6  5.05234049594960  0.77449236613661 -0.41108006670667
 6 -2.73753856955696 -0.97211576697670 -0.43442991679168
 6 -1.51624128622862 -3.69241899499950 -1.90388070487049
 6 -4.30249991839184 -3.87157138893889  1.20033515911591
 6  1.95366650035003 -4.59820884458446 -0.89505873267327
 6  5.42320112251225 -0.04678280178018  0.80368291549155
 6  4.53085914721472  3.85768861816182  0.45702790309031
 6  1.22937161556156  4.02084663496350  0.48361008160816
 6 -6.72129678027803 -3.58285306510651  0.78405746784678
 6 -5.75440502110211 -0.57444322832283  0.37888505540554
 6 -0.21352927222722  3.93735198499850  0.23327513941394
 6 -1.02972807140714  5.15702323602360  0.38984745024502
 6 -2.26848632233223  4.77107860926093  0.13265917191719
 6  3.06230281228123 -4.14634730493049  0.04676236543654
 6 -5.47939164866487  0.67684297289729 -0.48610007480748
 6  6.87480735973597 -0.56784225382538  0.79080997919792
 6 -3.54350189308931  5.58678973747375  0.16211072177218
 6 -2.20840039163916  3.24560952195220 -0.23587935773577
 6 -0.66987757885789  6.54471014101410  0.91515056665667
 6 -4.20159972257226  5.56241219791979 -1.22571166266627
 1 -0.50199178407841  0.33579044484448 -0.05569530923092
 1  2.94053141414141 -1.28252639383938 -0.98585867326733
 1  2.37758764006401 -2.95890748734874 -2.11100764786479
 1  1.05354636083608 -3.86557066796680 -2.67268562866287
 1 -5.61913364066407 -2.69998862356236  2.36574711461146
 1  5.08077058955896 -0.15140575917592 -1.09042939023902
 1  5.87832640004000  1.56459598769877 -0.49938351295130
 1 -2.93711992969297  0.16241403170317 -0.21232162966297
 1  0.51849908050805  1.67993783768377 -0.63013045854585
 1 -1.40388512431243 -4.47249181968197 -1.19360887068707
 1 -2.52787289828983 -3.55924651105110 -2.27506563966397
 1 -0.85078025792579 -4.14221128992899 -2.73072866216622
 1 -2.38662104840484 -3.35738546924692  0.53698636383638
 1  0.99620044934493 -4.94454715301530 -0.44750013991399
 1  2.28236434083408 -5.35878998589859 -1.62353773567357
 1  4.83455868886889 -0.94321548494850  0.71710144624462
 1  5.04460880628063  0.30236627532753  1.83129093219322
 1  4.31581210681068  4.82380279667967 -0.12094346614662
 1  5.68586167786779  3.49095662886289  0.32162795239524
 1  4.36947397999800  4.03164863696370  1.60810652755276
 1  1.74414519311931  5.10588976637664  0.92386346154615
 1 -7.44874644294429 -2.64771985548555  0.76248751835184
 1 -7.17220128402840 -4.24043042514251  1.45834167456746
 1 -6.41870756775678 -3.83239065516552 -0.07215512711271
 1 -6.71385590789079 -0.70131103960396  1.01110911201120
 1 -4.97107607970797  1.60755557645765 -0.04448170947095
 1 -6.53178155555556  1.21325040004000 -0.60702501860186
 1 -4.87764707670767  0.46812697489749 -1.26160292509251
 1 -3.40568255375538  6.59126353145315  0.40534741124112
 1 -4.20746218441844  5.05021735363536  0.81384741104110
 1 -0.08966811131113  6.52023258865887  1.84092393399340
 1 -1.56550266056606  7.13650710541054  0.93247259895990
 1 -0.19658049004900  7.23757604330433  0.03563452055206
 1 -3.56452435943594  6.29196682238224 -1.90092429492949
 1 -5.31482418961896  6.07069018511851 -1.14644452165217
 1 -4.47282075897590  4.40777094739474 -1.49540904890489
 1  4.00962936343634 -4.43120933343334  1.47015779817982
 1  7.97148517311731 -1.81433082208221  1.51630901390139

