%nproc=4
%Mem=2GB
# td=(NStates=1) B3LYP/SVP 

TD

0 1
 8 -4.20453196399640 -4.87794216541654  1.87159118751875
 8  3.04674870357036 -4.89827113391339  1.01679581688169
 8  7.15091139543954 -1.46660393009301  1.84307698719872
 8  3.82588764626463 -3.11315934093409 -0.11693503290329
 8  7.49282881948195 -0.58442833793379 -0.24930096279628
 8 -3.03779936603660  2.39378742954295 -0.37686924832483
 7 -0.28638563326333 -0.52469666276628 -0.65364237713771
 7  1.52067055975598  1.84369480198020 -0.25236681428143
 7 -3.26275826482648 -3.11381249424942  0.68971529012901
 7 -0.81798029372937  2.89451060046005 -0.07124096989699
 6  0.61284354865487 -2.33107106550655 -1.44742703780378
 6  0.88581148344834 -1.00165739743974 -0.95571442034203
 6 -0.76914104280428 -2.57326568876888 -1.21139320202020
 6 -1.30321074307431 -1.42983329472947 -0.68932806280628
 6  3.70951941274127  1.52783595009501 -0.10502476927693
 6  2.47771987778778  0.90138196369637 -0.42327651265127
 6  2.25751100130013 -0.38093535143514 -0.85895537013701
 6  3.51148178827883  2.82159196139614  0.11649964026403
 6  1.58104951005101 -3.30261196249625 -2.00015736133613
 6 -5.53767267396740 -2.86193180808081  1.26320358465847
 6 -3.58855271457146 -1.85495047094709  0.10952688448845
 6  2.09953426552655  3.03135312951295  0.17160478387839
 6 -5.05345804210421 -1.64018298219822  0.43401744564456
 6  5.09683494539454  0.78222313921392 -0.25237419611961
 6 -2.68167298299830 -0.98115667106711 -0.34843131693169
 6 -1.56343600570057 -3.76539629272927 -1.80637095389539
 6 -4.29126879527953 -3.76696092789279  1.36113123872387
 6  2.01804293799380 -4.40540956465647 -1.04852407920792
 6  5.43591239363936 -0.09401752525253  0.88949149634963
 6  4.55948200950095  3.82464531383138  0.61960416071607
 6  1.29354803320332  4.17076162646265  0.28417013761376
 6 -6.82290694129413 -3.51402618241824  0.91705076717672
 6 -5.82784236483648 -0.64294007800780  0.15521268816882
 6 -0.14691261056106  4.01248949874987  0.28658046994699
 6 -1.08979407800780  5.15620315401540  0.34263272877288
 6 -2.33924339803980  4.65949745114512  0.13009891589159
 6  3.04218080008001 -4.09148181838184  0.06341403060306
 6 -5.46338004750475  0.55044033263326 -0.51809327412741
 6  6.81394127312731 -0.76432190179018  0.78707960616062
 6 -3.62342988588859  5.34755581408141  0.18909342004200
 6 -2.18107765936594  3.19725468646865 -0.04426019581958
 6 -0.62826341744174  6.45069073907391  0.82566161776178
 6 -4.17832739533953  5.50149610631063 -1.27082617411741
 1 -0.49300088498850  0.43851071687169 -0.29095883558356
 1  3.01110847184718 -0.94861300250025 -0.89956004340434
 1  2.44374425572557 -2.73260485708571 -2.49078562566257
 1  1.29916092229223 -4.01266537743774 -2.85193355345535
 1 -5.51745347264726 -2.47159578427843  2.35290583048305
 1  5.12899541204120  0.25694507590759 -1.18378872617262
 1  6.05600416781678  1.43781330943094 -0.28832240684068
 1 -2.84443066076608 -0.10339254895490 -0.37804820232023
 1  0.42371960256026  1.74651449534953 -0.54418186368637
 1 -1.68865360116012 -4.51922649314931 -0.96027553735373
 1 -2.63619373037304 -3.52162274867487 -2.05396352945295
 1 -0.79751493139314 -4.11492856165617 -2.69262485178518
 1 -2.18334072037204 -3.47490722142214  0.77318998419842
 1  1.15624645394539 -4.87684038233823 -0.64749013891389
 1  2.54624072847285 -5.13161726862686 -1.64796017791779
 1  4.76188142114211 -0.93944510791079  0.86376611271127
 1  5.22346669206921  0.36074211291129  1.75818362146215
 1  4.38734926052605  4.65338575497550  0.09999862806281
 1  5.52822591429143  3.44458199139914  0.55824161376138
 1  4.25962299489949  4.41078655075508  1.54911062796280
 1  1.57841862046205  5.07487666506651  0.53600467566757
 1 -7.67036860516052 -2.84589967346735  1.17120839043904
 1 -7.10858492239224 -4.41105748784878  1.46944278467847
 1 -6.92838853585359 -3.90388780488049 -0.06634454605461
 1 -6.92588711101110 -0.74571548004801  0.41984998609861
 1 -5.07418639073907  1.34383920482048  0.00301304000400
 1 -6.30260863826383  1.05959503450345 -0.99078339443944
 1 -4.86700601260126  0.43622378457846 -1.44427119191919
 1 -3.63581556705671  6.22658706380638  0.73611048754875
 1 -4.42006344454446  4.42383471537154  0.59593561986199
 1 -0.49350849534953  6.45021558695870  1.79285912751275
 1 -1.47506361666167  7.13057651235123  0.57029638133813
 1  0.38075724372437  6.84329661536154  0.40043100020002
 1 -3.64508241524152  6.37141476717672 -1.66504070657066
 1 -5.25727843504350  5.68736185228523 -1.31905178237824
 1 -4.09124260116012  4.57887805810581 -2.10075958395840
 1  3.69674807530753 -4.59677589008901  1.69739052145214
 1  7.90678870347035 -1.86002539153915  1.63321070407041

