%nproc=4
%Mem=2GB
# td=(NStates=1) B3LYP/SVP 

TD

0 1
 8 -4.36946845764576 -4.89282365356536  1.73712774117412
 8  3.10525455415542 -4.79834114091409  1.06463060036004
 8  6.87493379767977 -1.58866613631363  1.85900858035804
 8  3.80240529802980 -3.03958198319832 -0.16533987338734
 8  7.62068160476048 -0.50755065016502  0.06677064436444
 8 -3.00463604970497  2.33291134193419 -0.46442800420042
 7 -0.22780977567757 -0.50526471957196 -0.48220523342334
 7  1.57223571627163  1.90098053055306 -0.51458303590359
 7 -3.36277826682668 -3.18538965196520  0.75599191779178
 7 -0.78405690139014  2.89856100550055 -0.05467931373137
 6  0.68446071037104 -2.44124208260826 -1.31465376047605
 6  0.90572347464746 -1.09302653435344 -0.94520336923692
 6 -0.72305643434343 -2.57461582378238 -1.24593665636564
 6 -1.28656907890789 -1.43350366176618 -0.64830396039604
 6  3.79771823262326  1.60099326582658 -0.42140640744074
 6  2.45844795059506  0.89222104760476 -0.59034321932193
 6  2.27303255345535 -0.33846110401040 -0.92949242384238
 6  3.55804644474447  2.85668547074707 -0.08262027172717
 6  1.74846625172517 -3.37202890419042 -1.99946729232923
 6 -5.65057396409641 -2.82580819571957  1.25232249654965
 6 -3.63649750905091 -1.91916689258926  0.27153308510851
 6  2.11724603670367  3.07232722692269 -0.10234261086109
 6 -5.10130282658266 -1.59077804170417  0.50398444234423
 6  5.17352261416142  0.85393030993099 -0.33270222892289
 6 -2.58792360806081 -1.09346790219022 -0.27769424322432
 6 -1.38051771387139 -3.88863861696170 -1.57365768256826
 6 -4.47817748614862 -3.83126735853585  1.32756788238824
 6  2.13099423312331 -4.58952797649765 -1.08697792459246
 6  5.34693349574957 -0.10606873037304  0.80511305850585
 6  4.49665572687269  3.91062391169117  0.43971617191719
 6  1.28214689308931  4.07996254655465  0.24038575917592
 6 -6.90008465906591 -3.49618439823982  0.86148521062106
 6 -5.93245282588259 -0.60212599659966  0.11172833973397
 6 -0.12202012131213  4.08744699449945  0.23941575347535
 6 -1.08022312091209  5.10644817851785  0.54274273977398
 6 -2.28129760346035  4.59918141954195  0.26721262726273
 6  3.11479806180618 -4.08571124132413  0.03785147434743
 6 -5.49984369386939  0.70348563716372 -0.77213867866787
 6  6.62438231723172 -0.68086355595560  0.86043694189419
 6 -3.67072461536154  5.27191825032503  0.37724223492349
 6 -2.11586113771377  3.20886584758476 -0.18683445324532
 6 -0.65058564966497  6.51081675167517  0.93879293089309
 6 -4.18888845144514  5.62319827652765 -0.94044313581358
 1 -0.49681126602660  0.45704257005701 -0.19507924762476
 1  3.05646300730073 -1.02491063226323 -1.21316140354035
 1  2.77594747604760 -2.89639123572357 -2.27547409450945
 1  1.38476948314832 -3.72444655555555 -3.02662102220222
 1 -5.68536026332633 -2.58714733943394  2.33988452835283
 1  5.39931244374437  0.29324870627063 -1.39881022832283
 1  6.12190075747575  1.53045257335734 -0.24698827342734
 1 -3.00044626232623 -0.14646685638564 -0.50567096459646
 1  0.58910614121412  1.86623646754676 -0.60368781428143
 1 -1.16794152995300 -4.54151872237224 -0.94733424322432
 1 -2.56114622562256 -3.74850543694370 -1.52306043914391
 1 -0.94224940484048 -4.17918498729873 -2.50887647694769
 1 -2.57156954325433 -3.86184591529153  0.56727939313931
 1  1.22232306160616 -5.21073377167717 -0.71802719261926
 1  2.83027913231323 -5.29603371027103 -1.57952333423342
 1  4.67334256725673 -1.01861302470247  0.98821855795580
 1  5.50149449484949  0.49760579927993  1.93863166626663
 1  4.23711423702370  4.89699011541154 -0.24663603540354
 1  5.51534462616262  3.41535906910691  0.50201599119912
 1  4.22603963656366  4.37884335643564  1.32568828572857
 1  1.62323310191019  4.96829600700070  0.71770284548455
 1 -7.49472104040404 -2.67094217771777  0.94998626822682
 1 -7.24366843074307 -4.44628101020102  1.59835567596760
 1 -6.97295299229923 -3.76800421652165 -0.19801771337134
 1 -6.85464998729873 -0.73450435893589  0.51213921502150
 1 -4.64033300540054  1.27471229212921 -0.18812607390739
 1 -6.26845522292229  1.34432350735074 -0.86685100120012
 1 -5.02117142914291  0.31119128132813 -1.69071583638364
 1 -3.50363234873487  6.07373177827783  1.00527740424042
 1 -4.28046948514852  4.64201653355336  0.98165419171917
 1 -0.07774691919192  6.54608517391739  1.80637047864786
 1 -1.59168527882788  7.14893834853485  1.03818317001700
 1  0.13694286228623  6.76925921162116  0.24951590869087
 1 -3.68944685168517  6.55270289598960 -1.44188839133913
 1 -5.33584629182918  5.92990610671067 -0.85354523172317
 1 -3.98856233313331  4.64371454175418 -1.66925643364336
 1  3.94124252475247 -4.54264047654765  1.76979776217622
 1  7.78323634823482 -1.93535292429243  1.82763014601460

