%nproc=4
%Mem=2GB
# td=(NStates=1) B3LYP/SVP 

TD

0 1
 8 -4.23798530933093 -4.89350372157216  1.85936996539654
 8  3.20260428912891 -4.78353966076608  0.93592773007301
 8  7.20036634093409 -1.43378064776478  1.82201488098810
 8  3.92624768226823 -3.05173319831983 -0.18671201060106
 8  7.38478801540154 -0.65586548164816 -0.25103113581358
 8 -3.07840342644264  2.37613566436644 -0.40083164456446
 7 -0.31422841754175 -0.45891008410841 -0.44939195209521
 7  1.59076756945695  1.72962339483948 -0.12659423702370
 7 -3.33856584558456 -3.06661777477748  0.63006932553255
 7 -0.81671016671667  2.87251840124012 -0.17994183998400
 6  0.59516178047805 -2.35545350375037 -1.49223151825183
 6  0.91081398369837 -1.10748798049805 -0.86829567846785
 6 -0.74382851155116 -2.60574893709371 -1.15933799649965
 6 -1.33547396939694 -1.39322963436344 -0.51077020702070
 6  3.78866732753275  1.45929909640964 -0.12651691849185
 6  2.52904501030103  0.85364719021902 -0.38775296029603
 6  2.14233948414841 -0.42052931083108 -0.73748322292229
 6  3.50083072317232  2.75178498069807  0.23859184948495
 6  1.65279668476848 -3.23441514281428 -2.03030037563756
 6 -5.53692259895990 -2.85663127802780  1.33755101940194
 6 -3.67596145544554 -1.85177015291529  0.16363229502950
 6  2.09240355245525  2.99964995919592  0.20261788518852
 6 -5.05578827512751 -1.57959692359236  0.56744078797880
 6  5.09362462436244  0.75159007590759 -0.33535249394940
 6 -2.69733454915492 -1.01218977437744 -0.28341481528153
 6 -1.57141680378038 -3.59199895299530 -1.79454977177718
 6 -4.33636330473047 -3.76147037883788  1.26258138373837
 6  2.15852698639864 -4.37079610331033 -1.07563679047905
 6  5.32905170757076 -0.09604772827283  0.93838638583858
 6  4.53985004630463  3.85015786508651  0.54488668896890
 6  1.26937561596160  4.04923947424742  0.38402012261226
 6 -6.90912556315632 -3.44725950575058  0.86760582268227
 6 -5.93619319991999 -0.60756654065407  0.10810797769777
 6 -0.18919683898390  3.96930518031803  0.30313212511251
 6 -1.10846594519452  5.10965849954995  0.45514397989799
 6 -2.39558903260326  4.64604610601060  0.17260316631663
 6  3.21999858185819 -4.02025469566957 -0.13237554835484
 6 -5.45771948144815  0.61035632423242 -0.64009547434743
 6  6.72468234723472 -0.73855932553255  0.81181207940794
 6 -3.65456299919992  5.32699375787579  0.10270478117812
 6 -2.12561211281128  3.21223618461846 -0.08216398619862
 6 -0.49525011611161  6.48200387038704  0.68279733133313
 6 -4.25689525212521  5.36039199589959 -1.38016710821082
 1 -0.47229881478148  0.25178204400440  0.19081934223422
 1  3.12695005600560 -1.25575371657166 -0.82494258165817
 1  2.56954683598360 -2.81464306090609 -2.27881442854285
 1  1.20856186238624 -3.73913802470247 -2.88927728782878
 1 -5.50220194749475 -2.57117574227423  2.45840638053805
 1  4.98496100860086  0.11635101650165 -1.27070741804180
 1  5.98275684308431  1.47661718981898 -0.43154672927293
 1 -3.04851106880688  0.07123491379138 -0.54224462196220
 1  0.49491672227223  1.96362620652065 -0.57954540004000
 1 -1.25754048984899 -4.57550212071207 -1.20506001580158
 1 -2.60578068906891 -3.44267485388539 -1.94763289638964
 1 -1.09920510041004 -3.94815188398840 -2.76557214651465
 1 -2.43388577487749 -3.58632836353635  0.32795546074607
 1  1.28420925022502 -5.00642334063406 -0.31221661156116
 1  2.54087019141914 -5.29399350625062 -1.89137451935193
 1  4.78745397839784 -1.08028919231923  1.00415015111511
 1  5.40556490189019  0.45869190789079  2.03262106520652
 1  4.37746827242724  4.67544796119612 -0.11048242004200
 1  5.54283737543754  3.41723925712571  0.35713150275028
 1  4.57554458705871  3.97840331243124  1.65469118601860
 1  1.69210998959896  5.07076625402540  0.55311638683868
 1 -7.60500206850685 -2.78600368386839  1.20895216481648
 1 -7.00369443334333 -4.33995037713771  1.42949879027903
 1 -7.12996869386939 -3.64014143024302 -0.07473538513851
 1 -6.87886240854086 -0.54912582108211  0.36375437653765
 1 -4.66975594769477  1.06482130303030 -0.10701796309631
 1 -6.40509888728873  1.21475055005501 -0.78952326842684
 1 -4.93149246124612  0.57753791599160 -1.55249201400140
 1 -3.47263924942494  6.49423382848285  0.35018189468947
 1 -4.44215565376538  4.88740107200720  0.99478550485049
 1 -0.17634677917792  6.57746831223122  1.81527136873687
 1 -1.29225533583358  7.25112856755675  0.70339969166917
 1  0.35532470047005  7.02991527722772 -0.01420046294629
 1 -3.73229113611361  5.82747037273727 -2.21731593409341
 1 -5.39724243144314  5.67373048914892 -1.43094297149715
 1 -4.52266574347435  4.42181235153515 -1.65533504150415
 1  3.87747614811481 -4.57312352485248  1.52463324572457
 1  8.13320134473447 -1.74514390339034  1.49435681868187

