%nproc=4
%Mem=2GB
# td=(NStates=1) B3LYP/SVP 

TD

0 1
 8 -4.08526003680368 -4.78198256945695  1.89038306670667
 8  3.01901593029303 -4.78737004380438  1.07899203650365
 8  6.65843214751475 -1.72065933563356  1.88217089658966
 8  3.80201525902590 -3.05560358535854 -0.17361070047005
 8  7.60310984758476 -0.51927182228223  0.24100806810681
 8 -2.97881346744675  2.31835988678868 -0.34021558295830
 7 -0.22545954065407 -0.45781997509751 -0.67605461836184
 7  1.59743823652365  1.84162459495950 -0.48789036663666
 7 -3.26310829982998 -3.07570868386839  0.73159947854786
 7 -0.79889838553855  2.85071622102210 -0.11538538433843
 6  0.70524278857886 -2.39250720912091 -1.58332062716272
 6  0.94704760706071 -1.05332256395640 -0.99160800970097
 6 -0.70493462216222 -2.57296565876588 -1.42383444614461
 6 -1.25825624762476 -1.41776208760876 -0.76910604060406
 6  3.76986544734473  1.53714688118812 -0.30021428822882
 6  2.55167727352735  0.89629145464546 -0.61821600660066
 6  2.18047329752975 -0.44025128302830 -0.89776925152515
 6  3.50650129022902  2.81277107930793  0.09836782708271
 6  1.70975238033803 -3.39567126842684 -2.11619896549655
 6 -5.51403030973097 -2.78777439233923  1.44508177247725
 6 -3.55083894319432 -1.81819679557956  0.25378130993099
 6  2.15575988808881  2.99533952815281 -0.11976435303530
 6 -5.00830352665267 -1.61904086798680  0.54673871777178
 6  5.05275053695370  0.77325224212421 -0.32064102280228
 6 -2.60458527422742 -0.96240479587959 -0.37874434823482
 6 -1.44198386048605 -3.74222397549755 -1.84071438823882
 6 -4.31886155455546 -3.74094832663266  1.38914404000400
 6  2.09309044274427 -4.43013203690369 -1.12896212301230
 6  5.27628643104310 -0.07169529302930  0.87145969316932
 6  4.44540060136014  3.87584043334333  0.55370757105711
 6  1.25778445684568  4.14771932223222  0.23835555615562
 6 -6.82096674727473 -3.46027080688069  1.11200026212621
 6 -5.85501508210821 -0.65581136513651  0.15394256115612
 6 -0.13846176547655  3.99906815661566  0.20684249614962
 6 -1.04273937253725  5.15579311301130  0.49382784828483
 6 -2.30801027472747  4.56403790519052  0.22154806080608
 6  3.03385996799680 -3.94178684888489 -0.04798710951095
 6 -5.56333004250425  0.44427971657166 -0.78812027682768
 6  6.61300117911791 -0.78432390199020  0.92508340654065
 6 -3.74246178907891  5.17543860236024  0.34992950365037
 6 -2.08568812041204  3.17070203120312 -0.13160893069307
 6 -0.64683527462746  6.53806947694769  0.95323437503750
 6 -4.19463902650265  5.51087704440444 -1.09980907240724
 1 -0.54789637453745  0.50050691649165 -0.26784652435244
 1  2.78557591859186 -1.09715785698570 -1.20080016741674
 1  2.55819570087009 -2.91056265286529 -2.48224477157716
 1  1.30200120632063 -3.78246235713571 -2.93713207330733
 1 -5.49886161346135 -2.40984960966097  2.47543808370837
 1  5.27121963446345  0.03828320972097 -1.24955530283028
 1  5.87469603700370  1.54624415251525 -0.41337491209121
 1 -2.69005522322232  0.15568335863586 -0.32045244274427
 1  0.58833606420642  1.71781162506251 -0.84345179067907
 1 -1.24065880168017 -4.65149972047205 -1.13275278507851
 1 -2.59169928092809 -3.54169475587559 -1.94279241234123
 1 -1.12889806970697 -4.21262833163316 -2.93651924122412
 1 -2.25620800710071 -3.25115484618462  1.06233889908991
 1  1.23684451375137 -4.77650034833483 -0.60178556845685
 1  2.51064716911691 -5.40861496839684 -1.58071345324532
 1  4.59832506550655 -0.88005916931693  0.92127186328633
 1  5.07530187558756  0.56778281698170  1.93846164926493
 1  4.46706723232323  4.67783820022002 -0.07738911071107
 1  5.47655074677468  3.47472500570057  0.47388317791779
 1  4.36828386098610  4.04905037713771  1.59375509240924
 1  1.83106388498850  4.97963714111411  0.77551862706271
 1 -7.72358392669267 -2.71932701620162  1.20395166476648
 1 -6.88988305220522 -4.37993437553755  1.66798263866387
 1 -6.66344204120412 -3.84418183428343  0.08703079147915
 1 -6.74549907220722 -0.46805771427143  0.47364536563656
 1 -5.28177714981498  1.49804462536254 -0.31738900020002
 1 -6.42411078847885  0.83679275427543 -1.33260757685769
 1 -4.69882919491949  0.39453961616162 -1.48890565536554
 1 -3.93050503600360  6.20560496559656  0.98335521202120
 1 -4.47806924512451  4.56083841574157  0.71842786908691
 1  0.09691054655466  6.58752931833183  1.68897873947395
 1 -1.48012412271227  6.99040249494949  1.28000735243524
 1 -0.23845467746775  7.21811409710971 -0.02673171607161
 1 -3.66176408340834  6.39892751845184 -1.57118132063206
 1 -5.11987469466947  5.99336245234523 -0.85130500770077
 1 -4.28195167206721  4.54022419271927 -1.64993450145014
 1  3.50259866036604 -4.52731894439444  1.91937271967197
 1  7.49384740934093 -1.88994838383838  1.88446582958296

