%nproc=4
%Mem=2GB
# td=(NStates=1) B3LYP/SVP 

TD

0 1
 8 -4.30340185098510 -4.94935930713071  1.71299532793279
 8  2.93581761046105 -4.89878118491849  1.06546068336834
 8  7.09816612091209 -1.43291056075608  1.79928260776078
 8  3.95134019151915 -3.28604662966297 -0.11181452085209
 8  7.69961949854985 -0.33003289838984 -0.06477250995100
 8 -3.04764035013501  2.28123617441744 -0.26237779917992
 7 -0.22550954565457 -0.46464065716572 -0.65207222012201
 7  1.44658315101510  1.78324875737574 -0.34612619021902
 7 -3.30717270627063 -3.08660977397740  0.71690800940094
 7 -0.85458395409541  2.88817996739674 -0.05204905070507
 6  0.67100936523652 -2.45737369576958 -1.33698599369937
 6  0.96436933923392 -1.06158339003900 -0.88984783368337
 6 -0.68295242394239 -2.63294165636564 -1.24324638733873
 6 -1.33216363836384 -1.38861917331733 -0.77095622562256
 6  3.74842330313031  1.48206137263726 -0.23680794759476
 6  2.52561466726673  0.86112793829383 -0.35654983998400
 6  2.28342359255926 -0.49155641354135 -0.70688016261626
 6  3.53139377947795  2.80119992219222  0.22293028332833
 6  1.62847425252525 -3.34935663696370 -2.00662800840084
 6 -5.47349625632563 -2.63221883678368  1.42668993329333
 6 -3.59812367166717 -1.78893386928693  0.18431436323632
 6  2.04921923402340  3.00378037223722  0.07012463586359
 6 -5.03070576687669 -1.49785874977498  0.47080112401240
 6  5.19866512841284  0.85977089398940 -0.32468142684268
 6 -2.65866068176818 -0.91620017541754 -0.39744621842184
 6 -1.51540120222022 -3.76533628672867 -1.69010932773277
 6 -4.37568723712371 -3.73237746954695  1.29442456805681
 6  2.11596272997300 -4.57393641734173 -1.11459068586859
 6  5.42291109350935 -0.20415853935394  0.73396594379438
 6  4.47735379667967  3.87219006830683  0.53621582188219
 6  1.19021770017002  4.11245579587959  0.30190191079108
 6 -6.84414906550655 -3.33360814061406  1.03259232133213
 6 -5.86365594619462 -0.54733051705171  0.07671483838384
 6 -0.16365428472847  3.92936118591859  0.30081189308931
 6 -1.19173427202720  5.07968550225022  0.50838930443044
 6 -2.32887236093609  4.56924842624262  0.22126803280328
 6  3.06307288928893 -4.21576424662466 -0.04034634543454
 6 -5.48929263876388  0.63264855345535 -0.76669813461346
 6  6.87869774877488 -0.64264973457346  0.71130202840284
 6 -3.62729027192719  5.38041910041004  0.20918542924292
 6 -2.16185573717372  3.12364732573257 -0.10769653945395
 6 -0.72216280738074  6.55273094309431  0.88711776337634
 6 -4.32742230483048  5.50774673137314 -1.22110120162016
 1 -0.43102468736874  0.36814368016802 -0.05448518821882
 1  3.12368972997300 -1.12026016721672 -1.00727081448145
 1  2.60599048034803 -2.88482007860786 -2.37651419851985
 1  1.16917792399240 -3.83908801970197 -2.81414977507751
 1 -5.35949767706771 -2.38903752845285  2.54680522042204
 1  5.48166067856786  0.43587296869687 -1.25769611691169
 1  5.85222378977898  1.73329285738574 -0.21445502010201
 1 -2.93800001770177  0.05369315961596 -0.53822421992199
 1  0.45460269086909  1.83984382828283 -0.64056150165017
 1 -1.42763749954996 -4.74965953645365 -1.14381389118912
 1 -2.69080919191919 -3.64828541494149 -2.06381451455146
 1 -1.14277945784578 -4.11828889768977 -2.74013960326033
 1 -2.36713910021002 -3.38751848254825  0.40712337753775
 1  1.32918374767477 -5.06753945224522 -0.70216560646065
 1  2.55521162556256 -5.49301340824082 -1.86727210911091
 1  4.88075330833083 -1.07023818721872  0.64912464856486
 1  5.21609595499550  0.06436247494750  1.82504030713071
 1  4.11913243884389  5.00759117551755  0.34650327852785
 1  5.54834792649265  3.53783131633163  0.02930872047205
 1  4.56782381498150  3.93825929802980  1.65636135303530
 1  1.47632841144114  5.08486766416642  0.55467654285429
 1 -7.84126569486949 -2.63737882138214  0.93235450505051
 1 -6.93056712061206 -4.04345072717272  1.66303214361436
 1 -6.75308100510051 -3.71941935803580  0.07456954535454
 1 -7.02622714501450 -0.61811271977198  0.04790279137914
 1 -5.04507347944794  1.46986180708071 -0.39654691599160
 1 -6.43504188158816  1.21752082708271 -0.98712302840284
 1 -4.85198451045104  0.38692885508551 -1.74021078587859
 1 -3.56601858735874  6.34295870097010  0.56826370287029
 1 -4.44007544574457  4.68504083598360  0.71122714901490
 1  0.16902775827583  6.84623518891889  1.55355519711971
 1 -1.58368447874787  7.30797425212521  1.08537788948895
 1 -0.32492332433243  6.84115640134013 -0.27069611251125
 1 -3.71287919491949  6.06717434313431 -1.86741094359436
 1 -5.40805351255125  5.94899801590159 -1.24744462166217
 1 -4.41062453935394  4.60580075037504 -1.88134764276428
 1  3.76102450295030 -4.74959117161716  1.44440522292229
 1  7.91417944254425 -1.88056744574457  1.74652203520352

