%nproc=4
%Mem=2GB
# td=(NStates=1) B3LYP/SVP 

TD

0 1
 8 -4.20443195399540 -4.75644001520152  1.85491952035204
 8  3.14114814351435 -5.01772307910791  1.00159429672967
 8  6.95490179447945 -1.69142641234123  1.71584426392639
 8  3.63088814631463 -3.09283730873087 -0.13282662206221
 8  7.67943748034804 -0.42270216531653  0.03266723402340
 8 -3.15288087418742  2.33336138693869 -0.33149471087109
 7 -0.15287228192819 -0.50764495759576 -0.55980299319932
 7  1.53871236393639  1.80524095659566 -0.37996957455746
 7 -3.21598358735874 -3.02509362236224  0.65667198579858
 7 -0.89123761946195  2.77435858525853 -0.00752459825983
 6  0.69653191749175 -2.38597655605560 -1.39093138823882
 6  0.96219912221222 -1.11652888458846 -0.89187803670367
 6 -0.70750487918792 -2.56699506170617 -1.32946500920092
 6 -1.33329375137514 -1.33791410281028 -0.79143827382738
 6  3.77484594539454  1.49428259475948 -0.35135940274027
 6  2.51680378617862  0.84890671617162 -0.60085427042704
 6  2.26023127332733 -0.50139739763976 -0.85964543914391
 6  3.50893153325333  2.81316111831183  0.17171516181618
 6  1.63219462456246 -3.40939264056406 -1.96115346094609
 6 -5.51299020572057 -2.70748636353635  1.34450171447145
 6 -3.56355021432143 -1.71491646754675  0.22325825762576
 6  2.08011232333233  2.90439043324332  0.05116273967397
 6 -4.95725842214221 -1.45859482338234  0.51628567246725
 6  5.08941420332033  0.80790570747075 -0.44133309200920
 6 -2.59990480618062 -0.93491204660466 -0.36463293709371
 6 -1.50760042214221 -3.77266701980198 -1.82337265406541
 6 -4.31396106450645 -3.69448368016802  1.29406453205321
 6  2.04985611931193 -4.55756478017802 -1.04292351915192
 6  5.46871567396740  0.07080895739574  0.91405395259526
 6  4.41482754405441  3.90067291659166  0.56720892119212
 6  1.25300397879788  4.04137868816882  0.49985170577058
 6 -6.81017566816682 -3.42895767556756  0.98792785488549
 6 -5.72496207680768 -0.52080786478648  0.12568973587359
 6 -0.21737965726573  3.95913416321632  0.31626343824382
 6 -1.07324242284228  5.06138367206721  0.47167563306331
 6 -2.37929740344034  4.59967146854685  0.17477338333833
 6  3.01173775577558 -4.09574224442444  0.07833552275228
 6 -5.51488519801980  0.69243453205321 -0.80058152295230
 6  6.90077995699570 -0.61127659725973  0.86960785898590
 6 -3.72992053495350  5.23566462496250  0.27612212291229
 6 -2.21821137273727  3.06823178417842 -0.10903667346735
 6 -0.76626721782178  6.56101177117712  0.76408546014601
 6 -4.23168273087309  5.48879483618362 -1.18743783528353
 1 -0.25985757065707  0.36859372517252 -0.18395813551355
 1  3.32563992499250 -1.09420756195620 -0.87424751215122
 1  2.60356023732373 -2.93140473707371 -2.27560410751075
 1  1.24654566076608 -3.87600171107111 -2.73804216431643
 1 -5.59184091139114 -2.37523614831483  2.35132567246725
 1  5.04831734423442  0.32825220662066 -1.33789413671367
 1  6.04405297269727  1.38058758685869 -0.56034960956096
 1 -2.78083430113011  0.10703849414942 -0.39011940944094
 1  0.51403863446345  1.74184402830283 -0.60328777427743
 1 -1.83929866566657 -4.70855542604260 -1.17457696749675
 1 -2.56006611761176 -3.29388997539754 -2.33258139123912
 1 -0.86490167006701 -4.23556062486249 -2.61215680498050
 1 -2.36758914521452 -3.56087581828183  0.64724738993899
 1  1.30161099039904 -5.04777747604760 -0.67183257315732
 1  2.61360746514651 -5.18446255315532 -1.47545292719272
 1  4.75805103810381 -0.67204836823682  1.24554429052905
 1  5.57671201660166  0.85319135783578  1.65667347044704
 1  4.28602912851285  4.75317573397340  0.02237086528653
 1  5.33716680838084  3.58143567676768  0.27173296289629
 1  4.10430746334633  4.20945641774177  1.59253497039704
 1  1.82253303190319  4.99612879027903  0.81573264846485
 1 -7.66733830213021 -2.75315039853985  1.24405567516752
 1 -7.00602466636664 -4.35061144324432  1.52241808220822
 1 -6.89926562356236 -3.70639805590559  0.01030311871187
 1 -6.84037856015602 -0.85524643314331  0.30448844994499
 1 -5.44332330443044  1.71712653355335 -0.14758201950195
 1 -6.56514489188919  0.64317339233923 -1.30903521962196
 1 -4.69789910191019  0.24779494169417 -1.49218598339834
 1 -3.64384637013701  6.00350475557556  1.07056393289329
 1 -4.41375281348135  4.41089342124212  0.73027905420542
 1 -0.10247939243924  6.64986555195520  1.66906674827483
 1 -1.68212432273227  7.06639009370937  1.09650900260026
 1 -0.25528636063606  7.07378966466647 -0.17437648054806
 1 -3.49704761176118  6.15750337603760 -1.61068527102710
 1 -5.23521622882288  6.11005412151215 -1.33559343654365
 1 -4.32110558745875  4.58526869716972 -1.70086959495950
 1  3.62630103060306 -4.56550276277628  1.63068385078508
 1  7.78678670327033 -2.45320470947095  1.57035441844184

