%nproc=4
%Mem=2GB
# td=(NStates=1) B3LYP/SVP 

TD

0 1
 8 -4.22107361816182 -4.93495786698670  1.92080610901090
 8  2.74712874157416 -4.89205051185118  1.07679181648165
 8  7.17315361966197 -1.30666793649365  1.90554323382338
 8  3.81157621512151 -3.18491651665166 -0.05946928632863
 8  7.62232176877688 -0.74031392649265 -0.27310334303430
 8 -3.02038762486249  2.39462751355136 -0.44901646304630
 7 -0.22907990269027 -0.56200039313931 -0.43633064596460
 7  1.54217270997100  1.80729116161616 -0.37670924852485
 7 -3.23659564856486 -3.10745185818582  0.68716503510351
 7 -0.80716921262126  2.99996114551455 -0.13204705050505
 6  0.62737500180018 -2.42471042944294 -1.32778507360736
 6  0.99987288958896 -1.17073430513051 -0.91491033993399
 6 -0.74971910061006 -2.59929829202920 -1.17069913261326
 6 -1.33145356735674 -1.37806811821182 -0.62208133813381
 6  3.82225068586859  1.57631079757976 -0.18889315611561
 6  2.52395450125013  0.86752857835784 -0.48863304830483
 6  2.28380363056306 -0.46624388228823 -0.84630410501050
 6  3.44460510061006  2.90839064126413  0.14590258055806
 6  1.62263366846685 -3.38246994829483 -2.05268261386139
 6 -5.45496440314031 -2.85608122302230  1.26676394069407
 6 -3.56173003230323 -1.78310328622862  0.33031896369637
 6  2.06920123222322  3.10232022622262  0.11757938133813
 6 -5.07331002730273 -1.66982594649465  0.38174221812181
 6  5.13056831873187  0.89881479837984 -0.26455541424142
 6 -2.64110892659266 -0.90704926032603 -0.15825229902990
 6 -1.52447210931093 -3.68022777587759 -1.81327164396440
 6 -4.26839650805081 -3.80338457025703  1.33607873347335
 6  2.09788092179218 -4.50541956565657 -1.18448767556756
 6  5.43699250165017 -0.12879100260026  0.88861140834083
 6  4.41287734903490  3.92026487578758  0.53489568986899
 6  1.33809248764876  4.07795234553455  0.37593931453145
 6 -6.82492714331433 -3.46878165796580  0.85822488458846
 6 -5.85225480608061 -0.68589437343734 -0.03044587768777
 6 -0.13712163146315  4.09962821262126  0.28437024892489
 6 -1.08685378397840  5.17150468416842  0.46799526502650
 6 -2.30821029472947  4.67157865926593  0.13773967996800
 6  3.04542112411241 -4.14538720892089 -0.03215552635264
 6 -5.57893160266027  0.58504379297930 -0.85701716651665
 6  6.82564244324433 -0.78626409600960  0.69717061526153
 6 -3.64657220012001  5.29835089358936  0.26051056175618
 6 -2.16640619221922  3.22569753075308 -0.16505227502750
 6 -0.59244983608361  6.65127079707971  0.88705775737574
 6 -4.37633719631963  5.44982093879388 -1.07285637713771
 1 -0.50355194009401  0.43724058985899 -0.02258199789979
 1  3.27996535753575 -1.00894903610361 -0.84299438683868
 1  2.64645452675268 -2.83950554715471 -2.46157270437044
 1  0.99553055925593 -3.93911802270227 -3.07431579167917
 1 -5.32602432973297 -2.32593121782178  2.35693623352335
 1  5.17330984348435  0.25929531093109 -1.18525887318732
 1  5.69642821022102  1.65134466256626 -0.58515208980898
 1 -2.92416863456346  0.16407419771977 -0.20361075857586
 1  0.60962819341934  1.66317616151615 -0.53491093659366
 1 -1.61856659245925 -4.55310988148815 -1.00836034583458
 1 -2.68012812381238 -3.40441102750275 -2.06206433953395
 1 -1.11397657755776 -4.15557262606261 -2.64881047034703
 1 -2.29271165746575 -3.55779551025102  0.66879954515452
 1  1.09344017331733 -5.00037273557356 -0.93117850775078
 1  2.55842194659466 -5.34181828872887 -1.82238762066207
 1  4.80053528652865 -0.98397956135614  0.69730946704670
 1  5.26894123952395  0.37385342404240  1.93984178727873
 1  4.12437296289629  4.75528594499450 -0.14426579837984
 1  5.49059215091509  3.42362989618962  0.47129291889189
 1  4.26459349194919  4.23646911901190  1.64622033893389
 1  1.90580135873587  5.08037721512151  0.59836091129113
 1 -7.64985655395540 -2.85233031653165  1.12444371397140
 1 -6.85656972087209 -4.38241462356236  1.34707054745475
 1 -6.89836553355336 -3.64506192229223 -0.24324223582358
 1 -6.88034255655566 -0.82919382788279  0.24627262836284
 1 -4.78762773487349  1.23294811571157 -0.28195545684568
 1 -6.44301267866787  0.98324739973997 -1.21893620972097
 1 -4.87462677467747  0.31770193239324 -1.56988375317532
 1 -3.84165615111511  6.27604200930093  0.78115499199920
 1 -4.21317275547555  4.56997932983298  0.92254828112811
 1 -0.06480562506251  6.70956152155216  2.00039988158816
 1 -1.34853096339634  7.33369682438244  1.13452280398040
 1 -0.01255208720872  6.80063234893489 -0.17854689758976
 1 -4.13681158815882  6.24667229292929 -1.67092129462946
 1 -5.50179288648865  5.51448456455646 -0.80928080528053
 1 -4.35614909180918  4.48545871617162 -1.90386989498950
 1  3.21174957545755 -4.63895010751075  1.80057083948395
 1  7.76216424102410 -1.98928831783178  1.62094947794780

