%nproc=4
%Mem=2GB
# td=(NStates=1) B3LYP/SVP 

TD

0 1
 8 -4.30144165496550 -4.78206257745775  2.00858488688869
 8  2.67541156985699 -4.68901020782078  1.32554669196920
 8  7.10243654795480 -1.48969623932393  1.75519819931993
 8  3.89237429492949 -3.22576060106011 -0.03807714711471
 8  7.55570510711071 -0.60338023312331 -0.17407344004400
 8 -3.02640822692269  2.16788483928393 -0.40148170957096
 7 -0.21708870357036 -0.47252144524452 -0.55627264016402
 7  1.59048754145415  1.89453988648865 -0.37849942754275
 7 -3.23314530353035 -3.08512962596260  0.78708502710271
 7 -0.80863935963596  2.84362551195120 -0.07030087588759
 6  0.60408267256726 -2.41464942334233 -1.49028132323232
 6  0.93471637393739 -1.04246147784778 -1.00470931983198
 6 -0.78694282298230 -2.55759412161216 -1.33324538723872
 6 -1.25595601760176 -1.33664397579758 -0.74512364236424
 6  3.83533199399940  1.56282944944494 -0.28874314111411
 6  2.53081518731873  0.93924575007501 -0.56696088108811
 6  2.32681793199320 -0.36379363726373 -0.80008948354835
 6  3.47706834693469  2.90364016621662  0.08155614591459
 6  1.57383878897890 -3.41293299459946 -1.94490183578358
 6 -5.42273117981798 -2.76378199309931  1.29330659495950
 6 -3.58327218651865 -1.82740771667167  0.19080501230123
 6  2.08588290039004  3.08472846704670 -0.01239361596160
 6 -5.00255295159516 -1.57770673457346  0.41316536043604
 6  5.15425068696870  0.84349926682668 -0.37172613131313
 6 -2.59570438613861 -0.98987754315432 -0.39103557735774
 6 -1.57187684978498 -3.70645039813981 -1.78155847264726
 6 -4.27345701410141 -3.69217344914491  1.37053217881788
 6  2.00855198889889 -4.52090111381138 -0.97364659145915
 6  5.51370017241724 -0.08869699319932  0.73783633083308
 6  4.52426848814881  3.97693054235424  0.55858805910591
 6  1.26342502090209  4.09720427072707  0.34898661926193
 6 -6.74595924652465 -3.36028080788079  0.79565862796280
 6 -5.71945152575258 -0.62069785378538  0.00180734763476
 6 -0.14690260956096  3.95993424322432  0.37053886578658
 6 -1.15893099169917  4.98402593629363  0.57204567006701
 6 -2.34082355605561  4.42268376977698  0.29110501650165
 6  2.94405098709871 -4.08523119331933  0.07383507270727
 6 -5.39896360586059  0.54484977357736 -1.06131759655966
 6  6.85904578357836 -0.71162663226323  0.70825172337234
 6 -3.69190673357336  5.20848190669067  0.32852736343634
 6 -2.16612616421642  3.01641660266027 -0.12380815061506
 6 -0.74318490959096  6.35376104610461  1.03517256885689
 6 -4.33369293189319  5.50890684738474 -1.04004309580958
 1 -0.29200078497850  0.47533439923992 -0.07769750945095
 1  3.30480784178418 -1.01266940814081 -0.89891997939794
 1  2.47019690099010 -3.18483007960796 -2.51715826292629
 1  1.00987199339934 -4.08079219011901 -2.81546990709071
 1 -5.71359308660866 -2.35733435813581  2.28046858675868
 1  5.06698921142114  0.41098047944794 -1.33986433373337
 1  5.86570513791379  1.69565909400940 -0.46239981458146
 1 -2.84268048574857  0.17134492479248 -0.71959235673567
 1  0.60848807940794  1.74546439033903 -0.39202664816482
 1 -1.67552228802880 -4.56386095659566 -1.06201571137114
 1 -2.52553266426643 -3.45951653805381 -1.99175730883088
 1 -1.25087026692669 -4.08425549434944 -2.68175376467647
 1 -2.27514990129013 -3.26035576627663  0.85105777097710
 1  1.24009483878388 -4.91284398269827 -0.43825921582158
 1  2.51857796219622 -5.31086519341934 -1.68176355825583
 1  4.64884011701170 -0.73163432683268  0.88920865696570
 1  5.40653499889989  0.44353039173917  1.67209501260126
 1  4.48276880248025  4.66317673407341 -0.22386375817582
 1  5.54056714841484  3.33077061026103  0.69166495609561
 1  4.02325935853585  4.44642011411141  1.65142085898590
 1  1.92749352795280  5.14994417181718  0.39536061126113
 1 -7.68438000630063 -2.54173925742574  0.80428169776978
 1 -7.12242630653065 -4.18407478957896  1.38958479887989
 1 -6.84385008200820 -3.78643605970597 -0.31768968056806
 1 -6.80623514581458 -0.49936084458446  0.38309631073107
 1 -4.75476444854486  1.24833965486549 -0.58639590089009
 1 -6.36336471387139  1.14849392439244 -1.40271458755876
 1 -4.96984629662966  0.29501966416642 -1.92170893569357
 1 -3.65413739923992  6.15494990009001  0.87431430793079
 1 -4.49687112531253  4.63486581848185  0.80332635893589
 1 -0.19241838633863  6.23336390179018  1.98866870847085
 1 -1.80360647094709  7.04207766246625  1.44620397209721
 1  0.02547171517152  7.01407369306931  0.30633159025903
 1 -3.58760666766677  6.15768339403940 -1.68362256475648
 1 -5.22932563976398  6.24068718481848 -0.89447932513251
 1 -4.68939241614162  4.67152732303230 -1.55723523152315
 1  3.51933033353335 -4.47244345684568  1.65820660306031
 1  8.02385040964096 -1.82274166316632  1.67985536853685

