%nproc=4
%Mem=2GB
# td=(NStates=1) B3LYP/SVP 

TD

0 1
 8 -4.24179569036904 -4.91117548874888  1.76219024742474
 8  2.99256328502850 -4.76806811361136  1.09915405270527
 8  6.96767307160716 -1.57724499419942  1.97930060956096
 8  3.90180523802380 -3.12626065106511 -0.22226556595660
 8  7.82891242784278 -0.55252514761476  0.16615058235824
 8 -3.00650623672367  2.31165921672167 -0.24918648004800
 7 -0.31739873457346 -0.43911810491049 -0.59086609950995
 7  1.56226471917192  1.82462289478948 -0.47346892449245
 7 -3.35026701570157 -3.22380349334933  0.56372269086909
 7 -0.80837933363336  2.88622977237724 -0.11487533333333
 6  0.59376164046405 -2.29014697309731 -1.52135443054305
 6  0.93712661496150 -1.03416064776478 -1.07491634053405
 6 -0.75465959465947 -2.57995635783578 -1.27059912261226
 6 -1.41152157415742 -1.40747105850585 -0.68200733073307
 6  3.81648010881088  1.50333349984998 -0.23177744454445
 6  2.49282138793879  0.87829965546555 -0.59790397539754
 6  2.19379462966297 -0.50449770767077 -0.89346882148215
 6  3.56227686778678  2.79564936713671  0.03417140744074
 6  1.58597000210021 -3.29830153145315 -2.00897824342434
 6 -5.49210811751175 -2.94495010991099  1.38298556285629
 6 -3.60860471977198 -1.84233920982098  0.30462639443944
 6  2.12621693379338  3.04111410561056 -0.04070644724472
 6 -5.04109680598060 -1.61889085298530  0.59253329722972
 6  5.10743600550055  0.79391430833083 -0.36331529022902
 6 -2.71288610431043 -0.99131768716872 -0.34659113291329
 6 -1.50481014311431 -3.70577033013301 -1.97046736353635
 6 -4.27420708910891 -3.85634986678668  1.30532565816582
 6  1.99166029972997 -4.46543556725673 -1.00458968576858
 6  5.33747254965497 -0.11998012151215  0.95678822602260
 6  4.54785084638464  3.85544839413941  0.21430363066307
 6  1.30186886528653  4.13063761406141  0.28971069166917
 6 -6.87257190779078 -3.45510028982898  0.93059212131213
 6 -5.86866644724472 -0.57111289528953  0.11950911781178
 6 -0.08196611591159  4.06831508130813  0.28037984988499
 6 -1.09171427002700  5.12134966866687  0.57057552305231
 6 -2.29216869056906  4.55425692709271  0.27487339333933
 6  3.06002258425843 -3.95783845404540  0.03805149434943
 6 -5.45886959645965  0.61072636123612 -0.58828029282928
 6  6.80372025102510 -0.68644411401140  0.91140203840384
 6 -3.72675021792179  5.30945200370037  0.32084659535954
 6 -2.07189674127413  3.13737869886989 -0.03535930573057
 6 -0.72330292139214  6.60013568356836  0.76658571017102
 6 -4.22838240084008  5.43660961766177 -1.14476356785679
 1 -0.44829641454145  0.40509737553755  0.12575283558356
 1  2.94035139613961 -1.23647178837884 -0.98207829522952
 1  2.42236211751175 -2.69332092869287 -2.46923347044704
 1  1.23150415661566 -3.77815192609261 -2.89837819791979
 1 -5.70123185048505 -2.55206383108311  2.49194973487349
 1  5.12652516501650  0.14291367276728 -1.31843219051905
 1  5.86472503990399  1.44846437453745 -0.35622919751975
 1 -3.05381159885989 -0.03149535923592 -0.06304670217022
 1  0.44790202080208  2.00698054195419 -0.75623306880688
 1 -1.33089782558256 -4.57987255775578 -1.26809631943194
 1 -2.77874798579858 -3.49804039043904 -2.02308044114411
 1 -1.16634181408141 -3.94111117991799 -3.04158974827483
 1 -2.38994138043804 -3.59961969266927  0.50812347754775
 1  1.01175200450045 -4.92808550685069 -0.57619300920092
 1  2.50381648604861 -5.37170127702770 -1.59466484838484
 1  4.46317155015502 -0.89681084448445  0.99968970507051
 1  5.22636698209821  0.56155219391939  1.79853765686569
 1  4.84008453405341  4.37318773517352 -0.98489986178618
 1  5.50622371407141  3.21755928912891  0.93021881148115
 1  3.94112114471447  4.86909238133813  1.02596831373137
 1  2.11843262186219  5.17708688608861  0.61354242944294
 1 -7.61106267456746 -2.82981806530653  1.32013328292829
 1 -7.02875693959396 -4.25612199429943  1.49237507790779
 1 -6.96773247024703 -3.46696411251125 -0.11764967656766
 1 -6.94755927822782 -0.71190209870987  0.20327832893289
 1 -5.19745871797180  1.48948376927693  0.19647238593859
 1 -6.49712809020902  1.02432150715072 -1.10574489058906
 1 -4.49860917291729  0.47829799199920 -1.33184994979498
 1 -3.67202918841884  6.19346375147515  0.82910978747875
 1 -4.25277671587159  4.40802313421342  0.93009903620362
 1 -0.37282642714271  7.06778734413441  1.88470831243124
 1 -1.81221733203320  7.20504395909591  1.03219257095710
 1 -0.17461829382938  6.99340162586259 -0.15229427232723
 1 -3.60722862986299  5.92222984868487 -1.85933013551355
 1 -5.06338904610461  6.09736285238524 -1.33174305150515
 1 -4.55027850475048  4.48310848114811 -1.68387789578958
 1  3.68260666116612 -4.43543975647565  1.91946272867287
 1  7.93288131273127 -1.84947433643364  1.93669105210521

