%nproc=4
%Mem=2GB
# td=(NStates=1) B3LYP/SVP 

TD

0 1
 8 -4.32747425822582 -4.91573594479448  1.82209623802380
 8  3.22361639033903 -4.98072937973797  1.09928406570657
 8  7.08484478877888 -1.38076534623462  2.01534421392139
 8  3.69142419991999 -3.14123214821482 -0.05500884028403
 8  7.58199773637364 -0.50435033013301 -0.04738077077708
 8 -3.00543612971297  2.42704075487549 -0.52220378177818
 7 -0.30127712241224 -0.45998019111911 -0.77018403130313
 7  1.62730122282228  1.95338577107711 -0.48791036863686
 7 -3.32579456845685 -3.08881999499950  0.81593791239124
 7 -0.70989948564856  2.88989013841384 -0.17282112791279
 6  0.51599386368637 -2.37177513591359 -1.43861615671567
 6  0.82976587888789 -1.02975020672067 -1.06077492639264
 6 -0.73394752345235 -2.62174053625363 -1.14023608630863
 6 -1.32510293229323 -1.40582089348935 -0.78853798379838
 6  3.78910737153715  1.50148331483148 -0.36381064786479
 6  2.47966007180718  0.89786161166117 -0.61345553055306
 6  2.19377462766277 -0.38813607150715 -0.97364683928393
 6  3.58320896099610  2.85542534473447  0.02524051435143
 6  1.56975838093809 -3.38384008530853 -1.95593293889389
 6 -5.56467537423742 -2.80146576147615  1.28017528182818
 6 -3.60070392969297 -1.79771474737474  0.35763169496950
 6  2.15029934203420  3.00318031223122  0.05811343474347
 6 -5.03950664696470 -1.66958592249225  0.49192323622362
 6  5.09064432633263  0.82176709360936 -0.47026598529853
 6 -2.70436525222522 -1.00517907330733 -0.32920939473947
 6 -1.53503316541654 -3.78300805390539 -1.54579489628963
 6 -4.33816348474847 -3.77171140294029  1.50488561416142
 6  2.05198633233323 -4.58898792249225 -0.89008823562356
 6  5.34314311671167 -0.14366248974897  0.75756830403040
 6  4.60715677697770  3.80531338063806  0.48765096539654
 6  1.29712839123912  4.17198174847485  0.28609032963296
 6 -6.75970062066207 -3.60186496629663  0.65451451355136
 6 -5.74560414101410 -0.59429521352135 -0.03551638473847
 6 -0.08953687298730  4.02128037783778  0.28393020492049
 6 -1.04508960756076  5.21534906860686  0.53618208370837
 6 -2.31958143184318  4.65632713411341  0.26766267226723
 6  3.06963354535454 -4.15513818401840  0.07940562976298
 6 -5.30902461196120  0.50122541114111 -0.93088455325533
 6  6.68823870287029 -0.71751722132213  0.80523142134213
 6 -3.61387893079308  5.25845690419042  0.49055356605661
 6 -2.08658821042104  3.26459142014201 -0.19450522032203
 6 -0.81027161826183  6.58522419241924  1.09210826242624
 6 -4.37190675327533  5.61029698639864 -0.89506859835984
 1 -0.33104468936894  0.66062292809281 -0.65092483218322
 1  3.09012637363736 -1.13918205940594 -1.00226031343134
 1  2.48106798809881 -2.84608620522052 -2.39494604170417
 1  1.17952895909591 -4.01743585448545 -2.64711307140714
 1 -5.89831155845585 -2.40227885258526  2.31820236013601
 1  5.29174168666867  0.18964834623462 -1.43008335563556
 1  5.84718328572857  1.70496002410241 -0.36576015061506
 1 -2.82630884858486 -0.00873308300830 -0.74490488798880
 1  0.64904213481348  2.04596444034403 -0.60289773527353
 1 -1.71012574837484 -4.70341491199120 -0.74933444324433
 1 -2.59805991699170 -3.69896048244824 -1.75607374047405
 1 -1.17107228712871 -4.29274634343434 -2.53129871917192
 1 -2.41468385468547 -3.56081581228123  0.56538920412041
 1  1.30861169046905 -5.09535223352335 -0.33822921282128
 1  2.20956706110611 -5.50475458235824 -1.41100648254825
 1  4.59507474047405 -1.18732989638964  0.69935967206721
 1  5.04904925032503  0.39719575827583  1.64359216231623
 1  4.10304082968297  4.93720413681368  0.14555318351835
 1  5.62708580028003  3.48708624182418 -0.23279749014902
 1  4.88431546414641  3.71546701880188  1.73153887078708
 1  1.74227500610061  5.04849402680268  0.46493756895690
 1 -7.75508707700770 -3.05305038853885  0.77316858645865
 1 -7.08385244914491 -4.47245362746275  1.19426526692669
 1 -6.61596729372937 -3.89958737483748 -0.24067197879788
 1 -6.92962748504850 -0.52807371587159  0.41503950505051
 1 -4.91257022912291  1.29250407130713 -0.31070833213321
 1 -6.14425280268027  1.06258533353335 -1.32229654575458
 1 -4.73019233123312 -0.00117995579558 -1.60036680148015
 1 -3.53414540004000  6.20828523362336  0.99911678817882
 1 -4.43989542774277  4.61929426132613  1.04301032733273
 1 -0.30642978747875  6.55553611901190  1.91679152075208
 1 -1.64347045734573  7.17993144784478  1.27658701040104
 1 -0.26324715671567  7.06660894659466  0.11824278137814
 1 -3.89282718971897  6.42777040274027 -1.56474067656766
 1 -5.33057576477648  6.10086320242024 -0.70472034923492
 1 -4.45883936083608  4.74084425472547 -1.56691619961996
 1  4.02389078957896 -4.89493570607061  1.63480426282628
 1  7.82302032663266 -1.85628501750175  1.78276565956596

