%nproc=4
%Mem=2GB
# td=(NStates=1) B3LYP/SVP 

TD

0 1
 8 -4.13071458225823 -4.95623999519952  1.79783381178118
 8  2.96153018171817 -5.02796410321032  0.92779691699170
 8  6.93422972727273 -1.48671594129413  2.08225090459046
 8  3.81359641714171 -3.17928595359536 -0.03431677107711
 8  7.54715425202520 -0.72123201830183 -0.02275830853085
 8 -3.02259784588459  2.39709776057606 -0.38986054745475
 7 -0.25467246194619 -0.51234542764276 -0.59203621652165
 7  1.57206569926993  1.83048348084808 -0.36729830743074
 7 -3.26331832083208 -3.05683679667967  0.74726104470447
 7 -0.81963045874587  2.95051620102010 -0.05505935173517
 6  0.62681494579458 -2.29960791919192 -1.45232752785279
 6  0.97519042134213 -1.07327455915592 -0.99261811071107
 6 -0.76108023672367 -2.52519088128813 -1.36026808950895
 6 -1.25592601460146 -1.32239255065507 -0.76897602760276
 6  3.81064952575257  1.49971313781378 -0.24298856565657
 6  2.53995610141014  0.83027485298530 -0.50350453545355
 6  2.20622587278728 -0.42699995789579 -0.91201067566757
 6  3.57783842394239  2.78379818201820  0.07019500980098
 6  1.70295170027003 -3.28908060936094 -2.15033237883788
 6 -5.42966187288729 -2.89379499439944  1.30670793509351
 6 -3.58524238353835 -1.85820079597960  0.30343627542754
 6  2.07400171227123  3.04829482368237 -0.03002537913791
 6 -5.00827352365237 -1.57900686458646  0.66086012991299
 6  5.09636489838984  0.81293621052105 -0.32975193389339
 6 -2.64034885058506 -1.05546410181018 -0.27158363216322
 6 -1.45159482158216 -3.77472722582258 -1.82050236703670
 6 -4.26490615901590 -3.80101433323332  1.32780790639064
 6  2.19042017571757 -4.47843686738674 -1.27421664846485
 6  5.37225602800280 -0.15567369086909  0.94576712391239
 6  4.53509957125713  3.83972682198220  0.54852705300530
 6  1.22362104050405  4.14343889418942  0.37822954355436
 6 -6.82553720432043 -3.41757653745375  0.99745880798080
 6 -5.80379996059606 -0.51744752875288  0.32550971787179
 6 -0.24789270857086  4.01114936473647  0.23249506140614
 6 -1.23548864746475  5.19953748744874  0.34713317881788
 6 -2.41055052875288  4.70383188458846  0.17220312631263
 6  3.05619220122012 -4.10410308050805 -0.08469077987799
 6 -5.52137584708471  0.63005829442944 -0.61811327612761
 6  6.71576145514551 -0.76951242084208  0.95984688288829
 6 -3.68046558945895  5.40377143564356  0.32054656535654
 6 -2.16392594419442  3.20847580858086 -0.17208297809781
 6 -0.77233782488249  6.55466113611361  0.62442149374937
 6 -4.29551911451145  5.50364632133213 -1.16707579907991
 1 -0.30257184208421  0.33791065686569 -0.05130487018702
 1  3.18024538553855 -1.07429557075708 -1.07019710711071
 1  2.59501938323832 -2.70221181778178 -2.31005755285529
 1  1.18532953915392 -3.66986109700970 -2.96391475157516
 1 -5.54250597789779 -2.61033965866587  2.34841538143814
 1  5.19102161466147  0.28551793319332 -1.40943129042904
 1  5.96158472587259  1.50694022212221 -0.41521509610961
 1 -2.72348856655666  0.07938572887289 -0.47666806430643
 1  0.57649488008801  1.80568041194119 -0.43147059255926
 1 -1.48130286608661 -4.67363193369337 -1.27895740554055
 1 -2.46512662366237 -3.65183576997700 -2.10367850095010
 1 -0.82454763466347 -4.35713278207821 -2.66663225252525
 1 -2.35547793409341 -3.32255198589859  0.69440210541054
 1  1.45303613291329 -5.22425512381238 -1.04795018491849
 1  2.89659576397640 -5.12046615351535 -2.00817619951995
 1  4.55248048104810 -0.95552671607161  0.90216995309531
 1  5.10175452085208  0.53405944464446  1.76055385848585
 1  3.95834636023602  5.10673108950895  0.58955758395840
 1  5.76797988968897  3.81524905810581  0.00144593419342
 1  4.74863189578958  3.80965643774377  1.72661837873787
 1  1.57154793339334  5.15492466986699  0.48826990219022
 1 -7.72168373667367 -2.75038012151215  1.25609687928793
 1 -7.00629469336934 -4.33992037413741  1.48821466186619
 1 -6.77620331733173 -3.60143755985599 -0.05282319391939
 1 -6.80387490979098 -0.66949785828583  0.78033603470347
 1 -4.95441441354135  1.50593541444144 -0.29108636993699
 1 -6.66693507090709  1.02258133313331 -0.66491080718072
 1 -5.04894420642064  0.22897305950595 -1.54127089188919
 1 -3.48258024352435  6.41258566366637  0.58762563906391
 1 -4.42134357255726  4.98907123902390  1.15470149644965
 1 -0.09798894339434  6.59305987138714  1.57619746134613
 1 -1.61572768306831  7.18863231793179  0.85637498919892
 1 -0.16858769076908  6.98869115481548 -0.30507955085509
 1 -3.59804771177118  6.00403802950295 -1.76790099259926
 1 -5.16914962216222  6.03572668876888 -1.16729660686069
 1 -4.33065654255426  4.55199536983698 -1.47019652765277
 1  3.63462186268627 -4.50230644314431  1.55144592699270
 1  7.92670069466947 -1.93178256725673  2.17021440444044

