%nproc=4
%Mem=2GB
# td=(NStates=1) B3LYP/SVP 

TD

0 1
 8 -4.16211772257226 -4.89365373657366  1.92303633203320
 8  3.04043807250725 -5.02558386518652  0.92592672997300
 8  6.93131943624362 -1.58633590329033  1.78057073657366
 8  3.88431348884888 -3.33986201120112 -0.25183852325233
 8  7.57553709030903 -0.45659555465547 -0.02279831253125
 8 -3.06765235133513  2.37043509430943 -0.40029159055906
 7 -0.18598559325933 -0.58012220532053 -0.57394440734073
 7  1.50416890959096  1.83093352585259 -0.24666624422442
 7 -3.25128711771177 -3.11951306430643  0.79023534213421
 7 -0.81814030973097  2.90658180758076 -0.16157000280028
 6  0.65911817611761 -2.30667862626263 -1.44746704180418
 6  0.97941084338434 -1.03854108580858 -0.90812966186619
 6 -0.74063819251925 -2.49415777797780 -1.25428749144914
 6 -1.26874729672967 -1.30148045944595 -0.57929705970597
 6  3.70362882368237  1.59041220772077 -0.38081234803480
 6  2.51348345414541  0.86227805330533 -0.45800998599860
 6  2.26386163636364 -0.50930818871887 -0.71388086268627
 6  3.52612325242524  2.82708251045104  0.16111410171017
 6  1.61171257635764 -3.36084778607861 -1.94319166476648
 6 -5.53098200490049 -2.83839945484548  1.35534279857986
 6 -3.57205106440644 -1.85986096199620  0.35303123492349
 6  2.05412972507251  2.95350534473447  0.14537216061606
 6 -5.02228492479248 -1.74781374527453  0.47734177807781
 6  5.09519478137814  0.83352826972697 -0.30307926662666
 6 -2.66001081678168 -0.96960551595160 -0.29422589638964
 6 -1.56880654275428 -3.61657141024102 -1.88793911071107
 6 -4.27270693909391 -3.67584181598160  1.51868699429943
 6  2.01965309900990 -4.50602962666267 -1.07024625142514
 6  5.28904770717072 -0.08203632713271  0.80405295249525
 6  4.51469753105311  3.91960480978098  0.67007920822082
 6  1.29523820222022  4.14718926922692  0.41264298489849
 6 -6.75600025062506 -3.67278205800580  0.78832789488949
 6 -5.81460104070407 -0.65680146414641  0.20479764666467
 6 -0.07959587888789  4.04103235303530  0.20944275617562
 6 -0.99918501710171  5.16846438013801  0.42820128562856
 6 -2.31184065776578  4.68343984538454  0.12830873687369
 6  3.02371895389539 -4.19189185938594 -0.04628693949395
 6 -5.50456416591659  0.57867315591559 -0.71713317811781
 6  6.71864174317432 -0.67363283288329  0.82454335253525
 6 -3.68496603950395  5.41199225772577  0.11626613731373
 6 -2.15253480508051  3.25778073907391 -0.22953872367237
 6 -0.68156874797480  6.56833250325033  0.81290034163416
 6 -4.29712927552755  5.76425238193819 -1.25760485198520
 1 -0.18500008490849  0.28024489028903  0.21486174647465
 1  3.19577693869387 -1.14355249644965 -0.69846993439344
 1  2.50516039733973 -2.68782037863786 -2.31224777187719
 1  1.06474748094809 -3.74528863976398 -2.78755711581158
 1 -5.88240996829683 -2.58439706440644  2.37447798769877
 1  5.18476098859886  0.33539292069207 -1.32039238653865
 1  5.89750831823182  1.66812634073407 -0.44534810941094
 1 -2.81738795649565  0.11768955925593 -0.48256865436544
 1  0.42169940054005  1.89077892179218 -0.59447689318932
 1 -1.68322305810581 -4.67059162966297 -1.09428893869387
 1 -2.53274338533853 -3.33020360676068 -2.14027216031603
 1 -0.97998317821782 -4.07741481028103 -2.91306689598960
 1 -2.48519090539054 -3.58674840554055  0.35913857905791
 1  1.16289711901190 -4.93280597889789 -0.44376976687669
 1  2.51944804920492 -5.25891999889989 -1.76732211411141
 1  4.64750998399840 -1.09981114451445  0.61425116121612
 1  5.13790813621362  0.23713975267527  1.79565736883688
 1  4.91874239983998  4.69013943034304 -0.22333370517052
 1  5.56090918261826  3.42664019721972  0.59726551615162
 1  4.38174520712071  4.37877334943494  1.59458517541754
 1  1.66398717731773  4.96624580198020  0.92055313051305
 1 -7.54006557485749 -3.15512059555956  0.97872914251425
 1 -6.96511057495750 -4.60779716181618  1.55501134153415
 1 -6.46096179317932 -3.85343275937594 -0.31720963256326
 1 -7.00141466376638 -0.78094900340034  0.21533953505350
 1 -5.21695066716672  1.51714653555356 -0.04747200850085
 1 -6.39691806920692  0.78025710071007 -1.26558087418742
 1 -4.60572988498850  0.29774993719372 -1.42164892969297
 1 -3.69211119661966  6.29573397849785  0.73567044354435
 1 -4.53972541074107  4.74050638253825  0.76803282958296
 1 -0.41679082358236  6.59422998839884  1.83927376897690
 1 -1.66459256955696  7.15346880158016  0.53385273697370
 1 -0.14841567356736  6.97604989068907  0.05631658875888
 1 -3.42449035603560  6.35890351605160 -1.72033623612361
 1 -5.19404211141114  6.16840995709571 -1.28301817901790
 1 -4.56720019691969  4.98457862816282 -1.79910941894189
 1  3.82864126462646 -4.78404461696170  1.37777856025603
 1  7.84610263486349 -1.91080046904690  1.71752913591359

