%nproc=4
%Mem=2GB
# td=(NStates=1) B3LYP/SVP 

TD

0 1
 8 -4.25962747354736 -4.80840521172117  1.89408343674367
 8  3.25291932063206 -5.17797910471047  0.84012815011501
 8  6.72767907220722 -1.79263653335334  1.90311299079908
 8  3.88986404390439 -3.28182620762076 -0.20964430383038
 8  7.70581011761176 -0.47710760586059  0.26621058835884
 8 -3.09953553965397  2.43755180598060 -0.23253481488149
 7 -0.26476347104710 -0.53475766886689 -0.61796880978098
 7  1.50725921862186  1.89136956945695 -0.41712328992899
 7 -3.28600058905891 -3.16900801380138  0.48530484908491
 7 -0.77715621132113  2.89515066446645 -0.03262710851085
 6  0.71223348764876 -2.35436339473947 -1.40776307140714
 6  0.91802470477048 -1.02903013471347 -0.92104095299530
 6 -0.65840996969697 -2.60839920212021 -1.27825988868887
 6 -1.35620604260426 -1.44118442984298 -0.81195032503250
 6  3.73712217301730  1.52039520602060 -0.28903317011701
 6  2.45268737453745  0.89209103460346 -0.50251443644364
 6  2.18906415661566 -0.36438369626963 -0.81011048564856
 6  3.51748238833883  2.84354415661566  0.06366435673567
 6  1.66403780888089 -3.32741444274427 -2.09565691129113
 6 -5.45245415211521 -2.69798541344134  1.40839810411041
 6 -3.62322618191819 -1.84578955485549  0.21588752055206
 6  2.01567587968797  2.98166816101610  0.01831945534553
 6 -5.01226392269227 -1.57255621952195  0.60362440634063
 6  5.15354061596160  0.85613052995300 -0.29244820352035
 6 -2.64430924662466 -0.99291784718472 -0.32813928772877
 6 -1.39372903500350 -3.81727148024802 -1.76358667546755
 6 -4.23964363276328 -3.74364859665967  1.34614974057406
 6  2.10141127482748 -4.46447547124712 -1.20098932573257
 6  5.37010581298130 -0.17147527102710  0.91672421962196
 6  4.45433149444944  4.01606445574557  0.52516471677168
 6  1.31401007940794  4.17309185948595  0.28544026462646
 6 -6.74121877247725 -3.52234701450145  1.02216127822782
 6 -5.79488906950695 -0.49249503350335  0.32841000790079
 6 -0.15775369466947  4.06582483228323  0.21536334823482
 6 -1.09683478207821  5.19892742644264  0.34946341184118
 6 -2.36568604230423  4.70966246764676  0.12405831183118
 6  3.16163274527453 -4.21102377257726 -0.11946425722572
 6 -5.56149985948595  0.62317760636064 -0.58955041984198
 6  6.73318319731973 -0.79384485408541  0.95210610881088
 6 -3.75885342824282  5.42350340884088  0.27499200990099
 6 -2.16202575417542  3.26986194719472 -0.03541931173117
 6 -0.70453104420442  6.59403507350735  0.65259431103110
 6 -4.38694825742574  5.40108606530653 -1.18229732123212
 1 -0.76283786868687  0.46225309110911 -0.13993373307331
 1  3.09315667666767 -1.11692983418342 -0.71629171657166
 1  2.56351623292329 -2.74083568016802 -2.60300684778478
 1  1.30147115331533 -3.90123423432343 -2.91678003810381
 1 -5.41416314361436 -2.33859248394840  2.38682922282228
 1  5.32962547504751  0.30034941634163 -1.19808015531553
 1  5.91916048344834  1.83109263736374 -0.35263883848385
 1 -2.85725194289429  0.04804259455946 -0.24919531703170
 1  0.58424565516552  1.86732657655766 -0.75200264576458
 1 -1.57721245704570 -4.60261483198320 -1.12919242904290
 1 -2.50183029402940 -3.51906249264927 -2.00465859895990
 1 -0.89821500140014 -4.12565963476348 -2.65452104140414
 1 -2.31970435673567 -3.38251798249825  0.66385905110511
 1  1.15399622892289 -4.85168786708671 -0.73674906480648
 1  2.71590769516952 -5.11107521442144 -2.06291167306731
 1  4.61059629262926 -1.09378054145415  0.96598633473347
 1  5.27064140954095  0.38046408510851  1.80854865796580
 1  4.29408993459346  4.73602401880188 -0.22850422222222
 1  5.39608269997000  3.68655618881888  0.62585837543754
 1  4.27708474107411  4.28403387548755  1.45110082698270
 1  1.70245102370237  5.08556773417342  0.60571164636464
 1 -7.53885545384538 -2.82377746124612  1.00982225182518
 1 -7.03315737963796 -4.34119050115012  1.58916475687569
 1 -6.75402109910991 -3.81969938603860  0.06530861926193
 1 -6.78484300660066 -0.67216812531253  0.51881988308831
 1 -5.16710568266827  1.51292611351135 -0.05050231153115
 1 -6.51729010641064  1.25444451945195 -0.92277659375938
 1 -4.75592490449045  0.41464162636264 -1.32583934873487
 1 -3.57154914041404  6.52272667776778  0.47159403590359
 1 -4.60052149034903  4.93598593049305  0.80264629092909
 1 -0.18030717521752  6.88650921632163  1.49048889048905
 1 -1.35608171847185  7.35723917861786  0.50274962666267
 1  0.03996316431643  7.10178246394640 -0.01054009690969
 1 -3.97932583958396  6.08811643734373 -1.98129233173317
 1 -5.45744845204520  5.71407452355236 -1.07561743894389
 1 -4.54627810471047  4.28447861816182 -1.70482999099910
 1  4.00735913641364 -5.05437164966497  1.54034481688169
 1  7.56776480108011 -2.17335672467247  1.90127751075107

