%nproc=4
%Mem=2GB
# td=(NStates=1) B3LYP/SVP 

TD

0 1
 8 -4.35349686048605 -4.82824719591959  1.96176020442044
 8  3.05252928162816 -5.12423373017302  0.97395153245325
 8  6.94167047134713 -1.52319958965897  1.90152283178318
 8  3.66816187368737 -3.06895492049205  0.04226088668867
 8  7.63438297489749 -0.33063295839584  0.08251221852185
 8 -3.02374796089609  2.43147119791979 -0.45937749914991
 7 -0.25106210091009 -0.49139333243324 -0.55744275717572
 7  1.58466695939594  1.77026745924592 -0.45781735933593
 7 -3.42325431443144 -3.28373948694869  0.57326364496450
 7 -0.82429092479248  2.94491564096410  0.00031618581858
 6  0.68050031433143 -2.32471042944294 -1.53413570867087
 6  0.93674657695770 -1.02639987168717 -1.00582943184318
 6 -0.66062019071907 -2.59813817601760 -1.23000506320632
 6 -1.18484890689069 -1.50421073247325 -0.70570970097010
 6  3.83463192399240  1.48473163966397 -0.37136140294029
 6  2.57829993579358  0.84076590209021 -0.60087427242724
 6  2.17011226142614 -0.50094735263526 -0.86638611321132
 6  3.42996363646365  2.78683848604860 -0.00019202890289
 6  1.73475488058806 -3.26322802410241 -2.01364871047105
 6 -5.53951285798580 -2.75687130203020  1.32560982528253
 6 -3.54217807710771 -1.93207818371837  0.23589952175218
 6  2.05630994309431  2.99562955715572 -0.03530590719072
 6 -4.97642033833383 -1.65144410831083  0.52312635653565
 6  5.10272553445345  0.85852076897690 -0.36069502820282
 6 -2.61492630833083 -1.17950650605060 -0.34081055485549
 6 -1.45031469356936 -3.79909966306631 -1.75905622242224
 6 -4.44590425882588 -3.77059129092909  1.32614774037404
 6  2.06070720442044 -4.43847287098710 -1.05992521932193
 6  5.37169597199720 -0.19243736723672  0.77297984518452
 6  4.56246230753075  3.85022787208721  0.40770297059706
 6  1.31281996039604  4.09381393169317  0.30104182478248
 6 -6.84633928452845 -3.41238601840184  0.87658672077208
 6 -5.72276185678568 -0.58110389438944  0.20545771267127
 6 -0.16439435873587  4.02371062086209  0.34957676957696
 6 -1.07904300290029  5.14223175687569  0.57803626912691
 6 -2.30022949664966  4.68426992839284  0.08267417341734
 6  3.03162974497450 -4.09709237943794  0.03960164936494
 6 -5.43088679817982  0.61612690129013 -0.62320378517852
 6  6.82435231423142 -0.60890636023602  0.84845574377438
 6 -3.69572711561156  5.44558561706171  0.28964347504750
 6 -2.13047259885989  3.25729069006901 -0.21979774957496
 6 -0.79929052015202  6.57708337833783  0.98603765536554
 6 -4.32353191579158  5.63495945264526 -1.08879797129713
 1 -0.39001058595860  0.34084094989499 -0.14964470417042
 1  3.04400176117612 -1.23531167236724 -1.11625171257126
 1  2.69172905420542 -2.74595619221922 -2.19803635073507
 1  1.24038504470447 -3.79083319421942 -2.94851321142114
 1 -5.73380510781078 -2.72407103180318  2.37213775367537
 1  5.14153666616662  0.16317569896990 -1.21455180248025
 1  5.94096266366637  1.51614114221422 -0.53356693129313
 1 -2.74981119881988 -0.04024623432343 -0.53058345584558
 1  0.60336756735674  2.16670651455146 -0.48918636413641
 1 -1.62705744154415 -4.54824939543954 -0.85509501930193
 1 -2.48244835583558 -3.58389897629763 -2.08901703480348
 1 -0.83352853275328 -4.51340840964096 -2.46853244254425
 1 -2.50867325362536 -3.70722045274527  0.56300896609661
 1  1.21605243454345 -4.88644134243424 -0.44706009590959
 1  2.53018912331233 -5.20997510441044 -1.53347872977298
 1  4.78311354435444 -0.99744090749075  0.92632236833683
 1  5.18027237263726  0.26580261896190  1.72204000710071
 1  4.29323984958496  4.94989540594059 -0.11217258905891
 1  5.51774486618662  3.47203473667367 -0.14240845124512
 1  4.69889692229223  3.99984545664566  1.51356707360736
 1  1.92606338493849  5.01855103250325  0.93251432663266
 1 -7.83981554985499 -2.76012109560956  1.10113138273827
 1 -7.10336440034003 -4.37822420452045  1.42256809720972
 1 -6.67593329032903 -3.68531594769477 -0.18595650725073
 1 -6.76031055335534 -0.64740564906491  0.46689469056906
 1 -4.91364033613361  1.41991681258126 -0.06784404570457
 1 -6.46916529392939  0.93125220022002 -0.89642395849585
 1 -4.70605991799180  0.11726188838884 -1.53202996779678
 1 -3.72022400790079  6.36814121922192  1.00063694019402
 1 -4.22655409360936  4.62440477237724  0.80581660796080
 1 -0.12825196969697  6.30631119651965  1.86076591819182
 1 -1.78807491779178  7.05929938463846  1.02814216591659
 1 -0.13220405240524  7.16605889158916  0.22697365446545
 1 -3.65424333133313  6.49794742044204 -1.59921412391239
 1 -5.43841654885489  5.86219933603360 -0.88645852305231
 1 -4.15569904680468  4.53364353465347 -1.77019652765276
 1  3.85258365886589 -4.87758397089709  1.50345112751275
 1  7.85838386298630 -1.82003139213921  1.75761314431443

