%nproc=4
%Mem=2GB
# td=(NStates=1) B3LYP/SVP 

TD

0 1
 8 -4.31502301310131 -4.99323369456946  1.67793182158216
 8  2.80785481418142 -4.86665797259726  1.06023016031603
 8  6.88131443574357 -1.54042131183118  1.88352103160316
 8  3.80948600610061 -3.17882590759076 -0.07163050245025
 8  7.67057659425943 -0.60095999109911 -0.02826885958596
 8 -2.96596218231823  2.29719777057706 -0.28642020342034
 7 -0.22966996169617 -0.47521171427143 -0.47581459435944
 7  1.60205869856986  1.91597202970297 -0.35980755835584
 7 -3.30159214821482 -3.23506461946195  0.65894221282128
 7 -0.78488698439844  2.77793894329433 -0.07391123692369
 6  0.61772403670367 -2.34462242064206 -1.38896119121912
 6  0.96351925422542 -1.00781801350135 -0.89047789668967
 6 -0.74237836653665 -2.56503486568657 -1.19038110081008
 6 -1.30928135013501 -1.38632894429443 -0.57149627962796
 6  3.85479394019402  1.57236040254025 -0.22506677347735
 6  2.52260436623662  0.95303712921292 -0.53675786078608
 6  2.28331358155816 -0.34293155105511 -0.94652412701270
 6  3.57745838593859  2.88112791499150  0.11563955425543
 6  1.59730113521352 -3.28339004030403 -2.03485083068307
 6 -5.54396330303030 -2.79954556945695  1.30909817411741
 6 -3.60326418571857 -1.94948992489249  0.21536746854685
 6  2.13217752985299  3.09239923412341 -0.04679705630563
 6 -5.01999469576958 -1.62379134303430  0.49951399529953
 6  5.20783604550455  0.91889680658066 -0.32446140484048
 6 -2.63553836953695 -1.07045560096010 -0.38789526332633
 6 -1.54280394249425 -3.72397215031503 -1.58977929472947
 6 -4.40125979437944 -3.89856408820882  1.22383750935093
 6  2.03001413511351 -4.43421244494449 -1.19118834563456
 6  5.41327012941294 -0.07809593309331  0.83699624682468
 6  4.52236829812981  3.96651950125012  0.42271447174717
 6  1.33069174757476  4.15350990129013  0.35912763336334
 6 -6.85085973657366 -3.44248902870287  1.01735079717972
 6 -5.82571215181518 -0.63773955795580  0.10485765266527
 6 -0.15649356865687  4.04180243004300  0.15040685258526
 6 -1.19432453105311  5.14937247094710  0.33867233273327
 6 -2.31669114281428  4.59480098149815  0.20380628662866
 6  3.00485706770677 -4.05838850905091 -0.02753506430643
 6 -5.46079978947895  0.60802609120912 -0.64241570637064
 6  6.80874075307531 -0.73971944154415  0.81515241344134
 6 -3.58285582848285  5.20116117461746  0.25255976667667
 6 -2.09162871447145  3.10844580558056 -0.06871264106411
 6 -0.74331492259226  6.53909957995800  0.74577362896290
 6 -4.20965052765277  5.54235019171917 -1.08830792229223
 1 -0.57272885778578  0.42289915571557  0.04563482378238
 1  3.03298065906591 -0.99786792799280 -0.98840892829283
 1  2.51316119741974 -2.90195179177918 -2.31891843894389
 1  1.27699870607061 -3.76407051795180 -2.95721408150815
 1 -5.53170489778978 -2.34039266396640  2.20589112901290
 1  5.31995450795080  0.41189057045705 -1.41624197149715
 1  5.96272483988399  1.72739226732673 -0.36008958355836
 1 -2.77903412111211  0.05596338663866 -0.33183358085809
 1  0.59630686128613  1.77313715761576 -0.43337078257826
 1 -1.16249098489849 -4.64139871037104 -0.88616812661266
 1 -2.68610872187219 -3.62371295769577 -1.59363749684968
 1 -1.18753393329333 -3.99170623942394 -2.52694828412841
 1 -2.29436182248225 -3.65094482518252  0.56318898409841
 1  0.99971080038004 -4.83090578887889 -0.78322371227123
 1  2.60624672907291 -5.08035214211421 -1.90710609250925
 1  4.63604883788379 -0.79674083748375  0.75532526862686
 1  5.27546189158916  0.30306634533453  1.84266206930693
 1  4.37498802440244  4.77490790719072 -0.20016138793879
 1  5.65218831053105  3.76060359355936  0.41350714031403
 1  4.44708174077408  4.55640111221122  1.57379309620962
 1  1.61560233883388  4.92770194759476  0.88323939913991
 1 -7.57430899919992 -2.67986306980698  0.90101137073707
 1 -7.17204126802680 -4.21050743284328  1.93055889628963
 1 -7.00819651665167 -4.21224864096410  0.15119720812081
 1 -6.93231775407541 -0.99931083958396  0.21950995209521
 1 -4.99671864396440  1.51610643154315  0.03318605730573
 1 -6.34578295569557  1.06992606760676 -1.27700201630163
 1 -4.61555086708671  0.42921308350835 -1.20496726152615
 1 -3.75792777827783  6.08027243234323  0.78950582708271
 1 -4.08862030023002  4.45911824372437  0.65068109440944
 1 -0.27127627212721  6.53432399779978  1.83023286488649
 1 -1.52273838413841  7.39203265796580  0.68900825252525
 1  0.28140730873087  6.98279056475648  0.20872182928293
 1 -3.84303221022102  6.49999762546255 -1.60038424092409
 1 -5.34437714491449  5.78302141824182 -1.06854673187319
 1 -3.83334681158116  4.72776294659466 -1.78266777477748
 1  3.62176057655766 -4.49128534103410  1.47936871927193
 1  7.73721174577458 -2.00391978097810  1.70816819981998

