%nproc=4
%Mem=2GB
# td=(NStates=1) B3LYP/SVP 

TD

0 1
 8 -4.45685719651965 -5.01543591479148  1.74466849524952
 8  3.02233626232623 -4.75065637243724  1.08788292559256
 8  6.77524382868287 -1.48803607330733  1.99728240774077
 8  3.76982203970397 -2.94025205020502 -0.05636897629763
 8  7.40802033863386 -0.72481237633763 -0.05531156385639
 8 -3.11894748084808  2.52201025182518 -0.52406396779678
 7 -0.24315130983098 -0.53784797789779 -0.67249426232623
 7  1.53102159485949  1.91044147664766 -0.49904148174817
 7 -3.29792178117812 -3.25426653965397  0.72535885448545
 7 -0.82387088278828  2.86785793519352 -0.14432827862786
 6  0.74573683798380 -2.29464742314231 -1.51111340644064
 6  1.00187308960896 -1.02600983268327 -1.13110195909591
 6 -0.66764089278928 -2.67065542774277 -1.28808087078708
 6 -1.24786520852085 -1.50292060346035 -0.73675280528053
 6  3.79380784158416  1.55346851335134 -0.29326359315932
 6  2.52727483328333  0.96736856235624 -0.62461664666467
 6  2.28744399459946 -0.39680693859386 -1.00295977057706
 6  3.60373101320132  2.88484828702870  0.04094208450845
 6  1.70285169026903 -3.30122182348235 -2.05527287288729
 6 -5.55384429112911 -2.79600521542154  1.36102336663666
 6 -3.51027488678868 -1.88993396929693  0.25461139293929
 6  2.13431774387439  3.05767576177618  0.06192381578158
 6 -4.93488618491849 -1.55821478537854  0.59424346824682
 6  5.09349461136114  0.77234215111511 -0.39923888258826
 6 -2.54842965866587 -1.12445100050005 -0.35219169296930
 6 -1.36490615271527 -3.89818957205721 -1.66240655745575
 6 -4.42023169156916 -3.87405163696370  1.35445057065707
 6  2.13737487118712 -4.40053907760776 -1.04243347014701
 6  5.29962876527653 -0.16478460196020  0.85797834503450
 6  4.41615767706771  4.04584743404340  0.38715091539154
 6  1.22928160656066  4.00875542584258  0.36334805540554
 6 -6.89208385898590 -3.36675145494549  1.08613767586759
 6 -5.79201878247825 -0.65766155015502  0.14441160806081
 6 -0.12444036333633  3.89910816061606  0.32778459035904
 6 -1.06658175677568  5.11890942464246  0.56733519901990
 6 -2.25274474817482  4.64274577597760  0.25979188518852
 6  3.07237381938194 -4.00141281148115 -0.00938324912491
 6 -5.32162587208721  0.60004529312931 -0.74734619941994
 6  6.60883076207621 -0.87047251685168  0.88876977517752
 6 -3.63680122302230  5.31672273077308  0.34989950065006
 6 -2.15468502010201  3.20798575957596 -0.12339810961096
 6 -0.68851944304430  6.39922559255926  0.92794184578458
 6 -4.17145670827083  5.58094405110511 -1.06411550305030
 1 -0.42002358725873  0.28495536133613 -0.07825756545655
 1  3.04468182918292 -0.98846698789879 -1.11449153655365
 1  2.62692257355736 -2.84980657725773 -2.50800734783478
 1  1.34934594079408 -3.78377248814881 -2.89191755185519
 1 -5.49661138843884 -2.43089171387139  2.41416195609561
 1  5.12410492299230  0.22258163956396 -1.38470881818182
 1  5.97494606200620  1.48972850095009 -0.39285285988599
 1 -2.82495871357136  0.01655944624462 -0.29375977347735
 1  0.60741797239724  1.96188603250325 -0.61821926742674
 1 -0.97718245404540 -4.68834340484048 -0.95980549034904
 1 -2.49035914691469 -3.73623420982098 -1.41575970907091
 1 -1.22483766366637 -4.10555762456246 -2.69208479777978
 1 -2.35972835913591 -3.75028475917592  0.86691935713571
 1  1.22134296359636 -4.85627832613261 -0.39508489838984
 1  2.54726083048305 -5.38992309920992 -1.63899928182818
 1  4.48802403540354 -0.86607777117712  0.99860959705971
 1  5.06169051445145  0.31172721142114  1.90401820492049
 1  4.20927145274528  4.67629804620462 -0.32329370117012
 1  5.39277236893689  3.75366289948995  0.57486327592759
 1  4.16567359996000  4.78943441554155  1.46218193509351
 1  1.69001978057806  4.99244842224222  0.65663673887389
 1 -7.60891245954595 -2.64957004050405  1.28243951355135
 1 -7.09482354625463 -4.18320470257026  1.61059690009001
 1 -7.02935863286329 -3.36153356945695 -0.28813672527253
 1 -6.65039956225623 -0.74511542004200  0.65670367146715
 1 -4.76798577067707  1.18578339923992 -0.12787004830483
 1 -6.25419379677968  1.06981605660566 -0.94240855695570
 1 -4.66192550455045  0.27462762496250 -1.45498226302630
 1 -3.45055704120412  6.15480988608861  0.92876975347535
 1 -4.21359279747975  4.76453878577858  1.07956398269827
 1 -0.18355750025003  6.73561412681268  2.02254209580958
 1 -1.58735484578458  7.10895435013501  0.80649000070007
 1  0.20529969796980  6.92525481118112  0.17796875397540
 1 -3.57181508850885  6.26574420012001 -1.72206640914091
 1 -5.34810751795179  5.92046516261626 -0.97801767896790
 1 -4.05198867576758  4.58695886618662 -1.64191369936994
 1  3.74664306480648 -4.51675788828883  1.61599238163816
 1  7.69674769936994 -1.84207359635964  1.73816119911991

