%nproc=4
%Mem=2GB
# td=(NStates=1) B3LYP/SVP 

TD

0 1
 8 -4.27628913971397 -4.98599297049705  1.88400242864286
 8  3.05974000270027 -4.85635694249425  1.12046618391839
 8  6.72755906020602 -1.73956122582258  1.76458913841384
 8  3.86380143764376 -3.27268529352935 -0.31873521292129
 8  7.61732126872687 -0.38113800890089  0.07464143144314
 8 -2.98491407750775  2.37379543034303 -0.44691625302530
 7 -0.24239123382338 -0.42838703180318 -0.61850886378638
 7  1.58769726242624  1.88348878137814 -0.29473105070507
 7 -3.28850083908391 -3.10237135013501  0.76351266986699
 7 -0.73301179687969  2.83766491589159 -0.00814466026603
 6  0.69017128142814 -2.36238419681968 -1.36697899299930
 6  0.96416931923192 -1.02167939963996 -0.92277112601260
 6 -0.71132526122612 -2.50408877107711 -1.29581164386439
 6 -1.33374379637964 -1.40263057445745 -0.76749587958796
 6  3.81967042784278  1.54182734923492 -0.22087635443544
 6  2.52911501730173  0.89258108360836 -0.51803598859886
 6  2.26195144534453 -0.43617087498750 -0.77979745434543
 6  3.52439307940794  2.85635543774377  0.12889087938794
 6  1.64912631773177 -3.25701740304030 -1.99743708930893
 6 -5.50613952065206 -2.81963757865787  1.33421068536854
 6 -3.51934579387939 -1.81503647954795  0.28505443724372
 6  2.10028434053405  2.99897989218922  0.02931055445545
 6 -4.97681037733773 -1.62278124202420  0.61853589748975
 6  5.12357761966197  0.88962387928793 -0.21029998869887
 6 -2.59154397009701 -1.01390994639464 -0.38721519531953
 6 -1.54045370747075 -3.71255100820082 -1.81093140994099
 6 -4.32951261966197 -3.90381461326133  1.34575970157016
 6  1.88477961166117 -4.45820484418442 -1.10989021582158
 6  5.38111691409141 -0.07717584108411  0.84956750395039
 6  4.48923498479848  3.90521337063706  0.49367156745675
 6  1.18605728412841  4.11765631593159  0.30488220882088
 6 -6.81123577417742 -3.51213599339934  1.00364942704270
 6 -5.75980556115612 -0.63023880788079  0.14428159505951
 6 -0.14945286458646  3.99151740154015  0.24447625952595
 6 -1.08912401100110  5.11269880358036  0.36074453995400
 6 -2.31853132683268  4.66014751615162  0.13995990199020
 6  2.97363394539454 -4.16590926112611 -0.03254556535654
 6 -5.38583229272927  0.56488177677768 -0.63078454325433
 6  6.72887276627663 -0.72243771337134  0.73987488568857
 6 -3.67788533143314  5.31625268376838  0.16140065076508
 6 -2.11186073767377  3.18606356735674 -0.18832460226023
 6 -0.70147073817382  6.40752642264226  0.79845889748975
 6 -4.25894545714571  5.65461141784178 -1.19740883238324
 1 -0.40796238113811  0.59837670347035 -0.21585132483248
 1  3.20657801880188 -1.00936907810781 -1.11176126352635
 1  2.44926480778078 -2.72494409100910 -2.26757330443044
 1  1.24054506070607 -3.66299040994099 -2.93309166926693
 1 -5.52995472277228 -2.55763438813881  2.49016955685569
 1  5.33181569406941  0.34237361876188 -1.21061140844084
 1  5.89273784118412  1.70859038713871 -0.18782235683568
 1 -2.95206142384238  0.04990278057806 -0.45241563906391
 1  0.54542177277728  1.79552939683968 -0.47973541904190
 1 -1.58401313711371 -4.47438200870087 -1.05782529232923
 1 -2.61584169516952 -3.55739632603260 -1.94826295939594
 1 -0.99034421432143 -4.10472754155416 -2.80997658695870
 1 -2.43657604390439 -3.43440317101710  0.67931059625963
 1  1.07635846514651 -4.89188188648865 -0.61433682358236
 1  2.57311341574157 -5.14352845974598 -1.74622000390039
 1  4.79970520352035 -0.74640580398040  0.83228296439644
 1  5.08936328172817  0.25241127982798  1.94697250035003
 1  4.37525805140514  4.80022043844384 -0.06369774157416
 1  5.65733882558256  3.49138667186719  0.66182197179718
 1  4.10359739233923  4.35806127822782  1.58579429632963
 1  1.73042382098210  5.07479665706571  0.70182125732573
 1 -7.76771834013401 -2.91686677017702  1.05615688528853
 1 -6.78120218411841 -4.50248663076308  1.35690153055306
 1 -6.78058375537554 -3.82600001610161 -0.01341925352535
 1 -6.85863038533853 -0.79867077557756  0.47111511261126
 1 -4.94129310141014  1.24889971087109  0.23767650635064
 1 -6.36987536493649  1.29222829782978 -0.89941425752575
 1 -4.73445275727573  0.24162432463246 -1.36123288808881
 1 -3.88098008350835  6.21543594869487  1.00371724822482
 1 -4.26723816201620  4.53108544044404  0.71587761406141
 1 -0.38700784528453  6.29368993439344  1.76598644024402
 1 -1.71347745804580  7.22069552425242  0.83372272397240
 1 -0.05864669666967  6.90768305400540  0.07010796789679
 1 -3.67109501650165  6.70914854055406 -1.54380858335834
 1 -5.37374008120812  5.96275939203920 -1.00297017421742
 1 -4.03093657055706  4.83524369466947 -2.00648015601560
 1  3.66269466996700 -4.52546875937594  1.71283206560656
 1  7.56625465006501 -2.19600898989899  1.73361074407441

