%nproc=4
%Mem=2GB
# td=(NStates=1) B3LYP/SVP 

TD

0 1
 8 -3.95552706350635 -4.85321969316932  2.01037506590659
 8  3.00725475417542 -4.93908521532153  1.02680681798180
 8  6.69966627092709 -1.58375564526453  2.14227690719072
 8  3.83854891239124 -3.05532355735574 -0.13285662506251
 8  7.37544708130813 -0.81230112521252  0.05835980328033
 8 -3.13904949104910  2.50192824362436 -0.46090765216522
 7 -0.32437943264326 -0.42332652575258 -0.65680269316932
 7  1.49897839053905  1.86247668016802 -0.47256883448345
 7 -3.16631862086209 -3.08341945494549  0.71376769536954
 7 -0.75232372807281  2.94002515191519 -0.10188403420342
 6  0.67974023832383 -2.34019197759776 -1.48044033913391
 6  0.91354425672567 -0.98650588228823 -1.02409125802580
 6 -0.75941006970697 -2.56674503670367 -1.37016907960796
 6 -1.28921934393439 -1.35977628902890 -0.81615074507451
 6  3.78629709050905  1.52497566406641 -0.31189545634563
 6  2.45865797159716  0.96316814231423 -0.64737892289229
 6  2.24268951915192 -0.38835609350935 -0.98433790839084
 6  3.51213185328533  2.88082788498850  0.08006599689969
 6  1.63649505460546 -3.31086278757876 -2.10737808340834
 6 -5.38183709040904 -2.83761937683768  1.43815107940794
 6 -3.54752861216122 -1.95336031193119  0.16466239803980
 6  2.07631194329433  3.03420341454145 -0.00712308890889
 6 -4.93638633493349 -1.67079604350435  0.48581262516252
 6  5.06815207710771  0.80033495039504 -0.19415837453745
 6 -2.66356117181718 -0.99051760716072 -0.38136461026103
 6 -1.44134379647965 -3.76416616971697 -1.88420873767377
 6 -4.18588825722572 -3.75877010881088  1.50920604620462
 6  2.10071120482048 -4.44840386408641 -1.11372059885989
 6  5.18371717411741 -0.35758388188819  0.88821136833683
 6  4.48750481178118  3.88159100840084  0.43654585488549
 6  1.32780145854585  4.20797534783478  0.21825354595460
 6 -6.65264991559156 -3.61057583738374  0.99560862296230
 6 -5.67189677027703 -0.71630741474147  0.14357152405241
 6 -0.15179309860986  4.05972422222222  0.21066287818782
 6 -1.10122522112211  5.16211374507451  0.44374283978398
 6 -2.31060053375338  4.74872637403740  0.29579548554855
 6  3.11681826382638 -3.98195086528653 -0.11182349314931
 6 -5.42007571707171  0.59847513611361 -0.69257072187219
 6  6.50198007700770 -0.94919038863886  0.99611050925092
 6 -3.73065060796080  5.33886494499450  0.32524703540354
 6 -2.14391394299430  3.18138309930993 -0.08575434523452
 6 -0.62082267336734  6.56983265326533  0.80378943054305
 6 -4.34017357995800  5.60946690339034 -0.99260835233523
 1 -0.36367795269527  0.50623748954895 -0.12174191389139
 1  3.19050641164116 -1.18174631583158 -1.07124721212121
 1  2.40746062736274 -2.81092268886889 -2.49488603570357
 1  1.17102810901090 -3.73761787268727 -2.94907326742674
 1 -5.64706643394339 -2.16592521722172  2.30777131703170
 1  5.20554306680668  0.43802318371837 -1.10450079737974
 1  6.24201276867687  1.32772230033003  0.02994942034203
 1 -2.95855207290729 -0.03827603730373 -0.63328372587259
 1  0.49118634923492  1.84249409330933 -0.66229367486749
 1 -1.34351908770877 -4.45048961946195 -1.13929343914391
 1 -2.54780489148915 -3.68979956635664 -2.06056418951895
 1 -0.95719089898990 -4.29157622642264 -2.93959954925493
 1 -2.28230061636164 -3.68104783548355  0.78092075727573
 1  1.22803363266327 -4.74314701300130 -0.63932932283228
 1  2.57215331973197 -5.28554266116612 -1.76235161706171
 1  4.57126235923592 -1.16371753515352  0.83482321842184
 1  4.96494083948395  0.21877791649165  1.86854465756576
 1  4.59969049464947  4.68902931933193 -0.53033440524052
 1  5.58586167786779  3.41539907310731  0.80077586718672
 1  3.98036506910691  4.47129260136014  1.28490420732073
 1  1.83849462806281  5.05522469986999  0.59894096929693
 1 -7.60998256655666 -2.90308539203920  1.06616788638864
 1 -6.81982604650465 -4.49168555065507  1.74864070447045
 1 -6.64230992799280 -4.19417683378338 -0.07578549014902
 1 -6.69124364666467 -0.62213312181218  0.58123612471247
 1 -4.62702167426743  1.19349417031703 -0.16496375767577
 1 -6.29557793519352  1.23719279427943 -0.82176649274927
 1 -4.86369568156816  0.41413157535754 -1.67074383918392
 1 -3.52293427892789  6.22867727282728  0.96068294479448
 1 -4.35216665486549  4.65013734563456  0.80920694699470
 1 -0.12288143264326  6.54272483788379  1.74384422602260
 1 -1.48262437273727  7.14282773747375  0.84808416011601
 1 -0.01765259725973  7.07091937763776 -0.13650269316932
 1 -3.86360426742674  6.49409703540354 -1.46812101460146
 1 -5.35085779297930  5.85882899899990 -0.81977185438544
 1 -4.26474995189519  4.65335550585059 -1.80139964796480
 1  3.55268366886689 -4.48350456295629  1.68092887528753
 1  7.73756178077808 -1.93888327732773  2.10817820082008

