%nproc=4
%Mem=2GB
# td=(NStates=1) B3LYP/SVP 

TD

0 1
 8 -4.39482099289929 -4.92477684888489  1.81372540094009
 8  3.07212124082408 -4.81261256805680  1.17607174447445
 8  7.06678298259826 -1.41610888058806  1.86820950045004
 8  3.80110516801680 -3.14535256025603 -0.07401074047405
 8  7.68838837543754 -0.49542943804380 -0.05108114081408
 8 -3.00357594369437  2.38685673647365 -0.46907846924692
 7 -0.21068806350635 -0.51233542664266 -0.61985899879988
 7  1.53931242394239  1.71799223172317 -0.39029060666067
 7 -3.30561255025503 -3.04196530953095  0.79335565416542
 7 -0.80901939763976  2.99941109050905 -0.16935078087809
 6  0.60710297459746 -2.51654961336134 -1.34924721982198
 6  0.96291919421942 -1.18813604530453 -0.92483133203320
 6 -0.75525965466547 -2.56846520872087 -1.09680174287429
 6 -1.27874829682968 -1.37363767516752 -0.63450258025803
 6  3.78325678647865  1.47524069056906 -0.33406767356736
 6  2.53328543434343  0.79171099659966 -0.66427061206121
 6  2.24570982118212 -0.49608686658666 -1.06812628722872
 6  3.47631827192719  2.77975777797780  0.15807379767977
 6  1.57928933403340 -3.52777447874787 -1.99661700730073
 6 -5.57369627632763 -2.70780639553955  1.21003826812681
 6 -3.61720557985799 -1.84227920382038  0.25619155095510
 6  2.07145145724572  2.95794578877888  0.01027865126513
 6 -5.01313400970097 -1.60359932383238  0.44615865976598
 6  5.21960722262226  0.88789370627063 -0.34005296399640
 6 -2.63449826552655 -0.93202175757576 -0.34414088788879
 6 -1.67073673577358 -3.74086383948395 -1.66414673147315
 6 -4.40493016141614 -3.75911014281428  1.32401752735274
 6  2.14690582428243 -4.52276129982998 -1.10317954475448
 6  5.49469827222722 -0.03570169366937  0.89851239843984
 6  4.51616767806781  3.89482233153315  0.33794599489949
 6  1.29287796619662  4.11234578487849  0.21943366396640
 6 -6.78825347594759 -3.51522630243024  0.67113617571757
 6 -5.82604218481848 -0.53847963196320  0.04518168506851
 6 -0.22387030633063  4.00947919771977  0.25174698659866
 6 -1.15688078667867  5.18507604130413  0.60186865236524
 6 -2.30457993169317  4.65079658105811  0.31725763176318
 6  3.05007158915892 -4.03064573477348  0.01790948014801
 6 -5.37134084358436  0.67799308790879 -0.59063052785279
 6  6.83383326232623 -0.65182065166517  0.81706260446045
 6 -3.63922146504650  5.19919097759776  0.36288079877988
 6 -2.10624017561756  3.21910687168717 -0.11235700550055
 6 -0.76414700580058  6.48614428442844  0.99535858745875
 6 -4.37656721932193  5.48787474417442 -1.05044413591359
 1 -0.15318690359036  0.44444130993099 -0.20560029972997
 1  2.97919528052805 -1.10509865106511 -1.33283337073707
 1  2.37304718601860 -3.03635523212321 -2.58225477257726
 1  0.97392839903990 -4.06306041694169 -2.83718207830783
 1 -5.77091881918192 -2.30645927062706  2.09982052195220
 1  5.34054656715672  0.18801818321832 -1.24780512781278
 1  5.77555612301230  1.58298782688269 -0.47434100870087
 1 -3.00432665036504  0.01718950925093 -0.55896629412941
 1  0.65415264586459  1.61131097499750 -0.75915336083608
 1 -1.65610034583458 -4.61332590309031 -0.96776628642864
 1 -2.73032314331433 -3.43862444884489 -1.81153928702870
 1 -1.21611679157916 -4.02675974477448 -2.58144373367337
 1 -2.34237662396240 -3.30751048174818  0.74265693089309
 1  1.28129895919592 -5.29399209750975 -0.53157854775478
 1  2.73985008940894 -5.27950205710571 -1.74579996189619
 1  4.83928916191619 -0.81395255865587  0.90476021212121
 1  5.38927327272727  0.41836787548755  1.81154895799580
 1  4.38468899449945  4.76142655905591 -0.42258363016302
 1  5.69693278497850  3.62041957515751  0.43939972957296
 1  4.20500753335333  4.26599207130713  1.36780249714971
 1  1.65263604220422  4.77865704310431  0.79348042324232
 1 -7.66645821412141 -2.86302138563856  0.61926319591959
 1 -7.08214227812781 -4.46819320142014  1.08618445884588
 1 -6.51073677067707 -3.67866528262826 -0.40159807140714
 1 -6.91300582288229 -0.71862277077708  0.34705270637064
 1 -4.74370334243424  1.24215903680368  0.15150788948895
 1 -6.16712508990899  1.18614768976898 -1.24558887498750
 1 -4.61075038703870  0.55290545274527 -1.47879464426443
 1 -3.55747773327333  6.22188659375938  0.83675055155516
 1 -4.37000843904390  4.55445777767777  1.02494852115212
 1 -0.23991313581358  6.56133669906991  2.05371521312131
 1 -1.72547865816582  7.07665111981198  1.25777512921292
 1 -0.08104893689369  7.00773305900590  0.29208016511651
 1 -3.90346825382538  6.27085471117112 -1.57105130763076
 1 -5.28480118731873  5.81182429852985 -1.00473035023502
 1 -4.53741721862186  4.56298646894690 -1.68126763476348
 1  3.89746814731473 -4.43738995149515  1.58638942134213
 1  7.83385140974097 -1.90223961296130  1.87990537353735

