%nproc=4
%Mem=2GB
# td=(NStates=1) B3LYP/SVP 

TD

0 1
 8 -4.44042555335534 -4.98108247944795  1.82877690609061
 8  3.18023205190519 -4.83022432923292  1.03021715901590
 8  6.99124542884288 -1.65014228392839  1.75437811731173
 8  3.92050710821082 -3.17421544654465 -0.21250458985899
 8  7.55024456105611 -0.65058495359536 -0.23886991969197
 8 -2.96543212931293  2.31346939773977 -0.37422898429843
 7 -0.26896389108911 -0.55788998209821 -0.42817983088309
 7  1.57313580628063  1.94564499699970 -0.27550912851285
 7 -3.33467545654565 -3.17710882388239  0.76316263486349
 7 -0.80761925762576  2.90858200760076 -0.10550439623962
 6  0.72585484978498 -2.41618957735774 -1.38883117821782
 6  0.98818172047205 -1.09293652535253 -0.89321817071707
 6 -0.68829295799580 -2.61352971517152 -1.16924898759876
 6 -1.32227264926493 -1.40605091649165 -0.55222435243524
 6  3.80323878467847  1.62191535803580 -0.22112637943794
 6  2.53152525832583  0.99348117361736 -0.55932011701170
 6  2.27661291149115 -0.37834509240924 -0.88837831243124
 6  3.56001664176418  2.86914671687169  0.20453844414441
 6  1.60306171127113 -3.35621732303230 -1.95218256385639
 6 -5.57053596029603 -2.81252686758676  1.40037730203020
 6 -3.58648250755075 -1.79471444734473  0.31332726452645
 6  2.10032434453445  3.13885387958796  0.09490711411141
 6 -5.03177587388739 -1.57210617451745  0.58730277417742
 6  5.07197245914591  0.75213012991299 -0.29209816851685
 6 -2.60726554225423 -1.02162071747175 -0.27573404720472
 6 -1.52081174327433 -3.68008776187619 -1.79397971477148
 6 -4.40922059045905 -3.80769500130013  1.35262038763876
 6  2.05684681838184 -4.42535155885589 -1.09612883968397
 6  5.43662246464647 -0.03369149264926  0.92276482368237
 6  4.50320638193819  3.88717156645665  0.68551075137514
 6  1.15686436483648  4.10827537783778  0.37264898549855
 6 -6.90421507210721 -3.48148292809281  0.80970003210321
 6 -5.84285386598660 -0.55769155315532  0.02002916981698
 6 -0.21711963126313  4.06941519131913  0.20333214511451
 6 -1.11904700330033  5.12160969466947  0.37925639113911
 6 -2.31484095779578  4.57605910731073  0.14015992199220
 6  3.10735731773177 -4.01581425162516 -0.09405171597160
 6 -5.43213692319232  0.61584687328733 -0.71005247004700
 6  6.82318219721972 -0.75966143574357  0.75174607280728
 6 -3.66732427532753  5.29003006150615  0.14602911361136
 6 -2.17930748234823  3.16312127312731 -0.10354612441244
 6 -0.67198778987899  6.51327699769977  0.83539259085909
 6 -4.30016957955796  5.52522847954795 -1.30126921842184
 1 -0.53992557745775  0.34910177597760 -0.01304104380438
 1  3.05749311031103 -0.99489763096310 -1.39025911331133
 1  2.52404228552855 -2.95084668126813 -2.49523607070707
 1  1.18719972617262 -3.92163627452745 -2.86067442754275
 1 -5.78871059835984 -2.56164478917892  2.47218775867587
 1  5.38351086358636  0.25685506690669 -1.16168651595160
 1  5.91311987938794  1.41922145024502 -0.46747032163216
 1 -2.84314053175317  0.10433822412241 -0.26054645214521
 1  0.48779601020102  2.01273111701170 -0.34533197869787
 1 -1.31055579137914 -4.77781235173517 -1.15091460126013
 1 -2.58896900790079 -3.43192377877788 -1.72399053215321
 1 -1.56555173507351 -3.81187825662566 -2.99009459875988
 1 -2.49215160146015 -3.79664939563956  0.88899156435644
 1  1.17497832713271 -5.00096279457946 -0.63370876077608
 1  2.55740184458446 -5.38851295819582 -1.69783516541654
 1  4.75743097609761 -0.77240840424042  1.04719445554555
 1  5.31290563596360  0.51635767446745  1.70559836293629
 1  4.66031655725573  4.47136755315532 -0.21222259405941
 1  5.81472456415642  3.71208874207421  1.02007779737974
 1  4.07691472407241  4.49331480358036  1.61631734863486
 1  1.57521830043004  4.98629780718072  0.57808888408841
 1 -7.72966453475347 -2.76070115361536  0.83622489208921
 1 -7.12615667956796 -4.41246762886289  1.54623046344634
 1 -6.63925962296230 -3.65583299939994 -0.23282119371937
 1 -6.93432795509551 -0.42798370687069  0.47674567566757
 1 -4.95402437453745  1.33141796269627 -0.11696895819582
 1 -6.34624300170017  0.90171924692469 -1.31503581968197
 1 -4.61285059705971  0.26453661586159 -1.53778054285429
 1 -3.71648363386339  6.42417682278228  0.79542641914191
 1 -4.58684012221222  4.67282961486149  0.57142316861686
 1 -0.28118726322632  6.43264382978298  2.13295313691369
 1 -1.67240335063506  7.05213866856686  0.78790814251425
 1  0.39767893589359  6.73071535723572  0.19358031513151
 1 -3.57890579757976  6.15183280898090 -1.80579478197820
 1 -5.33777648484848  5.76707982408241 -1.09550942814281
 1 -4.26141961886189  4.55207537783778 -2.04269377737774
 1  3.91532993349335 -4.63430964346435  1.74438522092209
 1  7.84399242384238 -2.03009239823982  1.83785116811681

