%nproc=4
%Mem=2GB
# td=(NStates=1) B3LYP/SVP 

TD

0 1
 8 -4.27183869466947 -4.85919029022902  1.81168519691969
 8  2.97922195089509 -4.87936924372437  1.11343548084808
 8  6.94430073437344 -1.58415568526853  1.81612429192919
 8  3.71701675917592 -3.01998002300230  0.02613927452745
 8  7.69167870447045 -0.30082997809781  0.08396236353635
 8 -3.01214680078008  2.39798784958496 -0.22907446884688
 7 -0.25719271397140 -0.45583977707771 -0.61061807470747
 7  1.55433392609261  1.81640207270727 -0.27247882548255
 7 -3.32076406540654 -3.09370048304830  0.62351867046705
 7 -0.73992248794880  2.95177632703270  0.03808996319632
 6  0.60553281758176 -2.31967992639264 -1.38910120522052
 6  0.96169907220722 -1.04220145184518 -0.96520536943694
 6 -0.79024315301530 -2.66678504070407 -1.19341140384038
 6 -1.26816723872387 -1.43668397979798 -0.75222435243524
 6  3.84653311411141  1.49313247974797 -0.25481974877488
 6  2.56587869366937  0.84086591209121 -0.55713989898990
 6  2.30143539373937 -0.51330858875888 -0.97457693229323
 6  3.44836547664767  2.80537033923392  0.04106209650965
 6  1.63191459655966 -3.38634033533353 -1.92667001260126
 6 -5.49591849854986 -2.92962857775778  1.23823108740874
 6 -3.57525138443844 -1.86368134403440  0.05140107190719
 6  2.10853516561656  2.99854984918492 -0.02829520612061
 6 -5.08619131543154 -1.66120508440844  0.35764980888089
 6  5.13098836073607  0.79009392629263 -0.35340429912991
 6 -2.68439325502550 -1.03894244964496 -0.35392186598660
 6 -1.47442710481048 -3.81970172327233 -1.75239555635564
 6 -4.31296096449645 -3.81201543334333  1.25309043464346
 6  2.00043117681768 -4.48472749644965 -0.98554778157816
 6  5.31383018541854 -0.32942106560656  0.73469601680168
 6  4.55463152445245  3.88029087838784  0.31312351265127
 6  1.26551522992299  4.13782833313331  0.22357407800780
 6 -6.78412306290629 -3.56748152795280  0.85426448854885
 6 -5.82957253785379 -0.54986077007701  0.20418758565857
 6 -0.10953887318732  4.11539978977898  0.25032684458446
 6 -1.12946804540454  5.24650218391839  0.42782124762476
 6 -2.34673414711471  4.65235673707371  0.29564547054705
 6  3.00798738073807 -3.95502817301730  0.00950864006401
 6 -5.53892760226023  0.60005529412941 -0.61833329812981
 6  6.77533741274127 -0.76460192979298  0.83169406760676
 6 -3.75349289218922  5.26563762226223  0.33621813251325
 6 -2.08399795139514  3.21832679367937 -0.05767153695370
 6 -0.76086667776778  6.67746341634163  0.85005405700570
 6 -4.16557612021202  5.50804676137614 -1.09613870537054
 1 -0.49480106500650  0.46554342014201 -0.31432117181718
 1  3.06011337233723 -1.35661380258026 -1.40436052345235
 1  2.45528540984098 -2.95034663126313 -2.31277782488249
 1  1.26445745194519 -3.77866197709771 -3.04717307740774
 1 -5.25667739503950 -2.60448907360736  2.20658119801980
 1  5.30543305580558  0.22884226562656 -1.25879622692269
 1  6.01658022542254  1.49665919401940 -0.24908848344834
 1 -2.96416263396340 -0.07097930763076 -0.47081747924792
 1  0.60219745034503  1.94321416531653 -0.37459490499050
 1 -1.52887762356236 -4.28981355185519 -0.82049155895590
 1 -2.53212332333233 -3.59763034943494 -2.13744187728773
 1 -0.54045922582258 -4.41269833863386 -2.46889247854785
 1 -2.22529491579158 -3.25765549624962  0.88136080128013
 1  1.21853268256826 -5.08196089438944 -0.66821221112111
 1  2.46043214761476 -5.30532463936394 -1.41072645454545
 1  4.58515374837484 -1.21528269166917  0.47235697179718
 1  4.86958130353035  0.15125116381638  1.77916571967197
 1  4.27003752935294  4.96407682408241  0.16071469966997
 1  5.49473256495650  3.45142267546755 -0.22233644404440
 1  4.91809884248425  3.88254372647265  1.42575829272927
 1  1.93042382098210  5.12715189258926  0.31024209940994
 1 -7.62315388368837 -2.91474655815582  1.27848911851185
 1 -6.77267133103310 -4.46361274337434  1.77102294269427
 1 -7.05917161416142 -3.76589400550055 -0.31680959255926
 1 -6.78059258155815 -0.67439834833483  0.71527952905291
 1 -5.07234620672067  1.26825164606461  0.07778051675168
 1 -6.41482986038604  1.22446152115212 -0.70063437953795
 1 -4.98628794079408  0.15132529472947 -1.46737350215022
 1 -3.70350233573357  6.25783018811881  0.85289216571657
 1 -4.21717315551555  4.51909424132413  0.99901592789279
 1 -0.27415656015602  6.64357492289229  1.87915775737574
 1 -1.60986709700970  7.25089854455446  0.93024237593759
 1 -0.04289512151215  6.80612289798980  0.05357631473147
 1 -3.70516842384238  6.34317194289429 -1.69667386988699
 1 -5.32474518171817  5.74013712981298 -1.21881175837584
 1 -3.77180065696570  4.51318148844884 -1.74334384238424
 1  3.76400480098010 -4.71332754525453  1.70970175257526
 1  7.95681370597060 -1.73907329632963  1.83685106810681

