%nproc=4
%Mem=2GB
# td=(NStates=1) B3LYP/SVP 

TD

0 1
 8 -4.26713822462246 -4.89932430363036  1.71001502990299
 8  2.78931295999600 -4.94439574637464  1.20356449374937
 8  7.10933723802380 -1.38502577227723  1.94959763926393
 8  3.65164022152215 -3.09284730973097  0.09994665526553
 8  7.58021755835584 -0.52075197029703 -0.13515954865487
 8 -3.04233982008201  2.39789784058406 -0.24678624002400
 7 -0.18514550925093 -0.47788198129813 -0.55404241714171
 7  1.51214970767077  1.76774720722072 -0.32838441604160
 7 -3.19192118111811 -3.08509962296230  0.61440775937594
 7 -0.82246074177418  2.83842499189919  0.05913206740674
 6  0.64056632093209 -2.36591454985499 -1.36605890099010
 6  0.89484238653865 -1.11669890159016 -0.93831268016802
 6 -0.71199532823282 -2.54638300050005 -1.26268833153315
 6 -1.24044446644664 -1.35437574897490 -0.72707183718372
 6  3.75246370717072  1.51080424692469 -0.41547581438144
 6  2.52203430923092  0.82780460596060 -0.52424660966097
 6  2.25537078727873 -0.47173443134313 -0.83894336893689
 6  3.54185482558256  2.84731453365337 -0.00215222492249
 6  1.54082548764877 -3.34252595389539 -2.04482182778278
 6 -5.50158906560656 -2.81297691259126  1.23204046834683
 6 -3.61272513181318 -1.84322929882988  0.14704063586359
 6  2.03348766086609  2.99551954615462  0.07521514491449
 6 -5.00129282558256 -1.54339330323032  0.60324436833683
 6  5.16222148404841  0.84207912481248 -0.38641760046005
 6 -2.65549036473647 -0.98979753515352 -0.50894736853685
 6 -1.45977563966397 -3.81952170527053 -1.79811012781278
 6 -4.23671333973397 -3.79472370417042  1.22590771637164
 6  2.10340147384738 -4.50213923762376 -1.11296052285229
 6  5.39305810821082 -0.04956307980798  0.82441498869887
 6  4.61943800510051  3.82851570087009  0.21338353865387
 6  1.25676435483548  4.15512006230623  0.33426514711471
 6 -6.79234388498850 -3.52158693849385  0.86976603870387
 6 -5.74271385198520 -0.58006379037904  0.03876104300430
 6 -0.14653257255726  4.00548879867987  0.33136494839484
 6 -1.08440353895390  5.10712824652465  0.51886035153515
 6 -2.34819429312931  4.59827132853285  0.24174008000800
 6  2.84908149014901 -3.96527919811981  0.15825351455146
 6 -5.47684139363936  0.54923021162116 -0.72743420822082
 6  6.81425130413041 -0.68266373597360  0.79911080928093
 6 -3.57761530443044  5.29133019151915  0.31997650835084
 6 -2.21130068166817  3.14937989898990  0.04754898509851
 6 -0.65471606270627  6.55649131913191  0.79152820442044
 6 -4.34441400400040  5.60088604530453 -1.03070216171617
 1 -0.16872845774577  0.32448931473147  0.15163542384238
 1  2.92856021702170 -1.14975311651165 -1.07215730313031
 1  2.56973685498550 -2.94028562516252 -2.21743829092909
 1  1.13415442164216 -4.05834994589459 -2.84152251235123
 1 -5.56776850415041 -2.67348597329733  2.33379391929193
 1  5.44923743624363  0.09162854425442 -1.23357370467047
 1  5.88835740314031  1.66815634373437 -0.47181075567557
 1 -2.86193241094109  0.07979576987699 -0.31826222372237
 1  0.52562979357936  1.81171101500150 -0.19403684918492
 1 -1.70128486428643 -4.59857442794280 -1.02136164596460
 1 -2.54252436343634 -3.50776136253625 -2.06430456355636
 1 -0.79143432333233 -4.30516758555856 -2.80649623892389
 1 -2.27879026532653 -3.59717944864486  0.44920758595860
 1  1.12732356165617 -5.17180987928793 -0.76413180308031
 1  2.76386249064907 -5.17440154705471 -1.60688607050705
 1  4.70602583558356 -0.82756391979198  0.78893862996300
 1  5.35324967036704  0.46739277797780  1.72932073517352
 1  4.51204172977298  4.68399881628163 -0.56117748954896
 1  5.57497058875888  3.34696222942294  0.29780557015702
 1  4.30755778837884  4.33012848494850  1.22539825672567
 1  1.79494027262726  5.12286146354635  0.62111318651865
 1 -7.80258182648265 -2.80046513001300  1.20232150175018
 1 -6.57657172107211 -4.61499788188819  1.62704854525453
 1 -6.80600629762976 -3.76183359945995 -0.35118302990299
 1 -6.71566608890889 -0.49571047954795  0.57537553865387
 1 -4.76167513961396  1.45842066296630 -0.29470673197320
 1 -6.48166654405440  0.98409748474848 -0.98651296739674
 1 -5.06337564956496  0.12268243044304 -1.62995976077608
 1 -3.47710969646965  6.35380978607861  0.81587846434643
 1 -4.31512295049505  4.86602893479348  0.91814784108411
 1 -0.37755690019002  6.79661022642264  1.75451529312931
 1 -1.58087419771977  7.18476193089309  0.60096944864486
 1  0.08037720572057  6.87653993969397  0.04962591969197
 1 -3.64300220722072  6.15209283498350 -1.72449665216522
 1 -5.37182989018902  5.95859897599760 -0.95334521172117
 1 -4.34236771367137  4.64891506180618 -1.72861236923692
 1  3.55767416791679 -4.81568778127813  1.76255703810381
 1  8.03133115771577 -1.89934932393239  1.82842022502250

