%nproc=4
%Mem=2GB
# td=(NStates=1) B3LYP/SVP 

TD

0 1
 8 -4.31520303110311 -4.90425479667967  1.90415444384438
 8  2.81424545324532 -4.80144145094509  1.14374851215122
 8  7.21637794209421 -1.55650291999200  1.72775545504550
 8  3.95454051155115 -3.30614863986399 -0.15484882428243
 8  7.78196773337334 -0.15238513361336  0.08296226352635
 8 -3.09784537063706  2.45707375817582 -0.41917347874787
 7 -0.28846584128413 -0.57619181228123 -0.41699871277128
 7  1.48717721042104  1.80204063656366 -0.24715629322932
 7 -3.24473646264626 -3.15375648864886  0.72251857045705
 7 -0.83101159685969  2.92384353375338 -0.17014085988599
 6  0.62255451975198 -2.43636159455946 -1.35243753885389
 6  0.95141804410441 -1.11920915261526 -0.85247409630963
 6 -0.78031215991599 -2.64045240744074 -1.25037710041004
 6 -1.34153457545755 -1.42825313671367 -0.62618174817482
 6  3.81465992679268  1.50387355385539 -0.29218348514851
 6  2.59558166396640  0.83797562306231 -0.50464464946495
 6  2.23936918711871 -0.49608686658666 -0.94896437103710
 6  3.53202384248425  2.78591839403940  0.15642363266327
 6  1.62296370147015 -3.38686038733873 -2.01177852345235
 6 -5.55312421912191 -2.82269788468847  1.15548281258126
 6 -3.56474033333333 -1.90840581648165  0.22193812561256
 6  2.09953426552655  2.91729172337234  0.07192481588159
 6 -4.93117581388139 -1.61816077997800  0.40757480138014
 6  5.03850911281128  0.79614453135314 -0.37647660636064
 6 -2.62059687538754 -1.03789234463446 -0.34623109690969
 6 -1.48580824292429 -3.85413516661666 -1.64995531233123
 6 -4.41483115151515 -3.85510974277428  1.30082520812081
 6  1.95045617931793 -4.51567059075908 -1.10022924972497
 6  5.36132493489349 -0.28719684318432  0.70802334953495
 6  4.53809987128713  3.92252510181018  0.37372957325733
 6  1.31235991439144  4.02565711601160  0.32404412501250
 6 -6.87813246384638 -3.49888466826683  0.74597365946595
 6 -5.77948752935294 -0.63017880188019  0.05307247414741
 6 -0.14647256655666  4.02989123892389  0.21752356425643
 6 -1.11796689528953  5.27521505520552  0.38791725722572
 6 -2.44786426012601  4.77380888228823  0.33770967696770
 6  2.90151673367337 -4.07948061826183  0.09086677587759
 6 -5.35827953745375  0.54585987458746 -0.72014347914791
 6  6.86423630263026 -0.54547001660166  0.75670656885689
 6 -3.71012855575558  5.34152521102110  0.40920543124312
 6 -2.24745429702970  3.20492545354535 -0.13300907070707
 6 -0.69021961306131  6.61309697969797  0.75244429602960
 6 -4.24287384998500  5.84029998669867 -0.96647573907391
 1 -0.23274485938594  0.28199506530653  0.05381564186419
 1  2.97479484048405 -1.34151229242924 -0.85056514391439
 1  2.59893977527753 -2.84116571317132 -2.30593714081408
 1  1.12660366656666 -3.58267237813781 -3.18205656575658
 1 -5.63740546784678 -2.26084470917092  2.16915745564556
 1  4.99723223572357  0.18399778117812 -1.31167151445144
 1  5.92540110751075  1.48449797789779 -0.15092866746675
 1 -2.71843806150615 -0.04803701340134 -0.31292168966897
 1  0.51668889948995  1.94725456935694 -0.65036248174817
 1 -1.41706644244424 -4.70773534403440 -0.99292880268027
 1 -2.44517462846285 -3.56137672407241 -1.86549468256826
 1 -0.97369254915492 -4.52021909070907 -2.56909249854986
 1 -2.36197858415842 -3.74765449614962  0.61377404260426
 1  1.07333816311631 -5.05977867616762 -0.72135752565257
 1  2.65329143354335 -5.20294440134013 -1.63312869476948
 1  4.88237347034703 -1.35085624902490  0.72879261536154
 1  4.99555390079008  0.03140917961796  1.65993379647965
 1  4.57844837043704  4.55437585398540 -0.51841321312131
 1  5.57602069376938  3.48991652485249  0.71527731733173
 1  4.03843087568757  4.80788626072607  1.23592930983098
 1  1.66385716431643  4.84319349674967  0.67194827002700
 1 -7.52599416771677 -2.66654173767377  0.71216248584859
 1 -7.23922798669867 -4.43273965606561  1.31770761116112
 1 -6.66286198319832 -3.77335475157516 -0.34545245684568
 1 -6.88417293959396 -0.68026893539354  0.33065106620662
 1 -4.84288326042604  1.40212503340334 -0.02372963426343
 1 -6.37427580498050  0.95995507050705 -1.34568888498850
 1 -4.57730704270427  0.30827098929893 -1.40098686348635
 1 -3.50862284778478  6.15021942704271  1.19117599409941
 1 -4.52154359255926  4.55048738063806  0.71563759005901
 1  0.21113196869687  6.76428699409941  1.49991983358336
 1 -1.49399550985099  7.06094954965497  1.37409676137614
 1 -0.34527535953595  7.15663794949495 -0.13084212711271
 1 -3.52405031203120  6.66665429112911 -1.46728093059306
 1 -5.12076478367837  6.25768888498850 -0.78157803500350
 1 -4.07391086798680  4.87073724402440 -1.68943845184518
 1  3.50728912941294 -4.46092230473047  1.80317109950995
 1  8.13332135673567 -1.69295868486849  1.53947133013301

