%nproc=4
%Mem=2GB
# td=(NStates=1) B3LYP/SVP 

TD

0 1
 8 -4.35772728352835 -4.94422879407941  1.68272230063006
 8  2.86270029872987 -4.64273558035804  1.28715285258526
 8  6.94702100640064 -1.45912318201820  1.84904758425843
 8  3.86951200870087 -3.10507853285328 -0.00406374577458
 8  7.54904444104410 -0.80374026912691 -0.31836786948695
 8 -3.01302688878888  2.30896894769477 -0.25579714111411
 7 -0.25134212891289 -0.49303349644964 -0.57467448034803
 7  1.59874836753675  1.86495692819282 -0.45212679027903
 7 -3.40138212721272 -3.11828294129413  0.62725904450445
 7 -0.78357685338534  2.85714686408641 -0.21808565436544
 6  0.62157442174217 -2.42225018341834 -1.35018731383138
 6  0.95917882018202 -1.05275250695069 -0.93864271317132
 6 -0.76127025572557 -2.61925028722872 -1.17415947864786
 6 -1.29742016401640 -1.42834314571457 -0.60845997599760
 6  3.83812227302730  1.63742690919092 -0.36219048584858
 6  2.54470657645765  0.93412523802380 -0.67204138913891
 6  2.30842609280928 -0.40768802670267 -0.89281875647565
 6  3.55383602370237  2.89968977117712  0.08637662796280
 6  1.66720812591259 -3.38039974127413 -1.89076642224222
 6 -5.51483038973897 -2.81677729262926  1.25697296159616
 6 -3.66076993629363 -1.80095507140714  0.25002093389339
 6  2.07360167226723  3.06130612481248 -0.00188256485649
 6 -4.99710240654065 -1.60648961286129  0.44575861976198
 6  5.17146240814081  0.90394531143114 -0.38326728542854
 6 -2.57805262096210 -1.05701425682568 -0.25997247104710
 6 -1.51973163526353 -3.83829358245825 -1.63942425922592
 6 -4.33099276767677 -3.83097732953295  1.28469359495950
 6  2.18603973767377 -4.49874889858986 -0.96661588838884
 6  5.46622542494249 -0.08640676417642  0.73518606580658
 6  4.52480854215422  3.87094994429443  0.58861106140614
 6  1.29082776117612  4.15426997729773  0.26756847744774
 6 -6.82385703630363 -3.50364514431443  0.67464652675268
 6 -5.82075165576558 -0.58227401140114  0.02755992289229
 6 -0.19550747004700  4.00961921172117  0.11434324622462
 6 -1.09512461106111  5.10694822852285  0.49852831833183
 6 -2.24674414811481  4.55971747314732  0.28580448644864
 6  3.04973155515552 -4.02771544174417  0.22142983218322
 6 -5.47805151465147  0.67718300690069 -0.69568103290329
 6  6.80011989098910 -0.75339080868087  0.71166206440644
 6 -3.62432997589759  5.25548660716072  0.41520603130313
 6 -2.14409396099610  3.19283424442444 -0.12571834163416
 6 -0.70677126822682  6.50096576657666  0.97232628422842
 6 -4.43666322892289  5.58677463416342 -1.00556964846485
 1 -0.29728131303130  0.39620648644865 -0.09779951965197
 1  3.08142550355036 -1.20427856905691 -1.06836692409241
 1  2.41190107140714 -2.74062565916592 -2.21081762886289
 1  1.47378838503850 -4.02658676957696 -2.95564392449245
 1 -5.54493622092209 -2.56243486818682  2.38910945084508
 1  5.38530104260426  0.43760314171417 -1.37390773807381
 1  6.03715228262826  1.58300782888289 -0.40347392199220
 1 -2.68211442914291  0.03088087838784 -0.32420281778178
 1  0.63339056965697  1.68532837673767 -0.61863930943094
 1 -1.41646638243824 -4.57745231573157 -0.92821233103310
 1 -2.67209732073207 -3.60828141454145 -1.70369850295029
 1 -1.09697487738774 -4.15334240304030 -2.72547813711371
 1 -2.55103749004901 -3.59643937463746  0.78802146734673
 1  1.15489631893189 -5.04528722702270 -0.66494188408841
 1  2.83041914631463 -5.44489859675968 -1.56290167206721
 1  4.66136136913691 -0.87512867626763  0.68787852395240
 1  5.31000534593459  0.41425746444644  1.85604340744074
 1  4.22840336593659  4.82011242764276  0.01289991819182
 1  5.60607369906991  3.74574210741074  0.36140192979298
 1  4.25494252685269  4.06844231633163  1.83807952485249
 1  1.69496027462746  5.26832601000100  0.60678175337534
 1 -7.69926149444944 -2.83963904740474  0.81729299889989
 1 -6.97519158305831 -4.48407478957896  1.30221606200620
 1 -6.68766446344635 -3.78047546364636 -0.27487539913991
 1 -7.01642616491649 -0.89479038753875  0.21215921702170
 1 -4.70047902000200  1.14505932683268 -0.07178443974397
 1 -6.33232160956096  1.24642371737174 -1.08494281038104
 1 -4.68460777277728  0.59305946814681 -1.61332809760976
 1 -3.81384336983698  6.20897530263026  1.17960483698370
 1 -4.29460089828983  4.42635496739674  0.85686171247125
 1  0.02027288278828  6.49305987138714  1.92500234183418
 1 -1.55148125842584  7.10907436213621  0.98581793349335
 1 -0.01160199219922  6.89007129282928  0.25226618371837
 1 -3.84363227022702  6.71240886658666 -1.40802500500050
 1 -5.50837354455446  5.83329644574458 -1.09462934013401
 1 -4.21843532043204  4.69053922422242 -1.62688219621962
 1  3.36755515601560 -4.32932914541454  1.93021380378038
 1  7.84012203680368 -2.03956334533453  1.67172455545555

