%nproc=4
%Mem=2GB
# td=(NStates=1) B3LYP/SVP 

TD

0 1
 8 -4.07946945774577 -4.82957732893289  1.92947697609761
 8  3.02093612231223 -4.75640694749475  1.22236637393739
 8  6.88850515481548 -1.62334960466047  1.90349302880288
 8  3.69552460996100 -2.95832385738574 -0.11492483188319
 8  7.49980951755176 -0.69028892399240 -0.10902693539354
 8 -2.96972255835584  2.31265931673167 -0.32952451385139
 7 -0.36483347804780 -0.47543173627363 -0.66202321522152
 7  1.57282577527753  1.93726415891589 -0.32069364696470
 7 -3.17551954095410 -3.03981509450945  0.60843716231623
 7 -0.68299679537954  2.88279942934293 -0.14741858765877
 6  0.61081334563456 -2.28826678507851 -1.56055835093509
 6  0.92121502380238 -1.00701793349335 -1.03551240014001
 6 -0.65985011371137 -2.62945130733073 -1.35561762446245
 6 -1.32427284928493 -1.33973428482848 -0.83643277327733
 6  3.75660412121212  1.52986615311531 -0.22648691549155
 6  2.49958206400640  0.88919074457446 -0.55567975297530
 6  2.19705495569557 -0.45463272117212 -0.90661013561356
 6  3.55166580668067  2.84519432163216  0.09374736503650
 6  1.57532893799380 -3.37308901020102 -1.97008435403540
 6 -5.51626053275328 -2.79389500440044  1.37014427872787
 6 -3.60139399869987 -1.87609258515852  0.15679161096110
 6  2.16462077417742  3.09477947214721  0.04338196159616
 6 -5.00679337563756 -1.60521948584859  0.46927097099710
 6  5.07671293319332  0.68716363326333 -0.27311627032703
 6 -2.64391920762076 -1.03426198159816 -0.49805627942794
 6 -1.42618228032803 -3.86739649274927 -1.68984930173017
 6 -4.28238790719072 -3.75605983778378  1.33159828542854
 6  1.96418755245525 -4.40785980968097 -0.84247347414741
 6  5.34562336473647 -0.09597772127213  0.86865941314131
 6  4.58552461376138  3.86792964226423  0.37337953825383
 6  1.31433011141114  4.16119066936694  0.22996471707171
 6 -6.75625027562756 -3.60355513531353  0.76803586568657
 6 -5.77330691129113 -0.55357114111411  0.08598576547655
 6 -0.07562548184818  4.10219846964696  0.22534434633463
 6 -1.06736183478348  5.12291982568257  0.55780424592459
 6 -2.30511998569857  4.53582508390839  0.23099900590059
 6  3.05726230823082 -3.95133780398040  0.10326801600160
 6 -5.60065377487749  0.61229651825182 -0.76707817261726
 6  6.69811969096910 -0.82809827942794  0.79683058125813
 6 -3.76571411431143  5.08485954445445  0.42876738743874
 6 -2.11720127172717  3.16270123112311  0.01627585778578
 6 -0.65347593869387  6.49964563456346  0.85739479107911
 6 -4.30909047164717  5.54101005770577 -1.01048013951395
 1 -0.37344892979298  0.55810267606761 -0.32007174687469
 1  3.08985634663466 -1.05731387258726 -1.02955304270427
 1  2.54530441174117 -2.97215881248125 -2.37728427552755
 1  1.13348435463546 -3.88105221612161 -2.82034039413941
 1 -5.93408513581358 -2.48019664436444  2.40372091199120
 1  4.98025053755376  0.07100648204820 -1.25264561186119
 1  5.86915548294829  1.40880040814081 -0.59242281688169
 1 -2.95842205990599  0.00673846414641 -0.78575897339734
 1  0.58188541914191  2.13102294619462 -0.46499394489449
 1 -1.46509124492449 -4.73422799329933 -0.82144165396540
 1 -2.60660077107711 -3.87219780618062 -1.85310344344434
 1 -1.03742892279228 -4.40188725752575 -2.49818540784078
 1 -2.13654604090409 -3.33073280398040  0.66299896509651
 1  1.03830465976598 -4.71954465276528 -0.25380076997700
 1  2.43822992739274 -5.25880998789879 -1.37944332623262
 1  4.69540477347735 -0.99966112951295  0.99630936703670
 1  5.27582192759276  0.53162920162016  1.79834763786379
 1  4.68703922952295  4.71293170957096 -0.31597296909691
 1  5.66338943064306  3.72073960716072  0.24012980258026
 1  4.38993602620262  4.20737620972097  1.40139585648565
 1  1.68757953655366  5.04971414881488  0.78450952615261
 1 -7.60190175847585 -2.86975205870587  0.66394766436644
 1 -7.06251031493149 -4.55261164326433  1.40168600900090
 1 -6.39116481348135 -3.77007442354235 -0.37029494109411
 1 -6.78441296359636 -0.67851876037604  0.56399440054005
 1 -4.90891986408641  1.42336715761576 -0.18020528182818
 1 -6.58042642004200  1.00819989498950 -1.00652496859686
 1 -5.18910822282228  0.33180334253425 -1.78331509630963
 1 -3.52989497499750  5.83968837393739  0.99057593409341
 1 -4.26135757395740  4.24000633253325  0.82734876117612
 1  0.21714256975698  6.50586115151515  1.79832967456746
 1 -1.60553666396640  6.95171862656266  1.45700505220522
 1 -0.46993782578258  7.18797108280828 -0.10503954685469
 1 -3.98680658765877  6.43345097079708 -1.46376057855786
 1 -5.38474118131813  5.61889500560056 -0.80008988618862
 1 -4.15120859775978  4.81476164646465 -1.69053856185619
 1  3.69987838833883 -4.18264447694769  1.83572435483548
 1  7.68131615621562 -1.79718910791079  1.60693807680768

