%nproc=4
%Mem=2GB
# td=(NStates=1) B3LYP/SVP 

TD

0 1
 8 -4.26601811261126 -4.81480585178518  1.91758578697870
 8  3.05877990669067 -5.03985529232923  0.95262940024002
 8  7.02968927322732 -1.49266653635364  1.80748342784278
 8  3.76940199769977 -3.05909393439344  0.04521118171817
 8  7.58611814841484 -0.53932382748275 -0.07958399109911
 8 -3.05008059415942  2.38119617041704 -0.42715427682768
 7 -0.23903089778978 -0.53810800390039 -0.63305031793179
 7  1.55343383608361  1.80373080558056 -0.45116669426943
 7 -3.30266225522552 -3.06147726072607  0.74620093869387
 7 -0.81483997969797  2.84951610101010 -0.01688553435344
 6  0.65519778407841 -2.49628758715872 -1.29692198729873
 6  0.96500940324032 -1.10702793449345 -0.88339718861886
 6 -0.73828795749575 -2.63350171237124 -1.16341840454045
 6 -1.33970439243924 -1.45702601400140 -0.68266739673967
 6  3.80371883268327  1.58110127662766 -0.25712997979798
 6  2.48795090089009  0.90038186368637 -0.57260144514451
 6  2.20529577977798 -0.52631988988899 -0.82316179077908
 6  3.48904954505451  2.82329213141314  0.07722571287129
 6  1.62273367846785 -3.31675337663766 -1.99436678227823
 6 -5.53802270897090 -2.77360297519752  1.26340360466047
 6 -3.55521938123812 -1.80251522742274  0.29293522532253
 6  2.09219353145315  2.99347934213421 -0.00005238183818
 6 -4.96425912221222 -1.57773673757376  0.51369541344134
 6  5.18397365926593  0.89945486238624 -0.31173013171317
 6 -2.64306912261226 -1.04737329272927 -0.29516599039904
 6 -1.55831549364936 -3.80640039313931 -1.69611992879288
 6 -4.37157682608261 -3.76495072687269  1.30337546314631
 6  2.20372150585059 -4.42319134283428 -1.18245747254725
 6  5.38691749414942 -0.03084120762076  0.88065061226123
 6  4.41537759905991  3.92608545784578  0.53699589988999
 6  1.26498517691769  4.01394594489449  0.39796151675168
 6 -6.88916356695670 -3.42961774157416  0.89249831193119
 6 -5.73584316491649 -0.63798958295830 -0.11076390949095
 6 -0.19468738803880  3.99917816761676  0.24425623752375
 6 -1.14434953355336  5.17694522822282  0.50383884938494
 6 -2.34245371907191  4.62782428382838  0.23833973997400
 6  3.11454803680368 -4.12733540374037 -0.06005831663166
 6 -5.47428113761376  0.52628791739174 -0.79305076987699
 6  6.79363924292429 -0.68502397199720  0.80896179437944
 6 -3.64893243614361  5.33609466796680  0.36233074377438
 6 -2.18752830443044  3.16767172817282 -0.03095886568657
 6 -0.67025761686169  6.57708337833783  0.76940599219922
 6 -4.13412297489749  5.67639359605961 -1.09985907740774
 1 -0.36752833773377  0.34010087588759 -0.10760049974998
 1  3.19375673667367 -1.08503664486449 -1.17381746914692
 1  2.44885476677668 -2.87571916851685 -2.56512305940594
 1  1.36591759795980 -3.96358046894689 -3.01406976707671
 1 -5.71358308560856 -2.53750237493749  2.35090563046305
 1  5.16415892839284  0.37444682608261 -1.30968131543154
 1  5.72507107450745  1.78345787388739 -0.36897047164716
 1 -2.91528774647465 -0.02229443914391 -0.44349474697470
 1  0.50427765836584  1.71449129302930 -0.43081052655265
 1 -1.84764950075007 -4.59820439093909 -0.93869337913791
 1 -2.64291440244024 -3.54396498289829 -2.06418455155515
 1 -1.09831501140114 -4.21851892069207 -2.52971856115611
 1 -2.42891527782778 -3.42288201890189  0.61006367156716
 1  1.31124195349535 -4.89412211051105 -0.88989437933793
 1  2.79457556195620 -5.14682878977898 -1.98651403330333
 1  4.67136236923692 -0.98540970437044  1.04231396749675
 1  5.06784112951295  0.57003304200420  1.63945174827483
 1  4.30014053965396  4.70656107250725 -0.35535690749075
 1  5.40524361606161  3.48817635083508  0.54918070767077
 1  4.21596862946295  4.22870834293429  1.42768848574858
 1  1.84566534513451  4.97317649504950  0.58300937613761
 1 -7.71409297759776 -2.69929501300130  0.94861613121312
 1 -7.29073313721372 -4.25900228232823  1.59533537393739
 1 -6.92299799679968 -3.82092950905091 -0.03379129072907
 1 -6.97217173947395 -0.73139404790479  0.05712371347135
 1 -4.90703967606761  1.17746256715672 -0.17721498279828
 1 -6.34004238163816  1.10186926192619 -1.11590590669067
 1 -4.80098941094109  0.35008517071707 -1.57110387518752
 1 -3.64379636513651  6.16092049714972  1.06589346584658
 1 -4.35132657085709  4.67119945184518  0.84794082038204
 1 -0.08262740724072  6.58092865826583  1.71403124472447
 1 -1.51782789308931  7.22968642334233  0.99254860656066
 1 -0.05949678167817  6.97754003970397 -0.19195823872387
 1 -3.55640354735474  6.29920754645465 -1.57924212671267
 1 -5.22766547374737  6.01813492959296 -1.04954483168317
 1 -4.49033251015102  4.73503367366737 -1.71943145114511
 1  3.58309671017102 -4.92890910341034  1.62794357675768
 1  7.98195622022202 -1.87024641364137  1.53304068706871

