%nproc=4
%Mem=2GB
# td=(NStates=1) B3LYP/SVP 

TD

0 1
 8 -4.46829834063406 -4.81838620982098  1.83671770017002
 8  3.14958898759876 -4.92043335013501  1.00197433473347
 8  7.03278958325833 -1.55268253795380  1.76533921342134
 8  3.89525458295830 -3.17444546954695 -0.15959929932993
 8  7.66457599419942 -0.22958285338534  0.05645961326133
 8 -2.91497708380838  2.21908995979598 -0.14897645904590
 7 -0.28964595929593 -0.50420461356136 -0.49567658055806
 7  1.60348884158416  1.90540097259726 -0.36886846444644
 7 -3.39345133413341 -3.20988210121012  0.65391170977098
 7 -0.75726422212221  2.85170632003200 -0.07072091789179
 6  0.64262652695270 -2.40162812121212 -1.29324161926193
 6  0.86481938423842 -1.07477470917092 -0.87101595049505
 6 -0.77644177287729 -2.59579794199420 -1.14871693439344
 6 -1.39544996699670 -1.41935224662466 -0.64573370337034
 6  3.74956341714171  1.48697186368637 -0.35629989678968
 6  2.48014011981198  0.83607543304330 -0.55761994699470
 6  2.14999024922492 -0.50799805770577 -0.89144861946195
 6  3.52597323742374  2.82883268546855  0.00985897619762
 6  1.64802620772077 -3.32920462176218 -1.90950829642964
 6 -5.65596450315032 -2.67878349324932  1.28635589988999
 6 -3.70860471977198 -1.85576055195520  0.16410234203420
 6  2.14520883298330  3.08238823302330 -0.05987836443644
 6 -5.11031372767277 -1.54952391629163  0.38497254115412
 6  5.09289455135514  0.83290820772077 -0.39831879057906
 6 -2.69959477517752 -1.07279583498350 -0.35436190999100
 6 -1.39620928302830 -3.85803555665567 -1.66194651145114
 6 -4.46917658605861 -3.73798803060306  1.24955008060806
 6  2.19668080178018 -4.51875089878988 -1.06530575737574
 6  5.33633243564356  0.09809168566857  0.92951549874987
 6  4.68877493879388  3.85133798309831  0.41255345564556
 6  1.33594227262726  4.16346089638964  0.29431115171517
 6 -6.91344599519952 -3.41357613741374  0.85794485658566
 6 -5.97768734933493 -0.55996178017802  0.04740190709071
 6 -0.11885980528053  3.96164441424142  0.25896770867087
 6 -1.05002010061006  5.07216475017502  0.40238870437044
 6 -2.35462493619362  4.59424092549255  0.27631353735374
 6  3.12648923092309 -4.14302697289729 -0.04155646644664
 6 -5.55054876437644  0.58904419301930 -0.88430989578958
 6  6.85634551355136 -0.58479394899490  0.87334823302330
 6 -3.60463800670067  5.20638169666967  0.37732224292429
 6 -2.13356290789079  3.13571853285329 -0.15100086988699
 6 -0.63462405350535  6.47047271727173  0.85472452405241
 6 -4.27206676927693  5.48977493419342 -1.01125021652165
 1 -0.55338692359236  0.46869373517352 -0.20768050775078
 1  3.00532789378938 -1.19677781898190 -0.99087917531753
 1  2.68173805510551 -3.01307290389039 -2.20692723982398
 1  1.38508951515152 -3.87383149404940 -3.00798915901590
 1 -5.77765949324932 -2.37919654435443  2.36511705160516
 1  5.35646815931593  0.14520390179018 -1.32469281658166
 1  5.96291485888589  1.69795932403240 -0.53749732433243
 1 -3.12829904760476  0.06996478677868 -0.57808820632063
 1  0.49705693629363  2.02277212111211 -0.32423986948695
 1 -1.35323005880588 -4.60866543704370 -0.94703421322132
 1 -2.40274038503850 -3.61838242464247 -1.72290042314231
 1 -0.91515669556956 -4.01106817561756 -2.61598718801880
 1 -2.29581196749675 -3.40810054075408  0.83977664286429
 1  1.44401523082308 -5.12184488278828 -0.56332172207221
 1  2.66920302470247 -5.25826993389339 -1.72502788468847
 1  4.68347358035804 -0.84090525392539  0.86019575567557
 1  5.09933427882788  0.83495953465347  1.73294109720972
 1  4.63840436603660  4.68162857925793 -0.44129550135014
 1  5.67401049274928  3.27433496669667  0.37360314991499
 1  4.54221125372537  4.27610308240824  1.33442915981598
 1  1.77783856245625  5.05961513891389  0.68540961616162
 1 -7.61675324362436 -2.51783686718672  1.07234850445045
 1 -7.11587565146515 -4.13693007510751  1.59185502590259
 1 -7.04852054905491 -3.63908132423242 -0.18898681028103
 1 -7.07098162046205 -0.58070897939794  0.48706670777078
 1 -5.03780275237524  1.39828464936494 -0.30538780008001
 1 -6.36583496089609  0.99710878587859 -1.41108542464246
 1 -4.90757006900690  0.08904906710671 -1.55412217701770
 1 -3.58871085658566  6.00034443954395  1.06092296879688
 1 -4.35923736193619  4.40679301120112  0.81664769106911
 1 -0.28935808030803  6.50141070647065  1.95739558115812
 1 -1.45001111141114  7.13069652435244  0.74092344404440
 1  0.23411257925793  6.83615590129013  0.40099105620562
 1 -3.61993990099010  5.94699232493249 -1.61810601310131
 1 -5.06746945414541  6.13596671277128 -0.86217609480948
 1 -4.74865834273427  4.64286445674568 -1.39986949494949
 1  4.02466086658666 -4.66174238673867  1.45396617901790
 1  8.05927395199520 -1.71512090109011  1.60049743274327

