%nproc=4
%Mem=2GB
# td=(NStates=1) B3LYP/SVP 

TD

0 1
 8 -4.32461397219722 -5.02819719091909  1.52582661106111
 8  2.89359338803880 -4.79662096889689  1.19720385768577
 8  7.15905220952095 -1.40554782448245  1.80896357585759
 8  3.78270332783278 -3.17113513851385 -0.12654599399940
 8  7.48591812841284 -0.62168206330633 -0.20060609330933
 8 -2.97218280438044  2.43489153995400 -0.44342590399040
 7 -0.27302429712971 -0.48038223132313 -0.53633064596460
 7  1.50360885358536  1.86473690619062 -0.34962654025403
 7 -3.20315230423042 -3.25774688768877  0.72718903750375
 7 -0.66668516421642  2.90441159055906 -0.10690453625363
 6  0.60705296959696 -2.35086304470447 -1.35644793989399
 6  0.84217712001200 -1.05198242994299 -0.90896974587459
 6 -0.75716984568457 -2.57514587678768 -1.17104916761676
 6 -1.23763418541854 -1.38399871127113 -0.62898202820282
 6  3.72336079687969  1.47647081358136 -0.28713298009801
 6  2.44338644444444  0.90464228972897 -0.52561674667467
 6  2.18791404160416 -0.44315157305731 -0.74988446304630
 6  3.52307294739474  2.79749955215522  0.09093708400840
 6  1.56601800690069 -3.41236293759376 -1.85486283188319
 6 -5.57850675737574 -2.91029664456446  1.24549181348135
 6 -3.56951081038104 -1.92707768366837  0.20722665446545
 6  2.08916322842284  3.00536053025303 -0.07335971257126
 6 -4.97958065436544 -1.75342430633063  0.48315235913591
 6  5.07333259515952  0.86320123702370 -0.35490444914491
 6 -2.62689750545055 -1.07205576097610 -0.34381085488549
 6 -1.53418308040804 -3.73803355645565 -1.68350866766677
 6 -4.38722839123912 -3.85568980078008  1.27012213781378
 6  2.00605173887389 -4.51296031973197 -0.96404563136314
 6  5.35663446584658 -0.08319644314431  0.86300884808481
 6  4.46157221852185  3.93495634493449  0.43878607890789
 6  1.38692737113711  4.23036758705871  0.20443216381638
 6 -6.78071272187219 -3.59352413221322  0.72614167626763
 6 -5.80684026462646 -0.64750053405341  0.08701586848685
 6 -0.09550747004700  4.07973622342234  0.34011582348235
 6 -1.05192029062906  5.23146067976798  0.51106957245725
 6 -2.31811128482848  4.64225572697270  0.33483938993899
 6  2.93329991199120 -4.10085275547555  0.01854954415442
 6 -5.26339004850485  0.65779106770677 -0.45446691149115
 6  6.82248212721272 -0.66733220282028  0.82747364556456
 6 -3.71542908580858  5.39631068956896  0.33111762246225
 6 -2.06210576217622  3.17804276527653 -0.13251902170217
 6 -0.60049064016402  6.59033470347035  0.73503255485549
 6 -4.20765032763276  5.54426038273827 -1.17273636513651
 1 -0.48244982988299  0.43984084988499  0.00930119041904
 1  2.99392675367537 -0.92172031323132 -0.87596768416842
 1  2.49116899819982 -2.97580917751775 -2.17612415951595
 1  1.16970797699770 -3.89822393329333 -2.70552891299130
 1 -5.78218994629463 -2.54396302100210  2.29872041194119
 1  5.25105761826183  0.15872525392539 -1.23268361566157
 1  6.04234280168017  1.69199872797280 -0.45306888148815
 1 -2.97599381708171 -0.10965317501750 -0.35401579907991
 1  0.47111434203420  2.02201204510451 -0.27779522502250
 1 -1.50249498529853 -4.75862043254325 -1.11860136993699
 1 -2.70026013701370 -3.55200578697870 -1.77000513361336
 1 -1.33907908780878 -4.11855892469247 -2.70433602290229
 1 -2.30676306260626 -3.68601833253325  0.65231789698970
 1  1.18040887018702 -5.05725842414241 -0.50830622052205
 1  2.38525462986299 -5.21604571147115 -1.68485386728673
 1  4.58369360236024 -0.93396455985599  0.94451418751875
 1  5.18691303670367  0.51420745944594  1.82281008410841
 1  3.95131565716572  5.05520593699370  0.05194382258226
 1  5.45821891359136  3.94309184238424 -0.25633984438444
 1  4.65204223682368  4.03807928002800  1.57511322822282
 1  1.79698047664766  5.19465864326433  0.21983305850585
 1 -7.65320688898890 -2.62353743724372  0.64099536913691
 1 -7.33349741364136 -4.42439882198220  1.50340618101810
 1 -6.53531922892289 -3.82788020412041 -0.33180109170917
 1 -6.79895441774177 -0.60357126562656  0.24994299539954
 1 -4.36126509860986  0.98082290319032 -0.01608887018702
 1 -6.12452082948295  1.53926300130013 -0.32511682778278
 1 -4.94245355735574  0.47720788298830 -1.67561432623262
 1 -3.67449943544354  6.32401680678068  1.03455033153315
 1 -4.53926536473647  4.67736006790679  0.90041606790679
 1 -0.15819496399640  6.40296086148615  1.70297013861386
 1 -1.60251636193619  7.24207766246625  1.12009136083608
 1 -0.08372920492049  6.85797808350835 -0.05678472137214
 1 -3.66504441144114  6.14101172687269 -1.69657385988599
 1 -5.19526223342334  6.05159827592759 -1.07701757895790
 1 -4.27482095899590  4.44858502880288 -1.42402191019102
 1  3.44227262776278 -4.33769998249825  1.77527831023102
 1  8.14963298789879 -1.81929131813181  1.78355573857386

