%nproc=4
%Mem=2GB
# td=(NStates=1) B3LYP/SVP 

TD

0 1
 8 -4.18902041284128 -4.82263663486349  1.91484551295130
 8  2.79343337203720 -4.85494680148015  1.08258239553955
 8  6.98469477377738 -1.57850512021202  1.97352003150315
 8  3.74244930243024 -3.26073409840984 -0.12790613001300
 8  7.57921745834583 -0.41954184928493  0.15822979027903
 8 -2.89056464256426  2.26424447524752 -0.22905446684668
 7 -0.24337133183318 -0.47856204930493 -0.56729374227423
 7  1.55586407910791  1.80420085258526 -0.40952252985299
 7 -3.30753274227423 -3.17483859685969  0.58790510911091
 7 -0.72746124182418  2.79796094549455 -0.01147499329933
 6  0.69361162546255 -2.29049700810081 -1.46897919301930
 6  0.95878878117812 -1.02391962366237 -0.93228207710771
 6 -0.68461258995900 -2.49246760896090 -1.32589465216522
 6 -1.31905232723272 -1.37222753415342 -0.73573270327033
 6  3.80020848164816  1.55493866036604 -0.37484175097510
 6  2.53510561636164  0.91554337983798 -0.64764894989499
 6  2.24335958615862 -0.33064032193219 -0.94212368696870
 6  3.61096173627363  2.92695249744974  0.01843983428343
 6  1.57164856995700 -3.36982868416842 -2.11002834843484
 6 -5.41765067176718 -2.85596121102110  1.33120038433843
 6 -3.60391425072507 -1.81124610051005  0.19896582838284
 6  2.17071138323832  2.99452944714471 -0.11644402100210
 6 -4.94072676897690 -1.59441840574057  0.57296134003400
 6  5.10958622052205  0.79373429032903 -0.27025598429843
 6 -2.65298011371137 -0.96852540794079 -0.36999347314731
 6 -1.54281394349435 -3.70409016211621 -1.87793811061106
 6 -4.32172184058406 -3.74918915071507  1.28857398299830
 6  1.89660079377938 -4.50404942864286 -1.14218344514451
 6  5.32138094049405 -0.09739786328633  1.02517506470647
 6  4.54368042934293  3.93528637793779  0.43499569986999
 6  1.32273095149515  4.09399394969497  0.18427014761476
 6 -6.70411506210621 -3.52558733853385  0.79932899499950
 6 -5.71407098769877 -0.63621940594059  0.26575374227423
 6 -0.10560848014802  4.06222447224722  0.19290110201020
 6 -1.09594469306931  5.12819035273527  0.39324779027903
 6 -2.33458293199320  4.64649615101510  0.22208811481148
 6  2.97486406840684 -4.09945261546155 -0.04503681448145
 6 -5.51697540704070  0.60623591219122 -0.52770423522352
 6  6.60440031903190 -0.68338380798080  1.01092199039904
 6 -3.63913145604560  5.16954801330133  0.32583709440944
 6 -2.07419697129713  3.09848480948095  0.05975020522052
 6 -0.73548413951395  6.59105477547755  0.65472452405241
 6 -4.38002756535654  5.49498545524552 -1.01426051755175
 1 -0.27764934983498  0.28797566336634 -0.03270301000100
 1  3.25312267326733 -0.95857399859986 -1.07336742414241
 1  2.44768464976498 -2.65816741334133 -2.39102564966497
 1  1.01741274747475 -3.69340345124512 -2.82675103520352
 1 -5.37333906120612 -2.60955958065807  2.40820136003600
 1  5.20967347984798  0.11925130653065 -1.10555090239024
 1  5.87606617401740  1.47010653875388 -0.47373094769477
 1 -2.78914513221322 -0.04047625732573 -0.39320971847185
 1  0.52074930553055  1.80414025792579 -0.48296574207421
 1 -1.84230896669667 -4.66965153565357 -1.35278478827883
 1 -2.52529264026403 -3.32470305670567 -2.19104723782378
 1 -0.97421260116012 -3.91037810661066 -2.84859044834483
 1 -2.30302268856886 -3.44225395609561  0.74156682188219
 1  1.01932276157616 -4.72851554985499 -0.63135852575258
 1  2.34907101150115 -5.28197230413041 -1.57220260216022
 1  4.66544177717772 -1.02139330273027  0.96117585368537
 1  4.99526387178718  0.65812185088509  1.82156996009601
 1  4.65285581118112  4.89964038043804 -0.17967933973397
 1  5.61525461716172  3.60679821302130  0.33877966756676
 1  4.41733876647665  4.10855632773277  1.57371308820882
 1  2.02223300190019  4.95337451485149  0.39555063026303
 1 -7.57760932923292 -2.94713979747975  1.22301357095710
 1 -7.05177924182418 -4.61105748784878  1.36714255465547
 1 -6.55060075707571 -3.70714813091309 -0.37236514811481
 1 -6.68367288958896 -0.75170607910791  0.66059406050605
 1 -4.85431440354035  1.17166198709871 -0.05402266356636
 1 -6.45816419381938  1.11579065406541 -0.78220253635364
 1 -4.99213852585258  0.41306146834683 -1.55253201800180
 1 -3.41491347684768  6.03384778987899  0.77679455595560
 1 -4.30954239243924  4.56391872377238  0.78828485478548
 1 -0.11278042254225  6.50551111651165  1.29627946954695
 1 -1.77453356365637  7.13874732943294  0.93851320302030
 1 -0.28026885888589  6.89456174187419 -0.38920796369637
 1 -4.13924183118312  6.28914654035404 -1.62820702320232
 1 -5.52117482468247  5.62207532363236 -0.76199607680768
 1 -4.31209468636864  4.57945811611161 -1.62623213121312
 1  3.51108950945095 -4.61118733123312  1.77374815721572
 1  7.84231225582558 -1.92581197019702  1.74060144314431

