%nproc=4
%Mem=2GB
# td=(NStates=1) B3LYP/SVP 

TD

0 1
 8 -4.16325783658366 -4.87018138933893  1.79408343674367
 8  2.85193922262226 -4.75910721752175  1.08518265556556
 8  6.86242254655466 -1.58046531623162  1.91481416091609
 8  3.87387244474447 -3.22678070307031 -0.30133347274727
 8  7.59266880348035 -0.50377027212721  0.18792275957596
 8 -3.01842742884288  2.33569161996200 -0.42963452485249
 7 -0.30957795249525 -0.42928712181218 -0.64704171707171
 7  1.61642013471347  1.84537496999700 -0.37635921352135
 7 -3.22305429442944 -3.10608172117212  0.63317963656366
 7 -0.78577707340734  2.87845899529953 -0.04069791559156
 6  0.56961922622262 -2.36708466686669 -1.47151944704470
 6  0.88387128942894 -1.02889012071207 -1.06269511841184
 6 -0.76101022972297 -2.51241960416042 -1.31920398309831
 6 -1.30190061206121 -1.39533984538454 -0.77575670567057
 6  3.82397085788579  1.54931809830983 -0.29156342314231
 6  2.58071017681768  0.90051187668767 -0.55485967096710
 6  2.25277052725273 -0.40023728162816 -0.99392886748675
 6  3.47356799689969  2.85993579577958  0.17862585288529
 6  1.59610101520152 -3.34872657395740 -2.07613495909591
 6 -5.39884879157916 -2.78095371027103  1.44408167246725
 6 -3.54329818911891 -1.80514549044904  0.25501143294329
 6  2.16584089618962  3.01219121332133  0.11921954535454
 6 -4.95220791709171 -1.61886084998500  0.57442148604860
 6  5.15373063496350  0.86279119601960 -0.29307826652665
 6 -2.64600941664166 -0.95984453985399 -0.34260073387339
 6 -1.50791045314531 -3.69247900100010 -1.84561487828783
 6 -4.19856952535254 -3.76392062386239  1.46720184578458
 6  1.91796292999300 -4.56857588128813 -1.09951917871787
 6  5.30863966636664 -0.13947207070707  0.84998754595460
 6  4.40668672997300  3.97027987728773  0.49435163546355
 6  1.28591727012701  4.14800935123512  0.29004072467247
 6 -6.78223287388739 -3.43162794259426  1.34732379447945
 6 -5.75612519311931 -0.71967775177518  0.09585675257526
 6 -0.17555547484748  3.99237748754875  0.26578839073907
 6 -1.10611571017102  5.03766129982998  0.50534900040004
 6 -2.33758323202320  4.55460696209621  0.22190809680968
 6  3.00382696469647 -4.18138080828083 -0.09779209000900
 6 -5.37344105360536  0.37512280088009 -0.89345080988099
 6  6.70899077807781 -0.74996046564656  0.96874777297730
 6 -3.70608815171517  5.22377343584358  0.24145865656566
 6 -2.08317786938694  3.12597755875588 -0.18513428322832
 6 -0.77708829992999  6.53070874087409  0.84179323092309
 6 -4.18241780438044  5.74783073977398 -1.19277836933693
 1 -0.42873445834583  0.40960782658266 -0.30297003670367
 1  3.02452981398140 -1.16589473067307 -1.25347543494349
 1  2.47746762806281 -2.79307090369037 -2.33139968706871
 1  0.88416942314231 -3.55699981088109 -2.99231759185919
 1 -5.33535526282628 -2.52888151285128  2.53066360626063
 1  5.35696820932093  0.15070445184518 -1.21540188748875
 1  5.95506407380738  1.57095662376238 -0.13040661526153
 1 -2.85502171987199  0.15102289258926 -0.43646404390439
 1  0.60653788438844  1.79386923082308 -0.49466691219122
 1 -1.26093082888289 -4.75222979347935 -1.35842535233523
 1 -2.38737884888489 -3.33218380478048 -1.85059319241924
 1 -1.33575875577558 -4.03909097789779 -3.03070866016602
 1 -2.15685807210721 -3.44102383308331  0.46838950415042
 1  0.92314314361436 -4.88158085638564 -0.72199758965897
 1  2.47738384278428 -5.29919402630263 -1.76441182308231
 1  4.57638287128713 -0.93573473687369  0.57250698679868
 1  4.88879322472247  0.41141718041804  1.83403120622062
 1  4.43743426902690  4.88687910431043 -0.13808518031803
 1  5.47411050275028  3.57696522972297  0.43128891849185
 1  4.37852488508851  4.22151762386239  1.49811552845284
 1  1.73586436503650  5.04673385078508  0.58780985618562
 1 -7.61347291559156 -2.74593967746775  1.85390666026603
 1 -6.82106617051705 -4.34942132423242  1.77586342674267
 1 -7.17750344734473 -3.47417483358336  0.26363845224522
 1 -6.74028855115512 -0.56399730823082  0.43601160226023
 1 -4.63884285638564  1.12510733163316 -0.43010027132713
 1 -6.12054043144314  0.91472054705471 -1.45441975807581
 1 -4.86020533253325 -0.12399223702370 -1.85223198799880
 1 -3.48449043454345  6.13496790189019  0.98035491199120
 1 -4.72647408560856  4.73798613051305  0.81639766606661
 1 -0.20159930443044  6.34143470887089  1.77926776837684
 1 -1.70676678697870  7.12554600930093  1.04427377907791
 1 -0.08106893889389  6.98044032973297  0.38514947204720
 1 -3.53698160516052  6.61617924362436 -1.54946914941494
 1 -5.14043675087509  5.91935505160516 -1.04492436963696
 1 -4.31094457135714  4.89669984028403 -1.94402391039104
 1  3.42908130863086 -4.24065027752775  1.73175395779578
 1  7.73382140674067 -1.97017640664066  2.26228361136114

