%nproc=4
%Mem=2GB
# td=(NStates=1) B3LYP/SVP 

TD

0 1
 8 -4.14011552235224 -4.77742211341134  1.90277430583058
 8  2.92813684238424 -4.93970527732773  1.05355949324932
 8  6.96296260056006 -1.53291056075608  1.92131481098110
 8  3.75540059755976 -3.20845887088709 -0.14089742914291
 8  7.65221475807581 -0.45744563966397  0.04490845814581
 8 -3.13642922902290  2.45390344114411 -0.26084764616462
 7 -0.21712870757076 -0.49944413751375 -0.65345235813581
 7  1.50753924662466  1.75191562406241 -0.30060163776378
 7 -3.25708769776978 -3.12223333633363  0.66810312891289
 7 -0.87590608630863  2.86878802820282 -0.06120996679668
 6  0.63932619691969 -2.38469642804280 -1.45299759485949
 6  0.98442134443444 -1.07177440914091 -1.07301615051505
 6 -0.71394552325233 -2.57512587478748 -1.29347140984098
 6 -1.25074549654965 -1.37006731813181 -0.71867099709971
 6  3.66164462526253  1.45693886038604 -0.32006627342734
 6  2.42490459625963  0.81414323982398 -0.59332351735174
 6  2.21621687188719 -0.46247350525052 -0.88904837943794
 6  3.46829746984698  2.74364416661666  0.04805279557956
 6  1.63989539463946 -3.28754045534553 -2.07394474007401
 6 -5.48115702240224 -2.77861347624762  1.35027229152915
 6 -3.61598545784578 -1.87394237013701  0.13602953475348
 6  2.11348566066607  3.00370036423642  0.08647627102710
 6 -5.00086278257826 -1.63396236013601  0.44518856275628
 6  5.00007526942694  0.77616253315332 -0.39125808450845
 6 -2.67195201090109 -1.01025958135814 -0.57786426022602
 6 -1.51606126822682 -3.75312506560656 -1.86008632543254
 6 -4.22863253165317 -3.65204943674367  1.31217634323432
 6  2.07255838953895 -4.37652667636764 -1.01991121792179
 6  5.47152595499550  0.10195207170717  1.00792333953395
 6  4.50947700900090  3.77507035633563  0.50633283358336
 6  1.33645232363236  4.07710226052605  0.34335605620562
 6 -6.84112876347635 -3.62104688448845  1.05796485858586
 6 -5.80137971857186 -0.65906169016902  0.06975414231423
 6 -0.08122604190419  4.01704995479548  0.25889770167017
 6 -1.05110020862086  5.17822535623562  0.41006947244724
 6 -2.29628910261026  4.66579808120812  0.28522442844284
 6  2.97747432943294 -4.15123779397940  0.06936462566257
 6 -5.46145985548555  0.49197448604860 -0.75623708850885
 6  6.73276315531553 -0.67855332493249  0.92121301950195
 6 -3.64292183508351  5.31550260876088  0.33760827152715
 6 -2.18147769936994  3.23787874887489 -0.03307907770777
 6 -0.69817040814081  6.59901557155716  0.64047309890989
 6 -4.23177273987399  5.50867682438244 -0.96268536003600
 1 -0.36624820972097  0.43162002780278 -0.36097583728373
 1  3.07023438443844 -1.12262040324032 -1.02924301170117
 1  2.71256113741374 -2.82442403900390 -2.28325487258726
 1  1.16380738693869 -3.67081119201920 -3.00882924302430
 1 -5.36788851615162 -2.65027365206521  2.44368490839084
 1  5.05952846534653 -0.08672929152915 -1.18479882718272
 1  5.90516908430843  1.42056158425843 -0.53296687128713
 1 -2.86611282898290 -0.00645285498550 -0.78966936443644
 1  0.48879611021102  1.88523836773677 -0.47444488998900
 1 -1.54477921372137 -4.49440401090109 -1.24089359915992
 1 -2.60335044604460 -3.59108969536954 -1.89771790489049
 1 -1.03679885978598 -4.00474754355436 -2.94134972427243
 1 -2.28273065936594 -3.28703843454345  0.75446811201120
 1  1.30511134043404 -4.88837153545355 -0.66611200110011
 1  2.44583068746875 -5.18591269816982 -1.71474685658566
 1  4.61583681668167 -0.64515567896790  1.30152988908891
 1  5.77657200260026  0.91449748844884  1.77414521762176
 1  4.49629015461546  4.80781119751975  0.08420704890489
 1  5.47887097879788  3.74399193239324  0.01553734333433
 1  4.57808484108411  3.70392586468647  1.47457317421742
 1  1.63414419301930  4.79565874327433  0.98498957415742
 1 -7.52352392069207 -2.66479156265627  0.96044731433143
 1 -6.94280834473447 -4.18104448654865  2.03439928032803
 1 -6.82984868186819 -4.17690510661066 -0.02350026162616
 1 -6.81409593189319 -0.75945685418542  0.50004800590059
 1 -4.66993596569657  1.24842966386639 -0.30285754705471
 1 -6.34640301770177  1.24350342534253 -1.20480479657966
 1 -5.08391770377038  0.14468463066307 -1.73042980778078
 1 -3.65638762426243  6.24481888698870  0.81984886138614
 1 -4.13812525072507  4.65033736563656  1.10224625092509
 1 -0.05855500000000  6.85418598399840  1.40676051765177
 1 -1.54264037433743  7.37210066476648  0.76200555225523
 1  0.06900606860686  6.95291757745775 -0.19222826572657
 1 -3.67427533453345  6.12491011671167 -1.53730793329333
 1 -5.08093080028003  6.13322643874387 -0.94339421662166
 1 -4.51124460136014  4.62404257455746 -1.47410691869187
 1  3.60357875837584 -4.56980319281928  1.72376315871587
 1  7.76744476907691 -2.03398278727873  1.53012039503950

