%nproc=4
%Mem=2GB
# td=(NStates=1) B3LYP/SVP 

TD

0 1
 8 -4.25788729952995 -4.95413978517852  1.78295232363236
 8  2.91115514421442 -4.77151845864586  1.14681881918192
 8  7.15923222752275 -1.47653492319232  2.02297497699770
 8  3.73857891539154 -3.03509153415342 -0.08272161156116
 8  7.61055059165917 -0.71471136623662  0.00712467976798
 8 -3.02679826592659  2.35040309110911 -0.48226978837884
 7 -0.31130812551255 -0.35476967006701 -0.75652266516652
 7  1.49128762146215  2.00787121962196 -0.49789136673667
 7 -3.26714870387039 -3.17335844884488  0.68700501910191
 7 -0.73164165986599  2.93935508490849 -0.19768361416142
 6  0.66551881618162 -2.34956291469147 -1.42315461056106
 6  0.94209711201120 -1.01047827952795 -1.12701155005501
 6 -0.75125925462546 -2.53649201140114 -1.27809987268727
 6 -1.34328475047505 -1.32931324272427 -0.74771390139014
 6  3.78113657445745  1.50339350585058 -0.21178544534453
 6  2.46407851365137  0.89861168666867 -0.69505369036904
 6  2.20788603880388 -0.42500975887589 -0.98697817241724
 6  3.55663630373037  2.83656345854585  0.21628961926193
 6  1.66157756285629 -3.38310001130113 -2.07826517211721
 6 -5.46369527622762 -2.81504711961196  1.36679394369437
 6 -3.56671053035304 -1.92705768166817  0.20284621642164
 6  2.14331864396440  2.99693968816882  0.01499912331233
 6 -4.91475417171717 -1.64964392829283  0.59645368926893
 6  5.06682194409441  0.65540045694569 -0.26753571227123
 6 -2.69640445614561 -1.02774132953295 -0.41671814561456
 6 -1.49163882598260 -3.73250300340034 -1.81067138393839
 6 -4.29700936933693 -3.80188442024202  1.33503862946295
 6  2.03811494519452 -4.51300032373237 -1.03912313911391
 6  5.37937674007401 -0.29610773427343  0.89269181638164
 6  4.44874093539354  3.87336018531853  0.60362256255626
 6  1.36705538393839  4.10976552685269  0.36311803240324
 6 -6.74512916351635 -3.57127190699070  0.96992605470547
 6 -5.72990257085709 -0.51121690569057  0.31290845774577
 6 -0.13318123742374  4.14132238203820  0.14770658255826
 6 -1.08117321592159  5.13358089178918  0.43878234373437
 6 -2.34161363506351  4.72603410481048  0.11889779577958
 6  3.01487806980698 -4.02189485968597  0.02849053825383
 6 -5.45077878737874  0.61583687228723 -0.54311577637764
 6  6.75649552855286 -0.76847231683168  0.85543644184418
 6 -3.74070161306131  5.27492855135514  0.32096660736074
 6 -2.10161971357136  3.23367832883288 -0.21470724052405
 6 -0.63477406850685  6.47354302430243  0.96857590919092
 6 -4.51453101570157  5.38422437913791 -1.05220431193119
 1 -0.54138572347235  0.44023088888889 -0.19909964966497
 1  3.07652501350135 -1.24687282848285 -0.99609969736974
 1  2.58628851015102 -2.96615821242124 -2.61084763186319
 1  1.23868487468747 -3.62532664356436 -2.97858621872187
 1 -5.59287101440144 -2.77974659935994  2.41724226412641
 1  4.91692420492049  0.01078045944594 -1.17646799409941
 1  5.91756032343234  1.49597912601260 -0.52657623222322
 1 -2.91266748444844 -0.04538674837484 -0.50759115661566
 1  0.53634086468647  1.95636548044804 -0.67504494999500
 1 -1.47552228802880 -4.67450202070207 -1.12796230603060
 1 -2.57766787778778 -3.47734832123212 -1.77583571667167
 1 -1.06669184908491 -4.06363343214321 -2.67858344764476
 1 -2.29083146944694 -3.60068979967997  0.66461912711271
 1  0.97327815711571 -4.76798949724973 -0.76792218211821
 1  2.45812191659166 -5.43281738863886 -1.67591297319732
 1  4.84318955195520 -1.03803496689669  0.94826456255626
 1  5.26942128752875  0.14394043274327  1.91316912001200
 1  4.41837236283628  4.60430084648465 -0.12574394619462
 1  5.54389748144814  3.40227776097610  0.39101489108911
 1  4.32118915151515  4.41477694979498  1.44620033693369
 1  1.77140791939194  5.17874705210521  0.48434951015102
 1 -7.71160272857286 -2.74373945744574  1.09456072567257
 1 -6.84915897979798 -4.33436981908191  1.64287012741274
 1 -6.64104980198020 -3.47617503360336 -0.25749366096610
 1 -6.73121764406441 -0.72454336283628  0.64058205930593
 1 -4.41680065216522  1.09115393629363 -0.35490275157516
 1 -6.15734411181118  1.45094416941694 -0.79073338943894
 1 -5.10021933393339  0.29659982218222 -1.44909167396740
 1 -3.75962794829483  6.26080048514852  0.53216009250925
 1 -4.28042948114811  4.52222455435544  0.95062108840884
 1 -0.24010315481548  6.35998656405641  2.03142298389839
 1 -1.50658676897690  7.22131558625863  0.98011736343634
 1  0.13661282928293  6.78170045574558  0.22028298539854
 1 -3.99243715071507  5.80954858055806 -2.04432863536354
 1 -5.36164887208721  6.17176029212921 -0.78957883508351
 1 -4.90980445734574  4.38369854015402 -1.41564107210721
 1  3.46146454695470 -4.53868008050805  2.02846362876288
 1  8.16370439503950 -1.55143453245325  1.76263364636464

