%nproc=4
%Mem=2GB
# td=(NStates=1) B3LYP/SVP 

TD

0 1
 8 -4.19487099789979 -4.89279365056506  1.92924695309531
 8  3.19117314601460 -4.79685099189919  1.08471260856086
 8  6.90552685698570 -1.76706397609761  1.82098477797780
 8  3.85433049054905 -3.05672369736974 -0.15661900130013
 8  7.60541007760776 -0.31509140424042  0.17019098639864
 8 -2.94747033313331  2.38660671147115 -0.37856941834183
 7 -0.30725772047205 -0.51631582468247 -0.64628164106411
 7  1.46409490219022  1.87813824632463 -0.41969354695470
 7 -3.37444943394339 -3.13854496749675  0.80220653925393
 7 -0.74474296999700  3.05521667106711 -0.13865771157116
 6  0.56868913321332 -2.41459941834183 -1.48669096419642
 6  0.92424532683268 -1.11439867156716 -1.05695454435444
 6 -0.71114524322432 -2.62956131833183 -1.33008507120712
 6 -1.29550997299730 -1.37804811621162 -0.77654678467847
 6  3.69777823862386  1.43863703020302 -0.31741600840084
 6  2.41706381218122  0.85043686918692 -0.60984516951695
 6  2.18132338253825 -0.45545280318032 -1.02770224482448
 6  3.50396103620362  2.79543934613461  0.02428041834183
 6  1.70430183528353 -3.46121782308231 -1.93158050365037
 6 -5.58536744344434 -2.88955457035704  1.26895415971597
 6 -3.56206006530653 -1.80626560246025  0.27638357015702
 6  1.99872418451845  2.97882787698770 -0.01898427502750
 6 -5.01412410871087 -1.60533949784978  0.50188423232323
 6  4.99678494039404  0.75166008290829 -0.43361231993199
 6 -2.68866368206821 -1.11880043544354 -0.50341681548155
 6 -1.33796345844584 -3.88570832393239 -1.73247356415642
 6 -4.33838350675068 -3.87717194899490  1.36155128072807
 6  2.08479961366137 -4.55633465716572 -0.88110733753375
 6  5.31745054745475  0.00781265776578  0.84604715191519
 6  4.52003806510651  3.67176002530253  0.56093829412941
 6  1.33230190859086  4.17605215551555  0.18827054765477
 6 -6.86504115471547 -3.52498727852785  0.79282834493449
 6 -5.81919149974997 -0.51563734773477  0.20531769866987
 6 -0.11587950725073  4.09625787558756  0.24723653555356
 6 -1.10744584318432  5.16334386808681  0.53979244474447
 6 -2.32335180888089  4.68199970137014  0.21791769776978
 6  3.13029961196120 -4.05107777797780  0.00014770397040
 6 -5.47628133763376  0.65067035563556 -0.63848531333133
 6  6.70944082308231 -0.64245971557156  0.97436833503350
 6 -3.70187773067307  5.28320937943794  0.32661717241724
 6 -2.01627117871787  3.22954791579158 -0.15846161596160
 6 -0.62967355845585  6.53395906590659  0.99799885148515
 6 -4.26179574217422  5.69109506620662 -1.02484157565757
 1 -0.69156074097410  0.47204407020702 -0.30107984768477
 1  2.91598895989599 -1.00668881008101 -1.03039312671267
 1  2.65578545984598 -2.87289888648865 -2.36742328942894
 1  1.33399440564056 -4.05024913581358 -2.85309366946695
 1 -5.62934466176618 -2.59191781648165  2.44382492239224
 1  4.88043055555556  0.07468685008501 -1.31624197149715
 1  5.88729729712971  1.27291681978198 -0.83033660826083
 1 -3.05494171187119 -0.08005021472147 -0.83649404690469
 1  0.50248747934794  2.02493233713371 -0.42979042454245
 1 -1.23624836063606 -4.57798236873687 -0.89235874567457
 1 -2.41025113611361 -3.98735932233223 -1.96036416951695
 1 -1.08000318021802 -4.24265133393339 -2.77697328662866
 1 -2.40592297859786 -3.50404013471347  0.62328499369937
 1  1.09914074337434 -4.82130482878288 -0.26167155705571
 1  2.66423252765276 -5.19928403530353 -1.64073945584558
 1  4.58944417741774 -0.80720188358836  0.86293602970297
 1  5.15734007940794  0.56013205190519  1.88369617271727
 1  4.52318284388439  4.78062847924793  0.00199882808281
 1  5.54886797849785  3.45383291649165  0.19437522712271
 1  4.53370040264026  4.00913638573857  1.69036475337534
 1  2.01146192479248  5.01249042644264  0.41991306650665
 1 -7.69162073037304 -3.02127721122112  0.99743101270127
 1 -7.09318338223822 -4.39408579067907  1.50215605600560
 1 -6.72196789378938 -3.78338575467547 -0.25070298189819
 1 -6.81823634593459 -0.73356426492649  0.37448544964496
 1 -4.74612358445845  1.22767758865887 -0.11297855915592
 1 -6.37766614401440  1.17258633363336 -0.99236355245525
 1 -5.01073038503850  0.67094725692569 -1.69607637243724
 1 -3.63018500400040  6.20226463156316  0.69132600910091
 1 -4.15664710291029  4.61816414831483  0.99792581888189
 1  0.29993084858486  6.48046861226123  1.65677551915192
 1 -1.52305841614161  7.13088654335434  1.56421577327733
 1 -0.14751558355836  7.09889217491749  0.04182513961396
 1 -3.56495440244024  6.15087271297130 -1.72971717421742
 1 -5.18500120732073  6.37020013611361 -0.91511138833883
 1 -4.82108558545855  4.93700387068707 -1.66073558155816
 1  3.85917431793179 -4.33172938543854  1.70476125852585
 1  7.81366939153915 -2.28154754375438  1.45893327632763

