%nproc=4
%Mem=2GB
# td=(NStates=1) B3LYP/SVP 

TD

0 1
 8 -4.20409191999200 -4.75959033023302  2.07649167756776
 8  3.20724475317532 -5.00747205400540  0.83345748304830
 8  6.85739204350435 -1.75576284598460  1.83160584008401
 8  3.82551760926093 -3.13196122112211 -0.14748808820882
 8  7.58102763936394 -0.38796869196920  0.18736270357036
 8 -3.13936952305231  2.44437248804880 -0.51132269366937
 7 -0.32061905660566 -0.46265045814581 -0.70730774367437
 7  1.59323781648165  1.81663209570957 -0.16883846144614
 7 -3.27028901790179 -3.12998411141114  0.77521383998400
 7 -0.85693418911891  2.81507265666567 -0.08409225502550
 6  0.62135439973997 -2.35321327972797 -1.50378267336734
 6  0.99102200450045 -1.08970620232023 -0.94540338923892
 6 -0.73370749944995 -2.55051341354135 -1.28728079077908
 6 -1.19936035803580 -1.43853416481648 -0.79542867286729
 6  3.79557801860186  1.49239240574057 -0.21363563036304
 6  2.50641274707471  0.86231805730573 -0.48357254225423
 6  2.27117236743674 -0.41155841374137 -0.89439891449145
 6  3.55964660476048  2.89049885208521  0.10841883218322
 6  1.70176158125813 -3.17398910021002 -2.12019936553655
 6 -5.49251815851585 -2.64227984288429  1.48468573287329
 6 -3.46114997429743 -1.88423339923992  0.28106403820382
 6  2.11921623372337  3.06088608280828  0.13801142454245
 6 -4.92290498679868 -1.63459242314231  0.51977602150215
 6  5.11701696359636  0.80539545644564 -0.23998295699570
 6 -2.63749856555656 -1.09269782518252 -0.39979645344534
 6 -1.45936559865987 -3.69644939803980 -1.71653196999700
 6 -4.33803347174717 -3.63629786158616  1.52491761736174
 6  2.17815894959496 -4.47781680538054 -1.35722494929493
 6  5.31971077347735 -0.25877400090009  0.93575612281228
 6  4.53610967226723  3.96712956225623  0.52653485378538
 6  1.25783446184618  4.15358990929093  0.23535525612561
 6 -6.84802945354535 -3.31887666746675  1.13499256135614
 6 -5.83555313591359 -0.58734451845185  0.18611577847785
 6 -0.22167008630863  4.03083133293329  0.20294210611061
 6 -1.08777387598760  5.07815534923492  0.42894135963596
 6 -2.43342281598160  4.57464896629663  0.17138304430443
 6  3.10114669666967 -4.03089575977598 -0.15151746254625
 6 -5.56953066256626  0.51775706430643 -0.82858432323232
 6  6.62499237823782 -0.79510498009801  0.88589948814882
 6 -3.75984352725273  5.20999205770577  0.14898940964096
 6 -2.19452900450045  3.13168812981298 -0.26720249004900
 6 -0.67744833593359  6.38520419041904  0.96184523612361
 6 -4.24915447804780  5.65308126482648 -1.29965905740574
 1 -0.55263684858486  0.36827369316932 -0.06627636733673
 1  3.09185654665467 -1.16512465366537 -0.94563465086509
 1  2.53537341864186 -2.65023662026203 -2.33392994009401
 1  1.22217322352235 -3.60580469136914 -2.98538689878988
 1 -5.48906063336334 -2.09125775047505  2.56321686158616
 1  5.24631714421442  0.09532891429143 -1.27870821812181
 1  6.00380894829483  1.51846137423742 -0.15424899949995
 1 -2.78874509220922  0.03080087038704 -0.64718511601160
 1  0.44022125272527  1.78446829072907 -0.34436188168817
 1 -1.44252898869887 -4.69781435193519 -1.15477498729873
 1 -2.46705681668167 -3.65833642004200 -1.86783491659166
 1 -1.10681586148615 -4.25449251805180 -2.82178776807681
 1 -2.29382176847685 -3.70818054875488  0.74964762996300
 1  1.36140696999700 -4.94896759505951 -0.98607399729973
 1  2.73560966536654 -5.31037514441444 -1.79660504240424
 1  4.49495472847285 -0.87741890529053  0.77656739283928
 1  5.15622996839684  0.19134517321732  2.01280908400840
 1  4.41152167776778  4.86924734113411  0.20112874107411
 1  5.58497158885889  3.68657619081908  0.46973276287629
 1  4.48527556015602  4.13827930003000  1.64850056695670
 1  1.59075985458546  5.07012619001900  0.74499557475748
 1 -7.61487305560556 -2.69378446194620  0.97249851945195
 1 -7.18555261916192 -4.30357673977398  1.71577741814181
 1 -6.69679537653765 -3.70286770287029 -0.09093700530053
 1 -6.75914043634363 -0.57629853835383  0.62216021712171
 1 -5.14578355045505  1.45396021692169 -0.39013627492749
 1 -6.55436381378138  0.78694776977698 -1.55757007310731
 1 -4.66825613761376  0.19506966916692 -1.42230899569957
 1 -4.03606559205921  6.14779918501850  0.76022289878988
 1 -4.67576901510151  4.43248558045805  0.50883690999100
 1 -0.18657780228023  6.37725829122912  1.90340018161816
 1 -1.63831994229423  6.78977243194319  1.35623497519752
 1 -0.10931176317632  7.17109939563956  0.24727568466847
 1 -3.65473338033803  6.26743436913691 -2.05102930543054
 1 -5.14793750095009  6.32455557165717 -1.20284016121612
 1 -4.69791326822682  4.72544271457146 -1.66900640864086
 1  3.81236963746375 -4.76388260076008  1.46110689308931
 1  7.50070809540954 -2.52341173017302  1.61599898289829

