%nproc=4
%Mem=2GB
# td=(NStates=1) B3LYP/SVP 

TD

0 1
 8 -4.25434694549455 -4.91033540474047  1.88946297469747
 8  3.06992102080208 -4.59538084488449  1.30929506680668
 8  7.08329463376338 -1.41143841354135  1.80189286878688
 8  3.69934499199920 -2.98789681468147 -0.15541888128813
 8  7.41131066766677 -0.65594548964897 -0.25702173487349
 8 -3.03129871597160  2.41049910071007 -0.41746330773077
 7 -0.19910690539054 -0.52720691379138 -0.58249526242624
 7  1.49745823852385  1.76653708620862 -0.27234881248125
 7 -3.32568455745575 -3.17505861886189  0.58284460306031
 7 -0.76783527922792  2.84696584598460  0.09857601180118
 6  0.61744400870087 -2.43682164056406 -1.38159045414541
 6  0.97404030633063 -1.13776100780078 -1.05089393829383
 6 -0.76572070077008 -2.64500286248625 -1.25477754045405
 6 -1.37840826282628 -1.42445275667567 -0.64230336033603
 6  3.82531099189919  1.49739290579058 -0.25614988178818
 6  2.43005511131113  0.86135796129613 -0.51743592859286
 6  2.20980623082308 -0.42631988988899 -0.92158163276328
 6  3.51105174527453  2.83944374657466  0.00709870017002
 6  1.66438784388439 -3.37162886418642 -1.95223256885689
 6 -5.58669757645765 -2.81924753965396  1.17931519581958
 6 -3.61987584688469 -1.84044902080208  0.27252318411841
 6  2.18716302840284  2.99612960716072 -0.00894327092709
 6 -5.08469116541654 -1.54200316421642  0.43635767966797
 6  5.09033429532953  0.83495841274127 -0.35562452115212
 6 -2.58939375507551 -1.00265882128213 -0.19487596139614
 6 -1.53568323042304 -3.88230798389839 -1.68097841464146
 6 -4.32779244764477 -3.82580681248125  1.28117324292429
 6  2.08941007470747 -4.53430245394539 -0.94056328312831
 6  5.37272607500750 -0.05759388288829  0.82057460466047
 6  4.58317437873787  3.89538238753875  0.41763396369637
 6  1.33692237063706  4.07978252855285  0.30646236683668
 6 -6.83818846944694 -3.56224100390039  0.52424148624862
 6 -5.83154273487349 -0.47283306730673  0.14308147504750
 6 -0.13789170847085  4.00181843164316  0.34671648354835
 6 -1.08269336793679  5.10079761346135  0.59019748524852
 6 -2.37321679537954  4.63782528392839  0.19511541754175
 6  3.03264984698470 -3.94721739193919  0.14549223842384
 6 -5.39955366486649  0.73660894949495 -0.56937840264026
 6  6.75260513951395 -0.68124359395940  0.70057095529553
 6 -3.58665620852085  5.27861892039204  0.23478798949895
 6 -2.10479003060306  3.12780774177418 -0.10812658245825
 6 -0.62063265436544  6.51520719071907  0.97429648124812
 6 -4.30479004160416  5.38601455815582 -1.14555364686469
 1 -0.14909649454945  0.41774864066407 -0.16637637733773
 1  3.10107746874687 -0.98042618381838 -0.72835292269227
 1  2.54974485578558 -2.89543113971397 -2.32183873097310
 1  1.42166317251725 -3.92887699859986 -2.96997535763576
 1 -5.81779350665066 -2.53902252695269  2.14417495739574
 1  5.20909342184219  0.21878125952595 -1.17141748904891
 1  5.99112768016802  1.42464199229923 -0.46843041764176
 1 -2.93546976467647  0.02817060736074 -0.26616701420142
 1  0.53491072167217  1.77542738663866 -0.32199964546455
 1 -1.40205494129413 -4.91393596409641 -1.16592610241024
 1 -2.52726283728373 -3.48374896129613 -1.91411954505451
 1 -1.11832701260126 -4.14005107390739 -2.60555614491449
 1 -2.19403178947895 -3.25207493819382  0.71345401060106
 1  1.13211404070407 -4.92478517681768 -0.58865425532553
 1  2.42736884128413 -5.46118022492249 -1.50647602950295
 1  4.55102033503350 -0.73354451785179  0.79508924502450
 1  5.29363370877088  0.46615265396540  1.75452325542554
 1  4.54057458305831  4.58830924732473 -0.35957732953295
 1  5.57928101980198  3.23939147234723  0.68588437803780
 1  4.20497753035303  4.34944041614161  1.52577829472947
 1  1.86200697929793  4.94312348974898  0.59289036423642
 1 -7.63677524582458 -2.83513859735974  0.62169343894389
 1 -6.97289135303530 -4.43526990909091  1.08253409380938
 1 -6.69519521652165 -3.68290570667067 -0.52479039063906
 1 -6.94757928022802 -0.58017892639264  0.41531953305331
 1 -4.71179015111511  1.41307612851285 -0.01230849214921
 1 -6.34391276867687  1.28274734973497 -0.91039535563556
 1 -4.84296360836084  0.38513867606761 -1.51350811561156
 1 -3.48643062856286  6.25661006610661  0.64390126662666
 1 -4.18350978917892  4.49116144804480  0.84796082238224
 1 -0.07958710321032  6.45147571297130  2.05647548914891
 1 -1.38596470677068  7.23935739043904  1.06684603630363
 1  0.08929809780978  6.85321760746075  0.29601055815582
 1 -3.67821572857286  6.03554117981798 -1.64986918941894
 1 -5.29322202940294  5.98873198929893 -1.21269114631463
 1 -4.15041851875188  4.39914008430843 -1.59629913791379
 1  3.80901930243024 -4.20780699319932  1.80060084248425
 1  7.80394841944194 -1.95438482748275  1.49065644864486

