%nproc=4
%Mem=2GB
# td=(NStates=1) B3LYP/SVP 

TD

0 1
 8 -4.19077058785879 -4.82229660086009  1.88002203060306
 8  3.07629165786579 -4.72771407820782  1.14921905920592
 8  7.14840114441444 -1.58240551025103  1.84771745124512
 8  3.95937099459946 -3.21123914891489 -0.28708204760476
 8  7.48222775937594 -0.64414430953095 -0.16562259495950
 8 -3.00580616671667  2.24431248204820 -0.46544810621062
 7 -0.27873486818682 -0.49558375147515 -0.46060307320732
 7  1.58450694339434  1.84791522402240 -0.33730530813081
 7 -3.28471046004600 -3.00693180618062  0.69759607820782
 7 -0.76875537123712  2.87255840524052 -0.13170701650165
 6  0.58423068736874 -2.29479743814381 -1.38702099719972
 6  0.91932483478348 -0.96876410811081 -0.92775162406241
 6 -0.78434256295630 -2.59321768396840 -1.23410547324732
 6 -1.34226464846485 -1.35781609300930 -0.64610374037404
 6  3.74524298509851  1.52206537303730 -0.25963022982298
 6  2.47500960676068  0.93133495899590 -0.45448963396340
 6  2.24302955315532 -0.44038129602960 -0.83951342594259
 6  3.47219785988599  2.91360116231623  0.12319030933093
 6  1.61979338443844 -3.29797149844985 -1.91849919551955
 6 -5.61844075077508 -2.84130974587459  1.29838710301030
 6 -3.60865472477248 -1.78199317521752  0.10170610241024
 6  2.06605091719172  3.09129912411241  0.03818144154415
 6 -5.02579527582758 -1.60004896879688  0.50815485938594
 6  5.09773503540354  0.69586450335033 -0.30380933963396
 6 -2.61674649034903 -0.97452600800080 -0.41677815161516
 6 -1.49430909300930 -3.76908666176618 -1.78799911671167
 6 -4.31966163456346 -3.75052928472847  1.37826295189519
 6  2.14476561026103 -4.44488351205120 -0.98943817061706
 6  5.35651445384539 -0.23372149564956  0.87572011921192
 6  4.48930499179918  3.87296014531453  0.55342754305431
 6  1.19061774017402  4.14422897319732  0.28619033963396
 6 -6.82755740634063 -3.55366014581458  0.68510757285729
 6 -5.84367394799480 -0.56039182318232  0.20461762866287
 6 -0.14388230753075  3.99397764756476  0.25202701460146
 6 -1.16285138373837  5.10504803850385  0.52537100260026
 6 -2.33797327102710  4.58065956735674  0.25448135413541
 6  3.19161574357436 -4.05632830303030 -0.00908321912191
 6 -5.57551126062606  0.64482977157716 -0.67065853065307
 6  6.75145502450245 -0.77875334493449  0.77482838103810
 6 -3.62311985488549  5.32227328582858  0.22904741544154
 6 -2.15665521712171  3.17702266326633 -0.18320409020902
 6 -0.63312390349035  6.53689935993599  0.83393244484448
 6 -4.27214677727773  5.38744470117012 -1.12306139763976
 1 -0.50133171807181  0.27019388518852  0.11012127242724
 1  3.12368972997300 -1.09002714391439 -0.99544963236324
 1  2.63866374767477 -2.83128472507251 -2.41521806890689
 1  1.33252425862586 -3.82229634053405 -2.81280964106411
 1 -5.84711643894389 -2.63722234693469  2.40529106900690
 1  4.96532904540454  0.14004338573857 -1.28864921222122
 1  5.97530609800980  1.46927645574557 -0.33566714131413
 1 -2.87770398809881  0.15062285258526 -0.73370376787679
 1  0.42540977157716  1.95825566946695 -0.59889733523352
 1 -2.08264300010001 -4.63919849034904 -0.97661717151715
 1 -2.47272738373837 -3.38692927932793 -2.07280541364136
 1 -0.87884306420642 -4.54333140194019 -2.45457104640464
 1 -2.24301668796880 -3.26782651335134  0.87700036523652
 1  1.17592842214221 -4.67459015731573 -0.34221961186119
 1  2.57793389778978 -5.22960706760676 -1.39485486738674
 1  4.46467170017002 -0.98728989238924  1.01922165826583
 1  5.33413775917592  0.17214325302530  1.79681748484849
 1  4.51330185578558  4.80123053945395  0.02678130633063
 1  5.50242333403340  3.60748828202820  0.51868765836584
 1  4.28990602320232  4.17153262536254  1.66997271417142
 1  1.78610938953895  4.98807798519852  0.91246232143214
 1 -7.92504407270727 -3.17995307880788  0.92987425702570
 1 -7.05881994589459 -4.49801618371837  1.28419425982598
 1 -6.46430212721272 -3.66078349444945 -0.34814272587259
 1 -6.88209273157316 -0.56588749724973  0.78709671077108
 1 -5.25367433953395  1.54073889478948 -0.14225148644864
 1 -6.48449682708271  0.87319639463946 -1.18161247734773
 1 -4.71842115411541  0.52452261446145 -1.29859662446245
 1 -3.49429141464146  6.26968137323732  0.77400427692769
 1 -4.36315775397540  4.83216554845485  0.86476250255025
 1 -0.19626877137714  6.70304086948695  1.84387422902290
 1 -1.64865097539754  7.22857631233123  0.88796814851485
 1 -0.20706153815382  6.80034231993199 -0.09504854775478
 1 -3.23676158315832  5.74381200690069 -1.70751495399540
 1 -5.10277298449845  6.05416853295330 -1.08403828102810
 1 -4.39465294219422  4.29655982628263 -1.40260976897690
 1  3.88095649614962 -4.37178339083908  1.48135891829183
 1  8.04225224982498 -2.04776416541654  1.39511689468947

