%nproc=4
%Mem=2GB
# td=(NStates=1) B3LYP/SVP 

TD

0 1
 8 -4.18851036183618 -4.96211058225823  1.48901292969297
 8  2.75869989868987 -4.88389969676968  1.10161429872987
 8  7.05091139543954 -1.38770604030403  2.02606528602860
 8  3.75473053055306 -3.15691371637164  0.07938459905991
 8  7.64385392199220 -0.45880577567757 -0.01388742144214
 8 -2.94058964506451  2.32399044984498 -0.35429699109911
 7 -0.27084407910791 -0.42608680178018 -0.65671268416842
 7  1.54283277597760  1.71509194169417 -0.30263184078408
 7 -3.19630161916192 -3.11276238923892  0.54520083868387
 7 -0.81798029372937  2.88798994839484 -0.07538138393839
 6  0.65707797209721 -2.36571452985299 -1.35018731383138
 6  0.94170707300730 -0.99408664036404 -0.94115296419642
 6 -0.73326745544554 -2.48434679687969 -1.30531259395940
 6 -1.35900632263226 -1.27595790719072 -0.85818494849485
 6  3.80828928972897  1.41912507900790 -0.26554082088209
 6  2.50152225802580  0.79424124962496 -0.47980216521652
 6  2.26563181338134 -0.53761101900190 -0.85762523712371
 6  3.49109975007501  2.75518532073207  0.07557554785479
 6  1.56578798389839 -3.28462016331633 -2.00354770037004
 6 -5.36105501220122 -2.70203581848185  1.40691795609561
 6 -3.55212907220722 -1.81497647354735  0.11430736253625
 6  2.06812112421242  2.96700669486949 -0.02089446604660
 6 -4.93365606190619 -1.51368033193319  0.56460050395039
 6  5.12714797669767  0.70036495339534 -0.30076903560356
 6 -2.60626544224422 -0.89354791019102 -0.29332580638064
 6 -1.53974363646365 -3.60703045614561 -1.97221753855386
 6 -4.20989065746575 -3.77922215401540  1.17841296689669
 6  2.04612574627463 -4.51764078777878 -1.15483471027103
 6  5.38162696509651 -0.11886000950095  0.91136368356836
 6  4.47238329962996  3.88015086438644  0.21048324862486
 6  1.27679635803580  4.06250080038004  0.30397211781178
 6 -6.78955360596060 -3.39827460726073  1.29982904500450
 6 -5.83358293889389 -0.50467625162516  0.18130529742974
 6 -0.12631055035504  3.99471772157216  0.27721953385339
 6 -1.08930402900290  5.16993452715272  0.43752221772177
 6 -2.32563203690369  4.67319882128213  0.23177908390839
 6  2.89128571057106 -4.10587325752575  0.01467915711571
 6 -5.58425213471347  0.52761805040504 -0.71175264006401
 6  6.86457633663366 -0.67740320992099  0.87008790699070
 6 -3.70956849974998  5.18953001150115  0.25333984468447
 6 -2.11220077167717  3.20742570357036 -0.07173294309431
 6 -0.67441803290329  6.57841351135114  0.89340839243924
 6 -4.39827939053905  5.11399735643564 -1.12172126362636
 1 -0.52050363526353  0.41010787658766 -0.31925166486649
 1  2.98802616361636 -1.13124126532653 -1.01745183258326
 1  2.43360324162416 -2.69884148074807 -2.46829337643764
 1  1.01751275747575 -3.81426553745375 -2.76805516561656
 1 -5.20491221852185 -2.28552717741774  2.42811335123512
 1  5.30824333683368  0.14435381678168 -1.34317466476648
 1  5.74910347774777  1.57498702680268 -0.40046362096210
 1 -2.87773399109911  0.29842763306331 -0.17692809030903
 1  0.56441367196720  1.66917676157616 -0.22905035053505
 1 -1.52060679647965 -4.72902747324733 -1.41451096089609
 1 -2.67465757675768 -3.29409999639964 -1.95503363646365
 1 -1.15925110501050 -3.86958402720272 -2.97531312061206
 1 -2.25172755905591 -3.53233296399640  0.47197986318632
 1  1.14261509080908 -4.89753245154516 -0.76570196009601
 1  2.54700080448045 -5.12457656455646 -1.76476185808581
 1  4.76594182718272 -1.12102326572657  0.77947768386839
 1  5.28574291969197  0.38586462516252  1.84696249934993
 1  4.25010553615362  4.76084650105011 -0.36127749954996
 1  5.61319441114111  3.59787732093209  0.22234802440244
 1  4.51919895249525  4.39871534363436  1.23049876677668
 1  1.88461924052405  5.00921009840984  0.43219429462946
 1 -7.71632320062006 -2.88306338983898  1.77670894049405
 1 -6.67164122802280 -4.56415279737974  1.79228506890689
 1 -6.76481217821782 -3.68438585468547  0.21639372777278
 1 -6.86595111741174 -0.76532744124412  0.47762576367637
 1 -4.93470244234424  1.39183400430043 -0.04368162946295
 1 -6.53267164456446  1.06858593359336 -1.00071438753875
 1 -4.71602091409141  0.37167732993299 -1.45328209300930
 1 -3.21715370087009  6.45515992109211  0.69661653815382
 1 -4.33239467766777  4.86411874377438  1.17784381068107
 1 -0.27035618011801  6.55053561896190  1.95512535413541
 1 -1.51807791809181  7.31235469016902  0.99005835753575
 1  0.36722589058906  6.89843212891289  0.38120907800780
 1 -3.95171307830783  5.69151677737774 -1.89233343584358
 1 -5.53570627782778  5.27452056815682 -1.16589646684668
 1 -4.36294977187719  4.14042421272127 -1.48603811181118
 1  3.18932733323332 -4.33641985448545  1.97193797619762
 1  7.92276030063006 -1.74185357435744  2.15986336933693

