%nproc=4
%Mem=2GB
# td=(NStates=1) B3LYP/SVP 

TD

0 1
 8 -4.07443895469547 -4.83642801400140  1.94008803720372
 8  2.99977400610061 -4.87062836963696  0.91340547784778
 8  6.71719802410241 -1.70754802450245  1.86158883838384
 8  3.88806386388639 -3.13937196219622 -0.10469380878088
 8  7.44831436803680 -0.75240513561356  0.00382434973497
 8 -3.01623720982098  2.37207525832583 -0.38915047644764
 7 -0.19605660036004 -0.43938813191319 -0.62549956285629
 7  1.56862535523552  1.91288172067207 -0.52624420202020
 7 -3.14941693069307 -3.08766987998800  0.66629294789479
 7 -0.81233972967297  2.88884003340334 -0.06891073687369
 6  0.58103036733673 -2.41689964836484 -1.44455675077508
 6  0.99213211551155 -0.98274550625063 -1.08960780968097
 6 -0.80221435013501 -2.50196855905591 -1.15739780248025
 6 -1.27360778277828 -1.30778108950895 -0.63414254425443
 6  3.74764322512251  1.55633880038004 -0.22059632643264
 6  2.45989809560956  0.81651347684768 -0.59075326032603
 6  2.30334558475848 -0.48080533843384 -0.91633110771077
 6  3.46790743084308  2.78793859605961  0.20706869716972
 6  1.55437684278428 -3.32668436973697 -2.07543488908891
 6 -5.35515442214221 -2.80255587048705  1.35011227552755
 6 -3.59279313861386 -1.75246022192219  0.17812374417442
 6  2.06928124022402  3.10101009520952  0.04551217461746
 6 -5.00302299859986 -1.62722168606861  0.56316035993599
 6  5.09453471537154  0.78273319021902 -0.28860781948195
 6 -2.52719753545355 -0.84612316771677 -0.20188666246625
 6 -1.52018168026803 -3.66748650175017 -1.67236755355536
 6 -4.14085375377538 -3.74188842064206  1.27104222982298
 6  2.05894702840284 -4.44535355905591 -1.10669989678968
 6  5.24999380178018 -0.16086420992099  0.89668221542154
 6  4.46706276757676  3.84973782308231  0.80578277857786
 6  1.20780945934593  4.11941649194919  0.31607332793279
 6 -6.61592624322432 -3.53070785058506  1.07273633573357
 6 -5.74171375197520 -0.59846563056306  0.08172533943394
 6 -0.20037795709571  4.03427167696770  0.22468428032803
 6 -1.09578467706771  5.09537707140714  0.38840730623062
 6 -2.33490296399640  4.62927442884288  0.16630253625363
 6  3.08089467146715 -4.02046471667167 -0.11223353415342
 6 -5.39028273777378  0.54155944454445 -0.84394585938594
 6  6.61885176417642 -0.81542701230123  0.87599849804980
 6 -3.66690423332333  5.30364142264226  0.28085259595960
 6 -2.14092364396440  3.21999696069607 -0.19038480828083
 6 -0.72746333743374  6.54892056205621  0.72564161576158
 6 -4.37892745534553  5.41146710341034 -1.09110820232023
 1 -0.14126571147115  0.53982084788479  0.10443070337034
 1  3.20808816981698 -1.14352249344935 -0.98620870827083
 1  2.43018289958996 -2.89124072067207 -2.34916146324633
 1  0.97212821902190 -3.77143125402540 -2.97530589068907
 1 -5.19440116741674 -2.69214783948395  2.47699823972397
 1  5.23853636613661  0.26423580498050 -1.23204355165517
 1  5.94136270367037  1.46028555665566 -0.45843941854185
 1 -2.79728594629463  0.24949273957396 -0.01083148064806
 1  0.38536576717672  1.89164900880088 -0.70654810031003
 1 -1.22835757155716 -4.62650722122212 -1.09091860166017
 1 -2.45213532453245 -3.42903348974898 -1.90969910301030
 1 -1.05472065196520 -4.08761583038304 -2.71519710901090
 1 -2.17450983728373 -3.40223995469547  0.68361102630263
 1  1.07672850215022 -4.64491719001900 -0.74963035293529
 1  2.47175327972797 -5.29227333423342 -1.96167154905491
 1  4.76300153315332 -1.16415757915792  0.74849458555856
 1  5.18221256665667  0.29873591229123  1.85811361446145
 1  4.18391891749175  4.84120453685369  0.12873150135014
 1  5.52666575827583  3.56913444664466  0.54731052065207
 1  4.31383841644164  4.16277174927493  1.78643436033603
 1  1.64034481308131  5.03290246764676  0.79682075727573
 1 -7.59178074637464 -2.76969205270527  1.43570484008401
 1 -6.82666673057306 -4.45951233333333  1.52536837723772
 1 -6.61082677967797 -3.71156857295730 -0.02868077967797
 1 -6.89787430973097 -0.63618452695270  0.66600460156016
 1 -4.96036500860086  1.44325914681468 -0.34472173347335
 1 -6.14592296969697  0.98156723172317 -1.38377269336934
 1 -4.59841915391539  0.13408357055706 -1.49828659345935
 1 -3.54175616111611  6.32340674577458  0.78682555905591
 1 -4.18718015621562  4.71469380128013  1.06524255055506
 1 -0.20598974347435  6.83930449584958  1.56557639923992
 1 -1.70940705100510  7.11356481118112  0.42529188088809
 1  0.10741990999100  6.87927021272127 -0.01391043394339
 1 -3.90044795179518  5.93084070977098 -1.99575377787779
 1 -5.44162686988699  5.68354147024703 -1.19426930413041
 1 -4.53899737663766  4.45807597789779 -1.56451595959596
 1  3.65541394189419 -4.52926913941394  1.63470425282528
 1  7.80636866146615 -1.78025741474147  2.14891227422742

