%nproc=4
%Mem=2GB
# td=(NStates=1) B3LYP/SVP 

TD

0 1
 8 -4.19911142194219 -4.86464083528353  1.81048507690769
 8  3.03325735443544 -5.02471377817782  0.90936507380738
 8  7.01529783408341 -1.54340160986099  1.94872755225523
 8  3.83255831333133 -3.16963498849885  0.06073273387339
 8  7.74704424102410 -0.56489638473847  0.00004397169717
 8 -3.07809339543954  2.33255130593059 -0.30155171657166
 7 -0.26744373907391 -0.48121231433143 -0.62203921682168
 7  1.65930442314231  1.81551198369837 -0.35956753435344
 7 -3.33814580358036 -3.02809392239224  0.68909522812281
 7 -0.87064556025603  2.88689983938394 -0.09244309010901
 6  0.62827509180918 -2.38581654005401 -1.31941423652365
 6  0.95215811811181 -1.08208544024402 -0.95796464536454
 6 -0.76297042574257 -2.58368673087309 -1.17020908360836
 6 -1.29024944694469 -1.32145245664566 -0.69132826282628
 6  3.75339380018002  1.46539970647065 -0.24723899069907
 6  2.54930703650365  0.88185001050105 -0.51008519351935
 6  2.25815106530653 -0.49667692559256 -0.80175965056506
 6  3.53638427852785  2.87159696189619 -0.05112712241224
 6  1.50519192429243 -3.24264596589659 -2.03596094169417
 6 -5.60578948564856 -2.76367198209821  1.35975323962396
 6 -3.60380423972397 -1.73036801270127  0.25315124692469
 6  2.09132344444444  3.06845683988399 -0.09190156675668
 6 -5.06585928222822 -1.55910487438744  0.50043408730873
 6  5.10352561446145  0.77361227812781 -0.26170512921292
 6 -2.65081989768977 -1.00345890129013 -0.36233270707071
 6 -1.44139380148015 -3.84401415451545 -1.60233054985499
 6 -4.33689335773577 -3.70945517731773  1.31085621122112
 6  2.12059319301930 -4.49425844954495 -1.22266149294929
 6  5.45153395579558 -0.07667579107911  1.01239378657866
 6  4.50895695699570  3.82704555385539  0.21118331863186
 6  1.18832751115111  4.14755930623062  0.25536725732573
 6 -6.81639629022902 -3.52190697049705  0.71017007910791
 6 -5.87863744434443 -0.52761854585459  0.05200236713671
 6 -0.16458437773777  4.00126837663766  0.25444725662566
 6 -1.07370246884688  5.19481701540154  0.49544801030103
 6 -2.27095656935694  4.66184768616862  0.22300820682068
 6  3.08006458845885 -4.06924959515952 -0.07995030583058
 6 -5.50519422892289  0.55743103170317 -0.85536700150015
 6  6.86771665066507 -0.61499696929693  0.88434933313331
 6 -3.70460800370037  5.21911296979698  0.44816932763276
 6 -2.13576312791279  3.12730769176918 -0.09520529032903
 6 -0.72317290839084  6.65430110011001  0.73129218081808
 6 -4.39136869946995  5.40349630633063 -0.87103619511951
 1 -0.45475706060606  0.50547741354135 -0.20075981568157
 1  3.03739110011001 -1.17049519071907 -0.95078516591659
 1  2.31041092239224 -2.82663426002600 -2.52680922802280
 1  1.09467047324732 -3.89878398929893 -2.96878523862386
 1 -5.85323705100510 -2.60338896359636  2.53709424932493
 1  5.37114962746275  0.24098347974798 -1.11148149544955
 1  5.99282785018502  1.35133466156616 -0.48291186578658
 1 -2.96710292799280  0.01400919121912 -0.35505590309031
 1  0.59478670927093  1.79116896079608 -0.49797724322432
 1 -1.59620435623562 -4.43653822432243 -0.80899040884088
 1 -2.63793390439044 -3.74463504990499 -2.01126926002600
 1 -0.82620780068007 -4.49646671547155 -2.46347193649365
 1 -2.36312869916992 -3.35245497619762  0.70529319451945
 1  1.12846367566757 -4.87298999729973 -0.73136852675267
 1  2.48442454685469 -5.25728983588359 -1.93323870577058
 1  4.59668490149015 -0.76305746914691  1.29001873797380
 1  5.44011835723572  0.81949798849885  1.80192799589959
 1  4.25655618121812  4.68308872527253 -0.44742611441144
 1  5.57990108180818  3.66512404560456 -0.23234744514451
 1  4.65855288788879  4.18104357645765  1.27405312221222
 1  1.57161794039404  5.16118529592959  0.40946202140214
 1 -7.82068363666367 -2.84116920042004  0.57403867346735
 1 -7.03838790269027 -4.46010239233923  1.34920076047605
 1 -6.68664436143614 -3.90603801990199 -0.21292920452045
 1 -6.93201772407241 -0.59768067656766  0.52965096619662
 1 -5.16188516061606  1.58060288118812 -0.20388765006501
 1 -6.42706108350835  0.87849692469247 -1.36948126422642
 1 -4.52981229322932  0.33670383258326 -1.42621938673867
 1 -3.76216820232023  6.17155156025603  0.96923379987999
 1 -4.25882732093209  4.34121645354535  1.07652367866787
 1 -0.38821796629663  6.66252681808181  1.80421026262626
 1 -1.37415352565257  7.40088354305430  0.70402975467547
 1  0.01749091709171  6.89778206390639 -0.01057009990999
 1 -3.69625753275328  6.08857648334834 -1.36171037353735
 1 -5.25492820002000  5.67322043814381 -0.87805768296830
 1 -4.47238071497150  4.53973414371437 -1.37942745074507
 1  3.62215061556156 -4.89607582008201  1.57575835823582
 1  7.94422244684468 -1.94131352035204  1.82911029402940

