%nproc=4
%Mem=2GB
# td=(NStates=1) B3LYP/SVP 

TD

0 1
 8 -4.32591410221022 -4.89982435363536  1.87438146654665
 8  3.28455248394839 -4.74360566736674  1.13773791109111
 8  6.86877318161816 -1.36853412311231  1.98182086158616
 8  3.79854491199120 -3.05388341334133 -0.16167950735074
 8  7.50238977557756 -0.70001989708971 -0.06676270897090
 8 -3.10223580968097  2.43541159195920 -0.42296385778578
 7 -0.22618961366137 -0.51692588568857 -0.59696670957096
 7  1.55964445714571  1.83196362886289 -0.36874845244524
 7 -3.34906689568957 -3.26767788078808  0.56310262886289
 7 -0.86245474117412  2.92186333573357 -0.05491933773377
 6  0.71614387868787 -2.38468642704270 -1.38131042614261
 6  0.91083398569857 -1.04615184688469 -1.02567141604160
 6 -0.73678780748075 -2.64069243144314 -1.25996805950595
 6 -1.31006142814281 -1.47409772117212 -0.78030716071607
 6  3.81289975077508  1.44222738923892 -0.31873614041404
 6  2.44977708350835  0.88804062956296 -0.58210239523952
 6  2.15046029622962 -0.46394365226523 -0.92736221082108
 6  3.59672031213121  2.76280608280828  0.02777076737674
 6  1.67608901400140 -3.44445614691469 -1.95519286488649
 6 -5.51891079777978 -2.76001161606161  1.39556682098210
 6 -3.58088194749475 -1.93914889078908  0.19650558235824
 6  2.10654496659666  2.98789878407841 -0.01365374197420
 6 -5.03652634893489 -1.61232019591959  0.49475351925193
 6  5.15976123802380  0.84635955285529 -0.34451341004100
 6 -2.63607842354235 -1.07189574497450 -0.41305777957796
 6 -1.44767442954295 -3.83341309440944 -1.78753907070707
 6 -4.37588725712571 -3.76637086888689  1.27924304990499
 6  2.15408654235424 -4.47030605430543 -1.04817404420442
 6  5.21901070347035 -0.14613273677368  0.85574812201220
 6  4.57221328262826  3.88256110541054  0.46961916221622
 6  1.29483816221622  4.06427097739774  0.35038675927593
 6 -6.84935958655866 -3.52596737653765  0.99090815291529
 6 -5.79641922252225 -0.63531931593159 -0.00249308240824
 6 -0.18846676597660  4.01151940174017  0.23513532543254
 6 -1.00786588518852  5.13363089678968  0.50732919841984
 6 -2.31340081378138  4.65538704010401  0.33018892489249
 6  3.12821940394039 -3.98764143434343 -0.04199651045104
 6 -5.49583329282928  0.67558284688469 -0.68141960676068
 6  6.60754063306331 -0.72689815941594  0.84782568076808
 6 -3.57648519141914  5.47712877137714  0.37923243394339
 6 -2.22641219281928  3.23421838283828 -0.13213898369837
 6 -0.65825641674167  6.56602227222722  0.78093714531453
 6 -4.20999056165617  5.59997595429543 -0.95647473897390
 1 -0.40597218211821  0.32125899169917 -0.04065380508051
 1  3.17041440244024 -1.16689483068307 -1.18149823722372
 1  2.55495537683768 -3.07221881848185 -2.46187273437344
 1  1.16938794499450 -3.95235934683468 -2.79309766986699
 1 -5.50974270157016 -2.57535616031603  2.40354089398940
 1  5.42791530403040  0.39499888128813 -1.29168951625162
 1  5.93594216161616  1.54833436153615 -0.09647322192219
 1 -2.87651386908691 -0.00682289198920 -0.47033743124312
 1  0.46476370697070  2.01669151305130 -0.16252369786979
 1 -1.32567730353035 -4.67903247374737 -1.24736424622462
 1 -2.64528463946395 -3.76332691909191 -1.74906303940394
 1 -1.19168434833483 -4.06096316511651 -2.75261085038504
 1 -2.43855624192419 -3.89264899559956  0.59830249544954
 1  1.19782061136114 -4.93507620592059 -0.68101349124912
 1  2.79811591599160 -5.23194730163016 -1.51027640954095
 1  4.49772500550055 -0.95780694409441  0.81654139023902
 1  5.04135848124812  0.24481051975198  1.93926172927293
 1  4.69198972457246  4.64965538193819 -0.35056642844284
 1  5.61220431213121  3.46436396959696  0.55479126872687
 1  4.24836186878688  4.60173564566457  1.33344906180618
 1  1.86665744434443  4.98105728312831  0.78377945314531
 1 -7.61035260356036 -2.92309739323932  1.28685995559556
 1 -6.79440350425042 -4.38398478057806  1.64259009940994
 1 -6.81816751375138 -3.68165558165817  0.08694078247825
 1 -6.87150167246725 -0.80056096459646  0.36616461756176
 1 -5.19285825792579  1.61261608250825  0.13722646134613
 1 -6.49901827922792  0.74963403840384 -1.23085740184018
 1 -4.59063837583758  0.81571173337334 -1.64749151395139
 1 -3.20499248474847  6.53357776287629  0.85624250075008
 1 -4.23579501770177  4.93647597949795  0.95384141044104
 1 -0.08170731523152  6.57468803420342  1.66660650225023
 1 -1.60795690599060  7.16804025872587  0.80804015571557
 1  0.09877904590459  6.87785007070707  0.13232418951895
 1 -3.66582448944894  6.29201682738274 -1.79679388188819
 1 -5.19995270247025  5.91730484658466 -0.79722960016002
 1 -4.53521699859986  4.57986815711571 -1.46174568256826
 1  3.89675807630763 -4.19718593109311  1.68594937733773
 1  7.73898192279228 -1.84543393239324  1.84750213321332

