%nproc=4
%Mem=2GB
# td=(NStates=1) B3LYP/SVP 

TD

0 1
 8 -4.12170368116812 -4.73978835003500  1.97616164456446
 8  2.78528255695570 -4.83200450725072  1.15820995829583
 8  7.06780308460846 -1.39714698439844  1.91089376887689
 8  3.75628068556856 -3.13315134013401 -0.10013335273527
 8  7.53419295589559 -0.70579047414741 -0.26021205390539
 8 -3.09092467856786  2.30558860966097 -0.41769333073307
 7 -0.19408640334033 -0.49115330843084 -0.68604561746175
 7  1.54983347604760  1.78134856735674 -0.30152172977298
 7 -3.22854484348435 -3.03766487948795  0.60385670427043
 7 -0.88961745744574  2.93714486388639 -0.19588343414341
 6  0.69495175947595 -2.40582854125413 -1.37599989508951
 6  1.00132303460346 -0.98645587728773 -1.00072892179218
 6 -0.70932506120612 -2.54978334053405 -1.17516957965797
 6 -1.31084150615061 -1.36014632603260 -0.72710184018402
 6  3.80800926172617  1.50142330883088 -0.22022628942894
 6  2.53973607940794  0.97178900440044 -0.55396958195820
 6  2.26582183238324 -0.38032529042904 -0.98489796439644
 6  3.49619025912591  2.86664646684668  0.13601159145915
 6  1.74806621172117 -3.32044374567457 -1.97822516811681
 6 -5.43945285198520 -2.66665228012801  1.34964222852285
 6 -3.59255311461146 -1.69978495439544  0.19207513931393
 6  2.11319563166317  2.97341733593359  0.09750737413741
 6 -4.97024972127213 -1.53371233513351  0.45675971987199
 6  5.06438170007001  0.69452436933693 -0.30523948264826
 6 -2.62759757545755 -0.97363591899190 -0.41016749054906
 6 -1.50288995109511 -3.76247600070007 -1.64995531233123
 6 -4.25030469886989 -3.69319355115512  1.31891701730173
 6  2.15167630133013 -4.55416444014401 -1.20470969776978
 6  5.37471627402740 -0.11638976247625  0.93940648784878
 6  4.37631369266927  3.90066291559156  0.57231943224322
 6  1.16370504890489  4.03021757205721  0.38357007760776
 6 -6.77622227282728 -3.38055283508351  1.04309337143714
 6 -5.83406298689869 -0.58820460446045 -0.03037587068707
 6 -0.18614653395340  3.97532578237824  0.19311112301230
 6 -1.14023912251225  5.08908644234424  0.54690315581558
 6 -2.35014448814881  4.49029053045305  0.24860076607661
 6  2.99384596659666 -4.11927459765977 -0.03641595239524
 6 -5.47938164766477  0.50084537313731 -0.90257172197220
 6  6.85992587158716 -0.80940641024102  0.73526442464246
 6 -3.66560410331033  5.14428548704870  0.31943645434543
 6 -2.22881243284328  3.15656061706171 -0.17594336413641
 6 -0.82048263936394  6.50811648164817  0.96740579217922
 6 -4.15500506310631  5.48119407610761 -1.08160725222522
 1 -0.40605219011901  0.36987385318532 -0.23264300400040
 1  3.07579494049405 -1.20927906910691 -0.96739682708271
 1  2.70253013431343 -2.83646524312431 -2.41318786588659
 1  1.35173617981798 -3.66051016191619 -2.91576993709371
 1 -5.38488021532153 -2.45740436513651  2.57222776267627
 1  5.11313382588259 -0.04664528312831 -1.21749209650965
 1  5.82921148854885  1.51757128522852 -0.22762633723372
 1 -2.69945616331633  0.10262805310531 -0.63825422292229
 1  0.43900113071307  1.82491233513351 -0.29214666016602
 1 -1.57091182698270 -4.68910348084809 -0.84014352415242
 1 -2.54391450245024 -3.55191577797780 -1.95639377247725
 1 -0.69009418931893 -4.27844491329133 -2.36513210251025
 1 -2.33803618991899 -3.33719345004500  0.55157782298230
 1  1.29316014531453 -5.37914061236124 -1.05182057195720
 1  2.79590569496950 -5.34370847774778 -1.92151753365336
 1  4.57461269426943 -0.87935909930993  1.04101383748375
 1  5.41147549294929  0.49660569926993  1.76276407950795
 1  4.11499202480248  4.85705612201220  0.37188581678168
 1  5.55265835753575  3.75658319151915  0.33725951555156
 1  4.43435046764676  3.79755522762276  1.83839955685569
 1  1.45505628422842  4.81049022642264  0.89619069426943
 1 -7.48266983528353 -2.58112319581958  1.11753302290229
 1 -6.89064312821282 -4.28199458155816  1.65254109450945
 1 -6.96057175417542 -3.86733414951495  0.13209529792979
 1 -6.64148867116712 -0.50600150865087  0.33641164226423
 1 -4.86250522262226  1.42391721262126 -0.38365562686269
 1 -6.40751912931293  1.03176225122512 -1.24001831793179
 1 -4.78018733073307  0.27080724292429 -1.75453221802180
 1 -3.85238722422242  6.03230763586359  0.86324320082008
 1 -4.64516595479548  4.65808814071407  0.89705573187319
 1 -0.12606175067507  6.65505607100710  1.88124796639664
 1 -1.84281039133913  7.01096455115511  1.11901125282528
 1 -0.19546037803780  7.04098638433843  0.12463342044204
 1 -3.18449635663566  6.07764539023902 -1.35395959845985
 1 -5.15760846804680  5.80470358645865 -1.07329720692069
 1 -4.39674315121512  4.47428759905991 -1.62365187318732
 1  3.37392579307931 -4.39718593109311  1.88621940434043
 1  8.01169919451945 -1.72055144414441  1.74548193119312

