%nproc=4
%Mem=2GB
# td=(NStates=1) B3LYP/SVP 

TD

0 1
 8 -4.30038154895490 -5.08607297849785  1.49999402780278
 8  2.91932596129613 -4.94652595939594  1.11838597589759
 8  7.03930023432343 -1.32054932463246  1.86031871137114
 8  3.77129218671867 -3.26882490749075 -0.01664500390039
 8  7.71131066766677 -0.49130902600260 -0.03741977467747
 8 -3.00126571267127  2.47322537333733 -0.51753331473147
 7 -0.22598959365937 -0.44509870297030 -0.43802081498150
 7  1.60386887958796  1.83391382388239 -0.30935251285129
 7 -3.30388237723772 -3.18576968996900  0.57412373097310
 7 -0.79173766946695  2.97348849824983 -0.21602544834483
 6  0.66833909820982 -2.35590354875487 -1.35357765286529
 6  0.89340224252425 -1.05894312601260 -0.85243409230923
 6 -0.73586771547155 -2.59540790299030 -1.16638870157016
 6 -1.28880930293029 -1.41351166256626 -0.67732686268627
 6  3.71306976777678  1.54200736723672 -0.40162442924292
 6  2.56022812861286  0.81892371787179 -0.56991117611761
 6  2.26248149834984 -0.46727398529853 -0.92075154975498
 6  3.57527816791679  2.83778358055806 -0.07927993769377
 6  1.54055546064606 -3.36667836913691 -1.95982332793279
 6 -5.50618952565257 -2.89527514241424  1.20808807310731
 6 -3.65077893719372 -1.88256323222322  0.17715364716472
 6  2.12317662976298  3.04324431863186  0.02506012941294
 6 -5.00958365466547 -1.63650261416142  0.57128117201720
 6  5.05368062996300  0.70023494039404 -0.45872483118312
 6 -2.73319813551355 -1.02133068846885 -0.38040451425143
 6 -1.62880254235424 -3.75609536263626 -1.63111342814281
 6 -4.34900456885689 -3.93957818961896  1.20433555915592
 6  2.03728486218622 -4.57112613631363 -0.99841906870687
 6  5.55143394579458 -0.01608973247325  0.87802034923492
 6  4.56513257455746  3.91067391669167  0.38044024432443
 6  1.26024470287029  4.16811136143614  0.24274599519952
 6 -6.78211286188619 -3.48971375117512  0.76442550465046
 6 -5.89736931753175 -0.59039482348235  0.24159132603260
 6 -0.13772169146915  4.01632988278828  0.14605641754175
 6 -1.06902200080008  5.10630816451645  0.52772123762376
 6 -2.35650512421242  4.65818732013201  0.30941684768477
 6  2.92228881088109 -4.11679434963496  0.15845353455346
 6 -5.47335104460446  0.66111139973997 -0.39847131193119
 6  6.88949882888289 -0.62379784938494  0.79807070527053
 6 -3.64241178407841  5.38353941244124  0.31278578927893
 6 -2.20846039763976  3.28903386438644 -0.13555932573257
 6 -0.66503709480948  6.55680135013501  1.03505255685569
 6 -4.29030859345935  5.48465442214221 -1.13871296279628
 1 -0.61935352025203  0.48278514431443  0.04985524582458
 1  3.09933729472947 -1.17399554075408 -0.94900498789879
 1  2.60595047634763 -2.86416801340134 -2.01058760586059
 1  1.15005601180118 -3.87110122102210 -2.88642700280028
 1 -5.48553028032803 -2.66517514221422  2.33459399929993
 1  5.00808332083208 -0.11801241984198 -1.20240058735874
 1  5.82366093349335  1.48037756585659 -0.76434000860086
 1 -3.01398761646165  0.02299008930893 -0.61037143464346
 1  0.63231046164616  1.75605544944494 -0.56337378287829
 1 -1.65206994279428 -4.59111368186819 -0.81934144394439
 1 -2.64490460146015 -3.43742432883288 -1.73239137223722
 1 -1.17377255715572 -4.17800486928693 -2.59480506980698
 1 -2.29390177647765 -3.53654338503850  0.63763642884288
 1  1.17859868916892 -5.05719841814181 -0.50850624052405
 1  2.52219832423242 -5.25961006790679 -1.50851623352335
 1  4.80637587058706 -0.75109627302730  1.17098683478348
 1  5.69180352575257  0.71943798249825  1.79341714481448
 1  4.10178070367037  5.08987940434043  0.45584421262126
 1  5.51095418711871  3.81252878607861 -0.11684589498950
 1  5.06229326192619  3.64020949304930  1.66879259615962
 1  1.67459823842384  5.26206538393839  0.43219429462946
 1 -7.70007157545755 -2.72059714321432  0.81828309790979
 1 -7.09109317321732 -4.21409779187919  1.42048788918892
 1 -6.58466416341634 -3.83569098519852 -0.31239915151515
 1 -6.83635815811581 -0.76819772827283  0.31494949604960
 1 -4.71586055815582  1.16480130103010  0.33678641734173
 1 -6.21449982738274  1.34994406940694 -0.50395471157116
 1 -4.77734704670467  0.47564772697270 -1.17790455525553
 1 -3.50032201770177  6.58118252335233  0.66242311881188
 1 -4.43813525172517  4.85629796169617  0.91616764306431
 1 -0.24671381588159  6.57860842624262  1.93375321692169
 1 -1.61395750605061  7.12059551425143  0.86513586528653
 1  0.13143231123112  6.97453973967397  0.33924488158816
 1 -3.44501240824082  5.84944256995700 -1.85538974147415
 1 -5.17322002920292  6.01669478557856 -1.19071894909491
 1 -4.58495197209721  4.57171734203420 -1.51304081208121
 1  3.53826222672267 -4.60785699819982  1.87921870427043
 1  8.09009703430343 -1.52582197119712  1.99406678967897

