%nproc=4
%Mem=2GB
# td=(NStates=1) B3LYP/SVP 

TD

0 1
 8 -4.02892440324032 -4.80476484768477  1.92836686508651
 8  2.93654768346835 -4.92169347614761  1.02266640394039
 8  6.94056036033603 -1.48212548224822  2.05759843934393
 8  3.71696675417542 -3.12748077307731 -0.04502784218422
 8  7.59053859045905 -0.53508340344034  0.01965593289329
 8 -3.09698528462846  2.45381343214321 -0.46587814921492
 7 -0.28259525422542 -0.44587878097810 -0.61741875477548
 7  1.53500199289929  1.77653808630863 -0.28392997059706
 7 -3.26788877787779 -3.08721983498350  0.63875019361936
 7 -0.82998149384939  2.94987613701370 -0.05215906170617
 6  0.57194945924592 -2.42040999939994 -1.45358765386539
 6  0.90733363566357 -1.08056528822882 -0.96493534243424
 6 -0.74426855555556 -2.60759912211221 -1.28835089778978
 6 -1.30581100310031 -1.37416772817282 -0.79490862086209
 6  3.71417987878788  1.51766493299330 -0.32416668346835
 6  2.49449155495550  0.81182300780078 -0.56543072807281
 6  2.24239949014902 -0.45164242214221 -0.93364283888389
 6  3.55230587068707  2.81003080528053  0.08022601290129
 6  1.65610701580158 -3.33026472777278 -2.08049539513951
 6 -5.48178708540854 -2.84523013791379  1.24814207850785
 6 -3.66167002630263 -1.91251622752275  0.06391232303230
 6  2.08258257035704  3.06794678887889 -0.02578495509551
 6 -4.95201789808981 -1.62205116901690  0.46796083998400
 6  5.09903516541654  0.75866078297830 -0.40577953665367
 6 -2.66538135383538 -1.01054961036104 -0.44919139293929
 6 -1.59580924302430 -3.83245299839984 -1.65414573137314
 6 -4.23204287268727 -3.77840207200720  1.33074820042004
 6  2.04507564126413 -4.54370339403940 -1.06329555635564
 6  5.37747655005501 -0.09238736223622  0.76739928712871
 6  4.43641970327033  3.80547339663966  0.50186238653865
 6  1.23729240764076  4.12184673497350  0.38065978657866
 6 -6.59305395599560 -3.62561734153415  0.72948201030103
 6 -5.79309889048905 -0.54273005700570  0.30420758765877
 6 -0.09330725002500  4.07098534833483  0.25506731863186
 6 -1.06412151075107  5.18475600930093  0.44570303580358
 6 -2.29055852955296  4.74832633403340  0.17329323532353
 6  3.02913949594959 -4.10683335353535  0.01380907010701
 6 -5.37979168866887  0.78172346094609 -0.35564702950295
 6  6.76491637063706 -0.73805927552755  0.91606250445045
 6 -3.57706524942494  5.40300135863586  0.17805231593159
 6 -2.17535708730873  3.23524848584858 -0.12640841064106
 6 -0.64077466856686  6.50187585758576  0.95815486708671
 6 -4.35646520912091  5.26509246594659 -1.17740683218322
 1 -0.41569315421542  0.44419128492849 -0.34059379907991
 1  3.04140150115012 -1.14360250145014 -1.00430051745175
 1  2.53243312461246 -2.68551014761476 -2.59528607570757
 1  1.08021902810281 -3.71469558045805 -2.70955931603160
 1 -5.65892762006201 -2.34577320202020  2.33810435033503
 1  5.14362687518752  0.28668805020502 -1.39466981428143
 1  5.83966253365337  1.53684321242124 -0.73101667626763
 1 -2.88517473517352  0.11039883018302 -0.77812821032103
 1  0.35814304490449  1.97912775667567 -0.44845229072907
 1 -1.36009074487449 -4.70915548604861 -1.18163767356736
 1 -2.57014712571257 -3.65307589398940 -1.58062619571957
 1 -1.38744392429243 -4.13932100090009 -2.96767235653565
 1 -2.47085947224722 -3.62780251095110  0.50110277547755
 1  1.09067989728973 -4.91113381168117 -0.52904829472947
 1  2.52869897429743 -5.23826793369337 -1.72725810771077
 1  4.62581781478148 -0.90225138853885  0.88390812691269
 1  5.42710705610561  0.46279231793179  1.76648445154515
 1  4.14589511511151  4.91889230563056  0.21275990419042
 1  5.37368045974597  3.55690322352235 -0.08339254965497
 1  4.41721875447545  4.00338581068107  1.59527524442444
 1  1.63330410901090  5.07978715611561  0.73866494169417
 1 -7.59088065636564 -3.11379646314631  0.91464273387339
 1 -6.68149221312131 -4.61307768986899  1.46919275967597
 1 -6.35235093209321 -3.76744416051605 -0.39465737733773
 1 -6.81637615991599 -0.37189809830983  0.69775777687769
 1 -4.58613758585859  1.36752157305731  0.18210094879488
 1 -6.39872825022502  1.50385946094609 -0.58465278137814
 1 -4.90803011501150  0.50136029822982 -1.36428319311931
 1 -3.55561754725473  6.39237364246425  0.39298617511751
 1 -4.07754919311931  4.89531186308631  1.31808783508351
 1 -0.01964110861086  6.44461502690269  1.91007084868487
 1 -1.58721483178318  7.11742519721972  1.08295764746475
 1  0.06872604060406  6.97037932363236  0.28974993209321
 1 -3.90355826282628  5.85968359405941 -2.06766096859686
 1 -5.21908461566157  5.85421853795380 -0.85903578077808
 1 -4.44999847674768  4.21499166946695 -1.39886939493949
 1  3.69909831033103 -4.75047125962596  1.62020280268027
 1  7.89549757435744 -1.95047443644364  1.86171355435544

