%nproc=4
%Mem=2GB
# td=(NStates=1) B3LYP/SVP 

TD

0 1
 8 -4.12842435323532 -4.86123049424943  1.83402743114311
 8  2.87731175987599 -4.84763607040704  1.12798693599360
 8  7.10345664996500 -1.55349261896190  1.83834651415142
 8  3.77143220072007 -3.19456748174817 -0.19380271967197
 8  7.71101063766377 -0.48508840394039 -0.05318135083508
 8 -3.08168375447545  2.39109716051605 -0.52074363576358
 7 -0.25050204490449 -0.45123931703170 -0.50103711661166
 7  1.50096858955896  1.83344377687769 -0.29154073167317
 7 -3.28929091809181 -3.13817493049305  0.68248456705671
 7 -0.86072456815682  2.87444859425943 -0.19542338813881
 6  0.58198046234623 -2.28553651205120 -1.40066236133613
 6  0.92283518581858 -1.00497772947295 -0.89571842074207
 6 -0.67748187688769 -2.55953431563156 -1.20028209090909
 6 -1.28648907090709 -1.32698300970097 -0.70074920492049
 6  3.81625008580858  1.54814798129813 -0.19291355815582
 6  2.51778388418842  0.92091391689169 -0.66010019501950
 6  2.32444769496950 -0.41197845574557 -0.95470494509451
 6  3.55371601170117  2.82159196139614  0.11952994329433
 6  1.64213561866187 -3.34436613791379 -1.96633397899790
 6 -5.47029593629363 -2.81048666356636  1.40798806310631
 6 -3.62550640994099 -1.91191616751675  0.24095002680268
 6  2.06803111521152  2.96618661286129  0.03748137153715
 6 -5.00550324662466 -1.55057402130213  0.54666871077108
 6  5.10723598549855  0.80334525142514 -0.38019697839784
 6 -2.64574939063906 -0.96350490589059 -0.27326380018002
 6 -1.34871453355336 -3.78305805890589 -1.80901121792179
 6 -4.31562123052305 -3.80319455125513  1.33077820342034
 6  1.90894202790279 -4.46598562226223 -1.00693992079208
 6  5.41857065946595 -0.21478960246025  0.89866241344134
 6  4.57972403370337  3.85976882618262  0.59776197649765
 6  1.23634231263126  4.12255680598060  0.38521024162416
 6 -6.72411706230623 -3.42530731053105  0.89743880598060
 6 -5.89202878347835 -0.59554533853385  0.18004517141714
 6 -0.17471539083908  3.96536478627863  0.20669248114811
 6 -1.08684378297830  5.07830536423642  0.42460092559256
 6 -2.37192666636664  4.59422092349235  0.19826573257326
 6  3.02731931393139 -4.16763943414341 -0.02446475727573
 6 -5.51007471697170  0.60115540414041 -0.74967643244324
 6  6.87030690969097 -0.72240771037104  0.77372827102710
 6 -3.79321686458646  5.25108616711671  0.29165367606761
 6 -2.16921647324732  3.10442540354035 -0.15284105390539
 6 -0.82881347244724  6.46979264926493  0.82544159575958
 6 -4.24603416601660  5.73417937463746 -1.13044213571357
 1 -0.46169775467547  0.55328219401940 -0.01175091479148
 1  3.06731409240924 -1.26130427162716 -1.12199228662866
 1  2.52023190449045 -2.68264986158616 -2.50324687178718
 1  1.18492949914991 -3.88639275017502 -2.80711907200720
 1 -5.68135986328633 -2.23357198189819  2.32534307420742
 1  5.22978549104911  0.17002638403840 -1.30334068136814
 1  5.88879744714471  1.51669119721972 -0.15027860246025
 1 -2.92335855355536  0.05937372767277 -0.50821121862186
 1  0.46489371997200  2.01668151205121 -0.40690813631363
 1 -1.53081781758176 -4.69716428692869 -0.96734624442444
 1 -2.20434054505451 -3.66702728912891 -2.32535066816682
 1 -0.76582176207621 -4.27454452325233 -2.50462605190519
 1 -2.28355074137414 -3.55452518321832  0.45658832403240
 1  0.83292412171217 -4.87259995829583 -0.57204259415942
 1  2.37064316871687 -5.32371647854785 -1.75600098199820
 1  4.70371560456046 -1.26506767016702  0.48269800590059
 1  4.82987733313331  0.11575761446145  1.91211901500150
 1  4.24909543514351  4.81782219861986  0.19159778797880
 1  5.59218230993099  3.38891642484248  0.24781057065707
 1  4.53115014761476  3.97594306640664  1.79601531843184
 1  1.73007378597860  4.98804798219822  0.83048412361236
 1 -7.75472704100410 -2.94982006550655  1.16336760636064
 1 -6.72453651755175 -4.33327971007101  1.43088892929293
 1 -6.58157385438544 -3.72688010411041 -0.16742465406541
 1 -6.77290181248125 -0.77440834933493  0.49751775287529
 1 -4.91169014111411  1.47914273517352 -0.33190045134513
 1 -6.23209158655866  1.07867694269427 -1.12866718281828
 1 -4.93498281028103  0.48081824402440 -1.75086185098510
 1 -3.63258524402440  6.16644104920492  1.08215509200920
 1 -4.44709614781478  4.55737806970697  0.71954798109811
 1 -0.28894803930393  6.48440900630063  1.85217505910591
 1 -1.66958306860686  6.95762921762176  0.92786213791379
 1 -0.08688952095210  7.07595988168817  0.18723968106811
 1 -3.56759466646665  6.53203082878288 -1.71315551805180
 1 -5.21654436163616  6.11746486258626 -1.13949382658266
 1 -4.08810228712871  4.80270044034403 -1.78333784178418
 1  3.46004440494049 -4.37054326682668  1.61773255565557
 1  8.02968099269927 -1.89416880588059  1.86488387138714

