%nproc=4
%Mem=2GB
# td=(NStates=1) B3LYP/SVP 

TD

0 1
 8 -4.29347085788579 -4.88158252945295  1.86659068746875
 8  2.80668469716972 -4.80442174897490  1.08428256555656
 8  6.87065336963696 -1.49618688838884  1.97474015351535
 8  3.73256831433143 -3.16282430743074 -0.17726106550655
 8  7.51591112771277 -0.56981687678768  0.10264423172317
 8 -3.06051163726373  2.43931198199820 -0.56400796219622
 7 -0.16743373807381 -0.47636182928293 -0.55948296119612
 7  1.56215470817082  1.84330476297630 -0.34802638023802
 7 -3.28065005400540 -3.12381349434943  0.70429674827483
 7 -0.76670516621662  2.82062321172117 -0.07322116791679
 6  0.62378464276428 -2.37679563796380 -1.51031332643264
 6  1.00553345564556 -1.13992122382238 -1.03682253115312
 6 -0.66007013571357 -2.58230659285929 -1.30599266196620
 6 -1.22944336633663 -1.39460977237724 -0.71822095209521
 6  3.75326378717872  1.53282644914491 -0.27041130793079
 6  2.48252035783578  0.85941776727673 -0.55612979797980
 6  2.33153840404040 -0.38486574447445 -0.98808828342834
 6  3.50124076417642  2.81487128932893  0.11047903820382
 6  1.57800920602060 -3.45616731803180 -2.12891023662366
 6 -5.43689259595960 -2.82414802970297  1.39397666196620
 6 -3.56112997229723 -1.87381235713571  0.21261719351935
 6  2.08069238133813  3.01020101430143  0.04331195459546
 6 -4.93842653895390 -1.54926389028903  0.57915195909591
 6  5.08838410031003  0.75893080998100 -0.43727268596860
 6 -2.58720353605361 -1.06825538093809 -0.24265073887389
 6 -1.50975063716372 -3.74208396149615 -1.90909122592259
 6 -4.20430009840984 -3.78998323012301  1.42449757535754
 6  2.08156929062906 -4.53728275197520 -1.12344157095710
 6  5.33462226462646 -0.04232235573557  0.89708225542554
 6  4.45809187048705  3.93419626892689  0.34650685098510
 6  1.27217589598960  4.08364291459146  0.34336605720572
 6 -6.75252990359036 -3.52627740754075  0.94104316641664
 6 -5.73243282388239 -0.47180296429643  0.22736990389039
 6 -0.16215413471347  4.01240949074908  0.33216502840284
 6 -1.12390748934893  5.11190872457246  0.58412687818782
 6 -2.37204667836784  4.58372987438744  0.27053295929593
 6  2.94355093709371 -4.08075074527453 -0.02145445624562
 6 -5.36728043754375  0.61919720832083 -0.70814227902790
 6  6.73976385538554 -0.65253072267227  0.98406930513051
 6 -3.72010955385539  5.19330038853885  0.26342085278528
 6 -2.11497104870487  3.14160912191219 -0.17640341014101
 6 -0.74419501060106  6.50150582058206  0.97634668626863
 6 -4.19458902150215  5.65239119581958 -1.19017810931093
 1 -0.17056864176418  0.47610447624763 -0.23537327702770
 1  3.27747510851085 -0.85265340654065 -1.31285137253725
 1  2.48271815311531 -2.88753034963496 -2.54551109820982
 1  1.16680768696870 -3.76677078797880 -2.96897525762576
 1 -5.50747247454745 -2.49290791549155  2.21152169206921
 1  5.07253976647665  0.34699408080808 -1.39574992229223
 1  5.81153972137214  1.48500802890289 -0.59246282088209
 1 -2.88402462016202  0.10826861716172 -0.16829722722272
 1  0.43061029162916  2.01058090199020 -0.64951239673967
 1 -1.55335007080708 -4.54017858835884 -1.02224173397340
 1 -2.47491760276028 -3.53770435683568 -1.86642477557756
 1 -1.37869304920492 -4.14369143794379 -2.93937952725273
 1 -2.32665505180518 -3.55998572927293  0.66017868306831
 1  1.07460829012901 -5.24226692499250 -0.73394878477848
 1  2.70900700510051 -5.44399850675067 -1.76244162606261
 1  4.73809904290429 -0.93875503890389  0.84186392249225
 1  5.27072141754175  0.75376141484148  1.64888269136914
 1  4.31913243884388  4.62333274967497 -0.48718008980898
 1  5.44919801150115  3.64938247144714  0.41239702930293
 1  4.41293832643264  4.45995146724673  1.35350106700670
 1  1.95844662326233  4.96256543394339  0.39485056025603
 1 -7.66172774107411 -2.90316540004000  1.04208547814781
 1 -6.82932699659966 -4.60416679877988  1.62257809820982
 1 -6.60718641564157 -3.72558997509751 -0.07916582818282
 1 -6.72490701300130 -0.60057096559656  0.87363536463646
 1 -4.66615558765877  1.35357017791779 -0.13589085038504
 1 -6.12756113351335  1.08089716471647 -1.00778509460946
 1 -4.28514782678268  0.39128929112911 -1.43605036983698
 1 -3.79535152065207  6.05424983008301  0.85269214571457
 1 -4.38211965016502  4.41206353825383  0.81983801010101
 1  0.17693854935494  6.75838640404040  1.73841368296830
 1 -1.58941505180518  6.94820827552755  1.32318166986699
 1 -0.48834966696670  7.11923420912091 -0.19859890279028
 1 -3.34876278327833  6.24734235993599 -1.62400660316032
 1 -5.21479418661866  6.09264238033803 -1.12314219141914
 1 -4.29579305620562  4.72495266556656 -1.78789829782978
 1  3.51412981348135 -4.32366857935794  1.73229401180118
 1  7.72216024062406 -1.76090547954795  1.82237962096210

