%nproc=4
%Mem=2GB
# td=(NStates=1) B3LYP/SVP 

TD

0 1
 8 -4.35747725852585 -5.00614498569857  1.65956998539854
 8  3.05393942264226 -4.89362066886689  1.18018215551555
 8  6.96142244654465 -1.54035130483048  1.86941962146215
 8  3.85326038353835 -3.10950897589759 -0.02262560196020
 8  7.54858439503950 -0.52055195029503 -0.05561159385939
 8 -3.04141972807281  2.45820387118712 -0.52339390079008
 7 -0.29084607930793 -0.54381857495750 -0.69924693759376
 7  1.50759925262526  1.91264169666967 -0.40210178777878
 7 -3.38504049304930 -3.23730484348435  0.48312463106311
 7 -0.84207270297030  2.95128627802780 -0.00689453525353
 6  0.71777404170417 -2.39866782518252 -1.39284157925793
 6  0.93947684998500 -1.05943317501750 -1.02959180808081
 6 -0.74873900260026 -2.67092545474547 -1.25391745444545
 6 -1.29689011101110 -1.53764407580758 -0.81009013901390
 6  3.69548800960096  1.44575774227423 -0.38382264906491
 6  2.45352745854585  0.90156198169817 -0.68997318231823
 6  2.16156140634063 -0.43040029792979 -0.94908438303830
 6  3.49490013011301  2.79084888708871  0.04539252955296
 6  1.64758616371637 -3.32697439873987 -1.97420476607661
 6 -5.44535344204420 -2.77205282018202  1.48829609390939
 6 -3.63745760506051 -1.87752272817282  0.18220415221522
 6  2.03965827792779  3.05720571477148  0.01626925032503
 6 -4.96333903020302 -1.61241020492049  0.64378842274227
 6  5.09774503640364  0.85220013691369 -0.37663662236224
 6 -2.62074689038904 -1.16188474387439 -0.40113658745875
 6 -1.34160382248225 -3.82350210331033 -1.83698401520152
 6 -4.31536120452045 -3.89058329012901  1.26423154875488
 6  2.07953908760876 -4.41409043274327 -0.95709493629363
 6  5.33294209660966 -0.11548967246725  0.83995654285429
 6  4.47538359965997  3.90393324262426  0.52221442174217
 6  1.28803748214821  4.08876342664266  0.44162588318832
 6 -6.80079473007301 -3.43073785358536  1.02069113121312
 6 -5.74862444304430 -0.50441622562256  0.33542070897090
 6 -0.07787570687069  4.02248049784979  0.30722253415342
 6 -1.06564166276628  5.19723725742574  0.51210967646765
 6 -2.28545801950195  4.67423892529253  0.20034594059406
 6  3.05324190619062 -4.06870954115412  0.12475016421642
 6 -5.45491920142014  0.55055034363436 -0.62326379117912
 6  6.69043892289229 -0.76145161476148  0.89112001020102
 6 -3.64583212611261  5.35453651215122  0.26573108380838
 6 -2.17779733133313  3.31152611361136 -0.17325309510951
 6 -0.56906749784979  6.55151082108211  0.97387643924392
 6 -4.25337490009001  5.62019797649765 -1.21956104760476
 1 -0.58291987688769  0.63917078287829 -0.36202594229423
 1  3.19062642364236 -0.90320846204620 -0.95484557195720
 1  2.57226710801080 -2.82380397699770 -2.27496404350435
 1  1.08731973817382 -3.84585869676968 -2.87280564066407
 1 -5.50790251755175 -2.36533515821582  2.63959449934994
 1  5.33003551605161  0.59674905630563 -1.46563691099110
 1  5.84883345074507  1.70492002010201 -0.31339491409141
 1 -2.94122033973397 -0.09912212191219 -0.32910330783078
 1  0.42511974257426  1.96386623052305 -0.42675012051205
 1 -1.14465920172017 -4.72747731823182 -1.12031154095410
 1 -2.36328643964396 -3.79208979537954 -1.98499663276328
 1 -1.03437861776178 -4.02074914371437 -2.76373196249625
 1 -2.44373675997600 -3.49378910961096  0.60491315651565
 1  1.25157598689869 -5.01256395469547 -0.58786417631763
 1  2.78731483588359 -5.13503761066107 -1.44111949384938
 1  4.69283451645164 -1.19165032843284  0.85193492959296
 1  5.11807615301530  0.33273931263126  1.83744154725473
 1  4.40509103470347  4.62620303670367 -0.35662703450345
 1  5.48931202290229  3.47041457465747  0.68902469206921
 1  4.17494452705271  4.33093856595660  1.49596531343134
 1  1.84424520312031  4.94307348474848  1.10208128332833
 1 -7.58048961726173 -2.57359244274428  1.17113838343834
 1 -7.18578264216422 -4.27661404350435  1.81681752215222
 1 -6.56622231923192 -3.75748316441644 -0.11263917551755
 1 -6.64579910221022 -0.41331223972397  0.84112211331133
 1 -4.79276824892489  1.29021384228423 -0.04219148044804
 1 -6.41097947534753  1.00815989098910 -0.76973128922892
 1 -4.73521283328333  0.38183834603460 -1.61336810161016
 1 -3.59342132763276  6.35153955905591  0.79631650815082
 1 -4.39478091629163  4.76689902180218  0.82951897819782
 1 -0.11082022652265  6.44220478587859  1.90419026062606
 1 -1.36045215551555  7.18401185588559  0.98776812851285
 1  0.02129129712971  7.03924621032103  0.10771172827283
 1 -3.70015792279228  6.34288191389139 -1.79552375487549
 1 -5.23523623082308  6.08645176127613 -1.24288416561656
 1 -4.47689116601660  4.81081125142514 -1.72789229722972
 1  3.71482988348835 -4.48100431293129  1.57045782818282
 1  7.90190821542154 -1.85958534753475  1.64860224322432

