%nproc=4
%Mem=2GB
# td=(NStates=1) B3LYP/SVP 

TD

0 1
 8 -4.42013352415242 -4.72933730493049  1.88806283468347
 8  2.83952798149815 -4.92159346614661  1.19970410771077
 8  7.23356966126613 -1.50909817951795  1.66432911241124
 8  3.82372743024302 -3.19229725472547  0.00319698029803
 8  7.69043858045805 -0.28385828092809 -0.16630266296630
 8 -3.05008059415942  2.32526057685769 -0.31348290969097
 7 -0.24123111781178 -0.47228142124212 -0.58392540544054
 7  1.58195668836884  1.77780821332133 -0.37791936953695
 7 -3.29553154215422 -3.09655076807681  0.84085040364036
 7 -0.81477997369737  2.87279842924292 -0.13074692049205
 6  0.70747301160116 -2.46761471987199 -1.41326362146215
 6  0.97790069236924 -1.11528876057606 -0.90388923782378
 6 -0.75835996469647 -2.58467682988299 -1.19413147584758
 6 -1.32846326832683 -1.36291660306031 -0.63604273427343
 6  3.79727818861886  1.53847701420142 -0.21061532833283
 6  2.56776888268827  0.85707753325333 -0.56436062106211
 6  2.22639788998900 -0.48296555445545 -0.86051552615262
 6  3.48360900100010  2.81185098729873  0.25218320862086
 6  1.59577098219822 -3.41408310961096 -2.04981232683268
 6 -5.56912581928193 -2.66305192009201  1.33528079237924
 6 -3.59663352265227 -1.76080105600560  0.20746667846785
 6  2.07907221932193  2.97325731993199  0.06974459785979
 6 -4.97267996429643 -1.54932389628963  0.42227627152715
 6  5.16502176407641  0.84301921882188 -0.26771573027303
 6 -2.66362117781778 -0.92089064446445 -0.32110858465847
 6 -1.45876553865387 -3.87491724482448 -1.72306262306231
 6 -4.40248991739174 -3.67941217301730  1.30914604020402
 6  2.12205333903390 -4.50807983168317 -1.07372659945995
 6  5.50333913631363 -0.25579370287029  0.72647519471947
 6  4.51670773207321  3.89367221652165  0.68821102140214
 6  1.17606628502850  4.08014256455646  0.24087580818082
 6 -6.77692234283428 -3.43133791359136  0.81695075717572
 6 -5.78935851645165 -0.58968475247525 -0.12149498259826
 6 -0.23773169246925  4.09006725652565  0.13921573347335
 6 -1.21036613521352  5.08281581528153  0.54513297879788
 6 -2.38795826952695  4.60322182358236  0.39817572357236
 6  2.96388297029703 -4.11037370757076  0.03258094729473
 6 -5.51914562406241  0.51320660926093 -1.00819228402840
 6  6.93761364036404 -0.62977844744474  0.68584948314831
 6 -3.75759330223022  5.08483954245425  0.37689219991999
 6 -2.16589614121412  3.18366332733273 -0.09964573437344
 6 -0.61155174627463  6.54019968996900  0.85818487008701
 6 -4.26543610621062  5.46379233593359 -1.03284237573757
 1 -0.34659624452445  0.51114798059806 -0.31744148384839
 1  2.89379674067407 -1.16637477867787 -1.20271035843584
 1  2.37834771607161 -2.69979157575758 -2.27422396949695
 1  1.12127313351335 -3.71763587448745 -2.93821218131813
 1 -5.68789051635164 -2.26532515721572  2.28654919481948
 1  5.25809832233223  0.47629701110111 -1.37467781508151
 1  6.02251081848185  1.74170369846985 -0.27381095569557
 1 -2.85278149584958  0.09684747504751 -0.43557395489549
 1  0.53477070767077  1.69399924382438 -0.44704214971497
 1 -1.34060879667967 -4.84250882138214 -0.97089659945995
 1 -2.62132224322432 -3.81259184558456 -1.81317945104510
 1 -1.04311949184918 -4.08576564536454 -2.83005859515952
 1 -2.19245163146315 -3.22752248294829  0.99993265846585
 1  1.12621345064506 -4.99599229752975 -0.60928631853185
 1  2.85279138353835 -5.23424753165317 -1.59301468336834
 1  4.83170840384038 -1.27324848824882  0.44132386848685
 1  5.20309465486549 -0.01082504380438  1.75823362646265
 1  4.29642016761676  4.86901731813181  0.23448207640764
 1  5.55263835553555  3.54797233043304  0.22408819841984
 1  4.58114514711471  4.05812128422842  1.97466318321832
 1  1.51847262586259  5.19644882228223  0.41373244844484
 1 -7.50307187548755 -2.77071215471547  1.04384565416542
 1 -6.66590065396540 -4.31557793989399  1.46368220862086
 1 -6.80566626362636 -3.60766818291829 -0.19711762336234
 1 -6.82161668396840 -0.46397730623062  0.39689769086909
 1 -4.91152012411241  1.46060088098810 -0.55144240554055
 1 -6.25660403780378  1.05278435343534 -1.33228754485449
 1 -4.77740705270527  0.29822998519852 -1.86386315111511
 1 -3.85535752125213  6.09613401850185  1.04858173467347
 1 -4.44225566376638  4.47966029792979  0.83092911921192
 1 -0.16147529202920  6.68938950435044  1.78245808740874
 1 -1.37049315961596  7.08873232793279  0.74699405110511
 1  0.02447161516152  6.94665695139514  0.05432638973897
 1 -3.64790269726973  6.08872649834984 -1.53639784228423
 1 -5.36654936213621  5.96592970907091 -1.16508638583858
 1 -4.68650212711271  4.46841701200120 -1.79530903890389
 1  3.44323272377238 -4.46182239473947  1.63344412681268
 1  8.29735776037604 -1.59392878187819  1.72835021802180

