%nproc=4
%Mem=2GB
# td=(NStates=1) B3LYP/SVP 

TD

0 1
 8 -4.28459997079708 -4.95809018021802  1.78606263466347
 8  3.08663269196920 -4.98131943874387  1.00546468376838
 8  6.98495479977998 -1.53257052675268  1.81170384988499
 8  3.65761081858186 -3.15116314131413 -0.19599293869387
 8  7.68037757435744 -0.33061295639564  0.11763573087309
 8 -2.99495508160816  2.39721777257726 -0.36768833023302
 7 -0.25852284698470 -0.53099729282928 -0.62326933983398
 7  1.57096558925893  1.87580801330133 -0.21913349094909
 7 -3.32617460646065 -3.17271838483848  0.67365368396840
 7 -0.76709520522052  2.95622677207721 -0.18470231603160
 6  0.56267853215322 -2.44714267266727 -1.39328162326233
 6  0.93765666796680 -0.98371560326033 -1.06290513941394
 6 -0.71803593229323 -2.68750711291129 -1.15417748044804
 6 -1.25450587258726 -1.42078238963896 -0.59718884888489
 6  3.76686514731473  1.54012717921792 -0.22472673947395
 6  2.54961706750675  0.88382020752075 -0.35590977597760
 6  2.19561481168117 -0.37667492539254 -0.86302577717772
 6  3.49780042014201  2.89394919711971  0.07351534183418
 6  1.52645405050505 -3.45730743204320 -2.07010435603560
 6 -5.54149305600560 -2.87102271717172  1.37736500080008
 6 -3.61917577687769 -1.89241421732173  0.17344327612761
 6  2.13293760586059  3.10569056325633  0.07707533093309
 6 -5.02472516881688 -1.64591355525553  0.55348939283928
 6  5.07117237913791  0.92364728162816 -0.29441840054005
 6 -2.59541435713571 -1.01634018941894 -0.24251072487249
 6 -1.51377103920392 -3.78994874797480 -1.73265358215822
 6 -4.28504817321732 -3.81739597139714  1.35081020662066
 6  1.94214534823482 -4.59538856255626 -1.04392361916192
 6  5.47776657905791 -0.05063318681868  0.86219876707671
 6  4.60015607690769  3.78490133943394  0.32736493679368
 6  1.29659833823382  4.19966451675167  0.36073779437944
 6 -6.82664731533153 -3.44506928672867  0.72728179027903
 6 -5.79582916351635 -0.53142892689269  0.25919308620862
 6 -0.04776269556956  4.03156140594059  0.20522233413341
 6 -1.09123422202220  5.12440997469747  0.41451991749175
 6 -2.34493396709671  4.62977447884789  0.20854676067607
 6  2.95958254025403 -4.12699536973697 -0.04133644444444
 6 -5.59874358385839  0.59229451805181 -0.65041650645064
 6  6.81317119611961 -0.63782925252525  0.83054395259526
 6 -3.58648619151915  5.33432449094910  0.22513702440244
 6 -2.10387993959396  3.19805476647665 -0.18848461826183
 6 -0.66476706780678  6.52557822782278  0.87604665626563
 6 -4.24922448504851  5.48079403610361 -1.10996008750875
 1 -0.44862644754475  0.51093795959596 -0.33375311501150
 1  2.91860922192219 -1.09260740194019 -1.03683377077708
 1  2.49179906120612 -3.15009660626063 -2.48611515861586
 1  0.83768477467747 -3.95562967386739 -2.74729308940894
 1 -5.55486721402140 -2.55326395109511  2.48308884878488
 1  5.05443795629563  0.48930831223122 -1.29897024432443
 1  5.87340590799080  1.61686121422142 -0.29698327292729
 1 -2.89758597629763  0.02628041834183 -0.27711810931093
 1  0.66999423002300  1.99304914881488 -0.13905135063506
 1 -1.58978371417142 -4.71941651215122 -1.10035954575458
 1 -2.58250836183618 -3.57682826922692 -2.00581871497150
 1 -0.87502268216822 -4.14309137793779 -2.55747133643364
 1 -2.40547293359336 -3.51896162686269  0.59188185338534
 1  0.95800662996300 -4.85202790109011 -0.55086047594759
 1  2.49485558995900 -5.27871197809781 -1.41294667656766
 1  4.73202843584358 -0.88991015441544  0.63377311341134
 1  5.24340868626863  0.21033707240724  1.90380818391839
 1  4.65895642124212  4.66363678007801 -0.37511888368837
 1  5.61446453815382  3.35958349154916  0.15553134273427
 1  4.38744577717772  4.37762323442344  1.39744546144614
 1  1.71103188178818  5.25358453585359  0.66666774197420
 1 -7.69933150145014 -2.90847593109311  0.70175144474447
 1 -6.86749081298130 -4.48794517661766  1.16378221862186
 1 -6.58590428742874 -3.50002741884188 -0.48570648224822
 1 -6.85864038633863 -0.66086699519952  0.58714671577158
 1 -4.87286625872587  1.28918373927393 -0.17064432573257
 1 -6.51106948434843  1.05555463046305 -0.86810112621262
 1 -5.22277158915892  0.38587875007501 -1.64194095889589
 1 -3.63528551405141  6.40739514461446  0.78417529402940
 1 -4.29692113031303  4.68390072197220  0.56775280158016
 1 -0.16532567706771  6.30350091549155  1.68837867946795
 1 -1.68299440974097  7.16903035773577  0.91991134283428
 1 -0.26050688268827  6.99593187888789  0.17329828692869
 1 -3.50500840784078  5.98437606330633 -1.96286048854886
 1 -5.22985569276928  6.25491860796080 -1.01390126732673
 1 -4.64380785768577  4.48171834213421 -1.69583909190919
 1  3.96451485198520 -4.97437364986499  1.56179696209621
 1  8.02402042664266 -1.86039542854285  1.81803918691869

