%nproc=4
%Mem=2GB
# td=(NStates=1) B3LYP/SVP 

TD

0 1
 8 -4.02202371317132 -4.84573894509451  1.71814584298430
 8  3.18892292099210 -4.98344965176518  0.96980111741174
 8  6.84620092439244 -1.60743801350135  1.96783946344634
 8  3.99428448594859 -3.28707673267327 -0.21643498289829
 8  7.63776331293129 -0.56216611171117  0.12665663296330
 8 -3.04312989908991  2.34305235603560 -0.51010257165717
 7 -0.35860285498550 -0.49622381548155 -0.62700971387139
 7  1.51948044074407  1.88317875037504 -0.35909748734873
 7 -3.17677966696670 -3.05390650365036  0.75543186178618
 7 -0.86400489618962  2.91504265366537 -0.16386023182318
 6  0.59245150945095 -2.34700265866587 -1.39490178527853
 6  0.89891279357936 -1.00902813451345 -0.92212106100610
 6 -0.79531366006601 -2.57746610881088 -1.33914597729773
 6 -1.28468889088909 -1.39589990139014 -0.70324945494549
 6  3.74313277407741  1.52244541104110 -0.18915318211821
 6  2.49089119491949  0.87378920442044 -0.53872805780578
 6  2.20058530873087 -0.42496975487549 -0.85038451305131
 6  3.52728336843684  2.78978878107811  0.11498948924892
 6  1.51230263536354 -3.29403110441044 -1.99033637923792
 6 -5.41485039173917 -2.79398501340134  1.31005827012701
 6 -3.52966682598260 -1.67458243414341  0.23467939973997
 6  2.05239955205521  3.07318731293129 -0.03797617421742
 6 -4.99611230753075 -1.56130509440944  0.55672971687169
 6  5.14650991289129  0.84394931183118 -0.25304426312631
 6 -2.63975879157916 -0.94791334673467 -0.41187766156616
 6 -1.60397005910591 -3.87619737283728 -1.77745806260626
 6 -4.27218688708871 -3.69511374317432  1.33278840444044
 6  1.93416455015502 -4.46911593529353 -1.14254348114811
 6  5.32327112951295 -0.13859198269827  0.84961750895089
 6  4.56064212551255  3.83713656295630  0.59745194549455
 6  1.26900557895790  4.15682023232323  0.23749547014701
 6 -6.70618526912691 -3.44649942974297  0.84475353745375
 6 -5.82879245984598 -0.47694347834784  0.33298046494649
 6 -0.13716163546355  3.99464771457146  0.12464427632763
 6 -1.08911401000100  5.13426095979598  0.36425489098910
 6 -2.39110858455846  4.62063356475648  0.20629653565357
 6  3.15877245924592 -4.11709437963796 -0.10554286508651
 6 -5.48736244574457  0.65511079967997 -0.47231869666967
 6  6.69439931893189 -0.76549201880188  0.91516241444144
 6 -3.72266980988099  5.24615567406741  0.32613712441244
 6 -2.17051660326033  3.08257321832183 -0.23177894769477
 6 -0.76902749384938  6.55108077807781  0.78082713431343
 6 -4.33054261686169  5.46596255295530 -1.11609070057006
 1 -0.48718030293029  0.42406927272727  0.02346260656066
 1  3.06706406740674 -1.03113125432543 -0.87907799519952
 1  2.50746062736274 -2.67772936953695 -2.12114866196620
 1  0.98435944214421 -3.54475858675868 -2.83023138323832
 1 -5.52315404270427 -2.54947357205721  2.29407994789479
 1  5.28693120562056  0.22445182658266 -1.17828817611761
 1  5.85854442184218  1.67892742084208 -0.35733930853085
 1 -2.74894111181118  0.07848563886389 -0.73984438193819
 1  0.61023825442544  1.75627547144714 -0.16969441494149
 1 -1.62202693849385 -4.51906647714771 -0.59866937673767
 1 -2.67326743774377 -3.52098268466847 -2.05129326242624
 1 -1.20889606950695 -4.57051412021202 -2.54098968826883
 1 -2.10063244954495 -3.31766149684969  0.94860752595260
 1  1.16665749504951 -4.91673437173717 -0.38908429832983
 1  2.16199230363036 -5.47217132403240 -1.62200758265827
 1  4.62452768576858 -0.93233439683968  0.97210694679468
 1  5.14273861926193  0.59467550625062  1.78740654375438
 1  4.30326085168517  4.78021843824382  0.00669929812981
 1  5.72419551125113  3.50849838303830  0.44314010361036
 1  4.46063309590959  3.77999347144715  1.79639535643564
 1  1.69331010961096  5.07450662806281  0.59128020322032
 1 -7.49890145844584 -2.67809289278928  0.79977124672467
 1 -6.77199126302630 -4.35427180928093  1.58286412681268
 1 -6.56637233423342 -3.94294171027103 -0.09144705630563
 1 -6.93339786208621 -0.57253816231623  0.67321532263226
 1 -4.80362933503350  1.30844566546655  0.10046278497850
 1 -6.36924530193019  1.12999207420742 -0.73439775587559
 1 -5.03024233623362  0.46330649284928 -1.47254401920192
 1 -3.70337232273227  6.02294669976998  1.07801467796780
 1 -4.24629606780678  4.50381271317132  0.88063408970897
 1 -0.39459860436044  6.52383294869487  1.63052289388939
 1 -1.59706581688169  7.10521397609761  0.89146849854985
 1 -0.09911074307431  7.07489977567757  0.03701465856586
 1 -3.63554146114611  6.32594021972197 -1.52297650015001
 1 -5.35737844504450  6.03552666876688 -1.15332520972097
 1 -4.27223069997000  4.44966513681368 -1.80031953995400
 1  3.92464086458646 -4.58744495699570  1.55090587298730
 1  7.76153417801780 -1.97209659865987  1.77028441144114

