%nproc=4
%Mem=2GB
# td=(NStates=1) B3LYP/SVP 

TD

0 1
 8 -4.31140265106511 -4.90650502170217  1.81363539193919
 8  3.05657968666867 -4.80894220102010  1.21525566286629
 8  6.96687299159916 -1.70320759045905  1.79886256575658
 8  3.91189624712471 -3.19177720272027 -0.14420776017602
 8  7.46411594819482 -0.65869576467647 -0.11401743444344
 8 -3.05476106220622  2.43559160996100 -0.43700526192619
 7 -0.20751774647465 -0.49066325942594 -0.64588160106011
 7  1.53331182388239  1.91083151565157 -0.44012559015902
 7 -3.25716770577058 -3.18239935293529  0.58486480508051
 7 -0.83902239793979  2.93031418081808 -0.15464931073107
 6  0.64585684998500 -2.36695465386539 -1.40249254435444
 6  1.05085798809881 -1.05101233293329 -1.02384123302330
 6 -0.72988711741174 -2.61659002120212 -1.24740680338034
 6 -1.29678010001000 -1.41874218561856 -0.79319844984498
 6  3.80469893069307  1.55174834133413 -0.17548181498150
 6  2.55638774457446  0.87812963846385 -0.53488767376738
 6  2.30667591779178 -0.44426168406841 -0.91920139473947
 6  3.48836947704770  2.87058686088609  0.10428841914191
 6  1.60865227032703 -3.44672637393739 -1.94378172377238
 6 -5.48112701940194 -2.79957557245725  1.34645190949095
 6 -3.62105596489649 -1.87479245514551  0.21629756155616
 6  2.10541485358536  3.20091008520852  0.00188781218122
 6 -4.96147884418442 -1.56795575947595  0.58785282918292
 6  5.11874713661366  0.87936285318532 -0.33569252795280
 6 -2.68927374307431 -1.01393994939494 -0.36015248904890
 6 -1.40236989908991 -3.78774852795280 -1.85653597039704
 6 -4.27286695509551 -3.80627485928593  1.28349347494749
 6  1.95381651535154 -4.62205122882288 -0.90786001280128
 6  5.43016181858186 -0.05721384488449  0.95457800500050
 6  4.49358541984198  3.88656150545054  0.44815701600160
 6  1.21849052745275  4.17682223252325  0.34281600220022
 6 -6.81925657625763 -3.45607038683868  0.93460252235224
 6 -5.79487906850685 -0.58302408640864  0.10490765766577
 6 -0.25959387868787  4.10228847864787  0.19359117101710
 6 -1.11898699729973  5.17903543724372  0.52598106360636
 6 -2.30519999369937  4.66224772617262  0.32244815081508
 6  3.10787736973697 -4.10446311651165  0.07892558175818
 6 -5.53526723622362  0.57654294289429 -0.77201866666667
 6  6.74646452545255 -0.75952142174217  0.83735463366337
 6 -3.75848339123912  5.22485354385439  0.39543405410541
 6 -2.16212576417642  3.21046600760076 -0.14984075387539
 6 -0.71870246134613  6.54001967196720  0.84704375597560
 6 -4.28656821942194  5.60480643734373 -1.03000209170917
 1 -0.38807039193919  0.36468333413341 -0.19673941364136
 1  3.16052341334133 -1.20102824402440 -1.02556264366437
 1  2.49872975427543 -3.00294189078908 -2.28821536863686
 1  1.15620662686269 -3.98850296119612 -2.72626098619862
 1 -5.13548527582758 -2.42399102380238  2.53786432633263
 1  5.13054556705671  0.19798918031803 -1.26351669896990
 1  5.93206177357736  1.63196272437244 -0.55488906350635
 1 -3.05442165986599 -0.23945615531553 -0.32532292979298
 1  0.56905413601360  1.74145398929893 -0.58732617811781
 1 -1.33880861666167 -4.45840041054105 -1.15128463826383
 1 -2.50683079407941 -3.58875946234623 -1.98405653875388
 1 -0.90466564646465 -4.05908297709771 -2.72876846614662
 1 -2.30044243054305 -3.42530226092609  0.58214087928793
 1  1.16051688098810 -5.18103080138014 -0.52171756165617
 1  2.69940604500450 -5.43497760466047 -1.46076145804580
 1  4.55751098409841 -0.94767593099310  1.12663239933993
 1  5.55710005540554  0.74701073977398  1.78519632273227
 1  4.33029355495550  4.79002941934193 -0.00624199599960
 1  5.56938002970297  3.75850338353835  0.12561835143514
 1  4.41632866546655  3.88994446654666  1.64761047794779
 1  1.73450422902290  4.97508668606861  0.65025610081008
 1 -7.73590515881588 -2.96243132663266  1.41850311991199
 1 -6.87177124102410 -4.53235961806181  1.17316315671567
 1 -6.73963966096610 -3.47022443854385 -0.20263817541754
 1 -6.69747426972697 -0.60518142664266  0.55508350945095
 1 -4.91062003410341  1.44663948484848 -0.30981824312431
 1 -6.44167254465447  1.07764683968397 -1.00863517961796
 1 -4.88256756875688  0.47963812601260 -1.64610137493749
 1 -3.77353933943394  6.32070647574758  0.90094697119712
 1 -4.50404184238424  4.38194052595260  0.85575160146015
 1  0.13334418991899  6.62359292469247  1.69288913051305
 1 -1.53191930223022  7.12785624032403  1.27570692239224
 1 -0.17737856985699  7.27146943264326 -0.01494053695370
 1 -3.67587549454945  6.32156978267827 -1.63144734723472
 1 -5.13653636083608  6.09387250335033 -0.94612448964896
 1 -4.34274775167517  4.57984815511551 -1.56226573457346
 1  3.57937633813381 -4.24272048454845  1.77092787518752
 1  7.68424644924492 -2.06172556155616  1.73630101310131

