%nproc=4
%Mem=2GB
# td=(NStates=1) B3LYP/SVP 

TD

0 1
 8 -4.28622013281328 -4.91534590579058  1.75302933133313
 8  2.92251628032803 -4.73705501230123  1.11789592689269
 8  7.01802810711071 -1.52824009370937  2.00088276777678
 8  3.78980403790379 -3.18175620062006 -0.18438177757776
 8  7.57659719631963 -0.57383727882788  0.01216518381838
 8 -3.08750433653365  2.41464951575158 -0.48354991639164
 7 -0.25651264596460 -0.50233442654265 -0.70574758765877
 7  1.62610110281028  1.89768020052005 -0.49566114371437
 7 -3.19893188218822 -3.22804391739174  0.72315863446345
 7 -0.81358985468547  2.82583373277328 -0.10763460926093
 6  0.59398166246625 -2.40017797619762 -1.53432572767277
 6  0.94485738803880 -0.99127635933593 -1.15263411231123
 6 -0.82469659835984 -2.63244160636064 -1.34224628732873
 6 -1.33515393739374 -1.38793910531053 -0.74353348334833
 6  3.84830329112911  1.50393355985599 -0.15104937173717
 6  2.55706781258126  0.88843066856686 -0.58845303030303
 6  2.24176942714271 -0.46249350725073 -0.95895537013701
 6  3.56927756785679  2.79165896809681  0.13355134543454
 6  1.59483088818882 -3.36907860916092 -2.12545989158916
 6 -5.42738164486449 -2.78921453635364  1.39322658695870
 6 -3.50236409570957 -1.86173114901490  0.23101903370337
 6  2.23277758985899  3.14352434663466  0.03163078647865
 6 -4.94362705900590 -1.61226018991899  0.65650969486949
 6  5.18666392829283  0.74824974187419 -0.25003396209621
 6 -2.66821163686369 -1.04045260066007 -0.36733320712071
 6 -1.33930359245925 -3.94215396849685 -1.68518883568357
 6 -4.30159982838284 -3.77465169696970  1.35510063566357
 6  2.02093322702270 -4.45895491919192 -1.14598382518252
 6  5.40907971037104 -0.08764688818882  0.88712125932593
 6  4.50400646194619  3.92395524482448  0.67633983428343
 6  1.23406208460846  4.13938848914891  0.27710943154315
 6 -6.82222687328733 -3.37738251805180  1.13950301240124
 6 -5.76059564016402 -0.65156094009401  0.07307447434743
 6 -0.15318323762376  4.00700895069507  0.11655346724672
 6 -1.08903400200020  5.13855138883888  0.39586805230523
 6 -2.39601907560756  4.66509801120112  0.26520242624262
 6  2.98412499449945 -4.12251492169217 -0.01651396219622
 6 -5.55262897239724  0.57213250185019 -0.74314577937794
 6  6.72689256825683 -0.74125959555956  0.86647754595460
 6 -3.76907445034503  5.37523858235824  0.35098960966097
 6 -2.18599815141514  3.14896985798580 -0.15697146694669
 6 -0.64838542964296  6.50360603060306  0.87928698029803
 6 -4.37251681428143  5.68594455115512 -1.00082917441744
 1 -0.52870445534553  0.36496336213621 -0.34845458515852
 1  3.05712307330733 -1.13052119331933 -0.82556264366437
 1  2.55136501780178 -2.70522211881188 -2.28878542564256
 1  1.25077608380838 -4.01971608250825 -2.99419777987799
 1 -5.45902763006301 -2.42532115681568  2.41386192609261
 1  5.36090860336034  0.22040142154215 -1.19895024232423
 1  6.01775034243424  1.47843737183718 -0.29944351895190
 1 -2.91515773347335  0.00654844514451 -0.60322071957196
 1  0.70860809140914  1.75048489238924 -0.61481892739274
 1 -1.34881961776178 -4.79747431793179 -1.02875238503850
 1 -2.47734784578458 -3.76247683408341 -1.72257039013901
 1 -1.07450263016302 -4.26876394519452 -2.69286487578758
 1 -2.32594498079808 -3.46698642934293  0.73076574177418
 1  1.09525035433543 -4.79194189248925 -0.54471986188619
 1  2.50988709310931 -5.28899300620062 -1.72819820172017
 1  4.73929916291629 -0.94513567696770  1.01446118221822
 1  5.41489583498350  0.42834887358736  1.79751755485549
 1  4.10200072567257  5.00904132053205  0.41651027922792
 1  5.72641573327333  3.84201173437344  0.51822761236124
 1  4.43179021162116  4.02695816791679  1.80608632553255
 1  1.59513029162916  4.79772895029503  0.64439551475147
 1 -7.49139070737074 -2.53027811131113  1.38392966256626
 1 -7.24352841674167 -4.26954333643364  1.91738757915792
 1 -6.83853955095510 -3.62560997709771  0.09822191059106
 1 -6.93473799609961 -1.03486439493949  0.57555555665567
 1 -5.02614158625863  1.33552837373737 -0.24855211651165
 1 -6.62583096049605  0.97486656165617 -1.17256157225723
 1 -4.92815212721272  0.27761792399240 -1.66461322612261
 1 -3.45575756125613  6.16026043114312  0.98239511601160
 1 -4.50596203440344  4.64982731463146  0.79430545684568
 1 -0.24887403190319  6.52359292469247  1.76050589218922
 1 -1.48008411871187  7.30474392909291  0.69154850655066
 1  0.14656382438244  6.92506479217922  0.12661361846185
 1 -3.68906681368137  6.38821644734473 -1.36039024152415
 1 -5.34369707690769  5.78639175527553 -0.81018089528953
 1 -4.26708018491849  4.78630880118012 -1.58327783578358
 1  3.56292469296930 -4.34978119061906  1.84770555295530
 1  7.89834785938594 -1.76924631363136  1.65498288128813

