%nproc=4
%Mem=2GB
# td=(NStates=1) B3LYP/SVP 

TD

0 1
 8 -4.13601511231123 -4.85306967816782  1.80300432883288
 8  2.92755678437844 -4.86146745354535  1.04051818911891
 8  6.90143644794479 -1.49294656435644  1.92259493899390
 8  3.72863792129213 -3.12451047604760 -0.09997333673367
 8  7.45599513611361 -0.50846074117412  0.01148511581158
 8 -3.06914250035003  2.37975602640264 -0.50999256065607
 7 -0.31503849854986 -0.49658385148515 -0.59555656855686
 7  1.61838033073307  1.85382581508151 -0.47097867546755
 7 -3.21854384338434 -3.13451456445645  0.65156147474747
 7 -0.76731522722272  2.87858900830083 -0.17961180698070
 6  0.62757502180218 -2.36402436083608 -1.34636693179318
 6  0.92139504180418 -0.99158639033903 -0.82822167106711
 6 -0.78398252695270 -2.58873723592359 -1.22407447014701
 6 -1.34421484348435 -1.35394570597060 -0.74362349234923
 6  3.86643510431043  1.53326649314931 -0.24753902070207
 6  2.54509661546155  0.83857568306831 -0.52168635363536
 6  2.31201645184518 -0.48208546644664 -0.69718919351935
 6  3.53479411951195  2.85646544874487  0.00693868416842
 6  1.71961336643664 -3.24865656695670 -1.92112945854585
 6 -5.45478438513851 -2.82677829272927  1.32000926522652
 6 -3.61054491379138 -1.89461443734373  0.24911084288429
 6  2.11901621372137  3.08656865106511 -0.11809418601860
 6 -4.99766246254625 -1.62677164106411  0.57746179007901
 6  5.21986724862486  0.76193111001100 -0.33459241794179
 6 -2.69675449114912 -0.99063761916192 -0.40359683348335
 6 -1.48587824992499 -3.70593034613461 -1.85209552635264
 6 -4.28744841324132 -3.80211444324432  1.34044917051705
 6  1.99553068676868 -4.53164218791879 -1.15446467326733
 6  5.28189699209921 -0.12198032153215  0.93280582778278
 6  4.55116117741774  3.79196204550455  0.46882908320832
 6  1.24906358475848  4.13442799309931  0.23639536013601
 6 -6.79882453305331 -3.65912069186919  0.99887894999500
 6 -5.76737631823182 -0.53989977397740  0.22332949984999
 6 -0.12199011831183  4.11730998079808  0.05185699759976
 6 -1.10699579817982  5.11498903260326  0.50301876737674
 6 -2.32431190489049  4.56000750215022  0.26121202720272
 6  2.94287086908691 -4.04912758295830 -0.01404371517152
 6 -5.44392810231023  0.59704499309931 -0.65301676647665
 6  6.66378625762576 -0.69953542314231  0.90261115931593
 6 -3.67491503440344  5.20829188768877  0.39855436613661
 6 -2.11915146674667  3.18235319631963 -0.22636840664066
 6 -0.73084367546755  6.51216688668867  0.88452750435043
 6 -4.19987955055506  5.51680763746375 -1.05941503300330
 1 -0.47176876177618  0.48442530833083 -0.27474721442144
 1  3.13330069106911 -1.18654679587959 -1.01261134853485
 1  2.71671155245525 -2.81836343294329 -2.25290183728373
 1  1.23441444764476 -3.51657576847685 -2.81853021312131
 1 -5.50022174947495 -2.55448407310731  2.29801034093409
 1  5.05811832433243 -0.01227184578458 -1.23226357365737
 1  6.10335890329033  1.34403393149315 -0.21785536013601
 1 -3.07996421412141  0.04728251855186 -0.40204060156016
 1  0.55572280288029  2.01192103600360 -0.51867931343134
 1 -1.34365910171017 -4.72199677017702 -1.37665717551755
 1 -2.63840395139514 -3.37152773917392 -1.73927206030603
 1 -1.13995917581758 -3.84871193999400 -2.93164875417542
 1 -2.25226761306131 -3.59162889358936  0.63311597679768
 1  1.10234106340634 -4.83823652195220 -0.86441183108311
 1  2.50735684008401 -5.24890899779978 -1.86456183808381
 1  4.62949818281828 -0.95505666906691  0.96984672077208
 1  5.23178752415241  0.57408344704471  1.70570837393739
 1  4.63441396699670  4.89611002740274 -0.04566593839384
 1  5.56231932363236  3.46167370057006  0.32971876147615
 1  4.53472050465046  3.90402587468747  1.63422913981398
 1  1.69876065466547  5.20826000340034  0.49305038023802
 1 -7.72926449474947 -2.98059314281428  1.05460673027303
 1 -6.82353641754175 -4.55964234633463  1.54977081748175
 1 -6.87838353535354 -3.78106552265226 -0.09660757235724
 1 -6.75648017031703 -0.70135104360436  0.52233023412341
 1 -4.45463443554355  1.04918973987399 -0.26600386168617
 1 -6.34651302870287  1.44737381238124 -0.81622593869387
 1 -4.71463077507751  0.37061722392239 -1.71994875967597
 1 -3.50027201270127  5.93223762886289  1.24935181168117
 1 -4.41795323352335  4.53388572047205  0.82070809710971
 1 -0.37259640414041  6.59956052145214  1.87988783038304
 1 -1.55234134443444  7.13567702240224  0.82580193189319
 1  0.27648681668167  6.80755304100410  0.34418537563756
 1 -3.41849975697570  6.15727335303530 -1.59319352185219
 1 -5.15613832103210  6.13130624672467 -0.87130700790079
 1 -4.17246072297230  4.42998316861686 -1.55252476047605
 1  3.69845824632463 -4.51382759525953  1.47574835723572
 1  7.74741276587659 -1.76410579957996  1.68396577957796

