%nproc=4
%Mem=2GB
# td=(NStates=1) B3LYP/SVP 

TD

0 1
 8 -4.33111462226223 -4.88431280248025  2.00242427082708
 8  3.01839586828683 -4.76076738353835  1.07970210751075
 8  7.04464076837684 -1.43163043274327  1.94248692819282
 8  3.83743880138014 -3.01957998299830 -0.12525586498650
 8  7.49085862246225 -0.90944083918392 -0.24504053675368
 8 -2.99613519961996  2.35710376117612 -0.39827138853885
 7 -0.32397939263926 -0.53398759185919 -0.62520953385339
 7  1.45714420712071  1.81236166866687 -0.24987656525653
 7 -3.25970795979598 -3.23691480448045  0.72927924652465
 7 -0.80064856055606  3.01523267266727 -0.10279412521252
 6  0.53082534683468 -2.37216517491749 -1.42169446454645
 6  0.82210511281128 -0.99062629432943 -1.05103395229523
 6 -0.78407253595360 -2.59605796799680 -1.32556461916192
 6 -1.32022244424442 -1.48422873427343 -0.78914804480448
 6  3.75018347914791  1.45319848634863 -0.19727399419942
 6  2.44555666146615  0.83140496599660 -0.44920910591059
 6  2.06967221742174 -0.43025028292829 -0.91171064566457
 6  3.51363200330033  2.75205500770077  0.25192318261826
 6  1.67057846294629 -3.23692539383938 -2.02597994359436
 6 -5.48925783248325 -2.80916653155316  1.41857912221222
 6 -3.54039789908991 -1.96715169106911  0.25158108990899
 6  2.12712702480248  3.10994098829883  0.11206883028303
 6 -4.98833152945295 -1.67822678657866  0.53962800670067
 6  5.05404066596660  0.89510442734273 -0.25877483618362
 6 -2.61122593829383 -1.07920647604760 -0.36091256505651
 6 -1.41990165226523 -3.86958671177118 -1.85770608740874
 6 -4.35152482088209 -3.84467869966997  1.41793691929193
 6  2.19749088278828 -4.42319134283428 -1.13978320512051
 6  5.42913171557156 -0.16911503500350  0.87295984318432
 6  4.59364542584258  3.83061591089109  0.53722592289229
 6  1.28941762016202  4.19391394169417  0.38717043764376
 6 -6.71810646124612 -3.43733851365137  0.86539560166017
 6 -5.73409298989899 -0.58254403840384  0.11768893579358
 6 -0.13129104840484  4.09225747554755  0.26222803470347
 6 -1.12936803540354  5.23506103980398  0.46195466096610
 6 -2.39744921862186  4.73204470587059  0.11438734473447
 6  3.11142772477248 -3.96257892809281 -0.04945725652565
 6 -5.31074478397840  0.48434372297230 -0.74219568436844
 6  6.72869274827483 -0.81715718531853  0.73307420562056
 6 -3.74126166906691  5.36372743124312  0.12188669936994
 6 -2.20056960856086  3.21967692869287 -0.08931470127013
 6 -0.64601519261926  6.54827049704971  0.92804185578558
 6 -4.24855441804180  5.60811676837684 -1.23074216571657
 1 -0.44997658255826  0.33414027982798 -0.04144388408841
 1  2.86076343734373 -1.21460960216022 -1.04534462186219
 1  2.54705458675868 -2.62881447804780 -2.51147769486949
 1  1.23297430363036 -3.68778288918892 -2.96042440254025
 1 -5.61838356565657 -2.58623724842484  2.51596213611361
 1  4.93010552305231 -0.03664428302830 -1.09792013931393
 1  5.93877244464446  1.61539106720672 -0.56952052665267
 1 -2.79461567926793 -0.07143935363536 -0.32291268876888
 1  0.59857708830883  1.74443428732873 -0.52216966246625
 1 -1.58195293109311 -4.69455402590259 -0.81815132493249
 1 -2.39524963596360 -3.49709029542954 -2.03921205430543
 1 -0.81103628352835 -4.37210427922792 -2.64508009730973
 1 -2.24430681698170 -3.59472920362036  0.72577524272427
 1  1.26420725002500 -4.91100379867987 -0.61676706660666
 1  2.66089219361936 -5.38756286318632 -1.79534491639164
 1  4.53611884488449 -0.75265642904290  0.94975471157116
 1  5.28729307470747  0.53001904060406  1.78816661976198
 1  4.87132765836584  4.75961637803780 -0.13783515531553
 1  5.66189928162816  3.35344287748775  0.73268905850585
 1  4.38496552915291  4.50575604770477  1.45972168906891
 1  1.70833161176118  5.22477165456546  0.65999707490749
 1 -7.77332890119012 -2.89352443594359  0.83947521712171
 1 -6.99826389028903 -4.63554993709371  1.15149098949895
 1 -6.61553725072507 -3.79794721082108 -0.14935284688469
 1 -6.60679520182018 -0.38441935043504  0.47612561366137
 1 -4.81340031213121  1.33341816271627 -0.19474673597360
 1 -6.12588096549655  0.98314738973897 -1.20057437353735
 1 -4.79676898889889  0.29594975717572 -1.63480024482448
 1 -3.77419940544054  6.21651605670567  0.77689456595660
 1 -4.34334577277728  4.57180951285129  0.71132715901590
 1 -0.40286943144314  6.65636620202020  2.02781262286229
 1 -1.37487359765977  7.19935339003900  0.96757610931093
 1 -0.07839867186719  7.07165945164516  0.40842179927993
 1 -3.45386329332933  6.37265489118912 -1.64525872837284
 1 -5.16947965516552  6.23397651375137 -1.23239311651165
 1 -4.57868134503450  4.57723789408941 -1.75510501850185
 1  3.51406980748075 -4.21765797829783  1.73459424182418
 1  7.87795582018202 -2.00390977997800  1.69186656965697

