%nproc=4
%Mem=2GB
# td=(NStates=1) B3LYP/SVP 

TD

0 1
 8 -4.11995350615062 -4.84618899009901  1.78943297169717
 8  3.23155718441844 -4.75714702150215  0.99890402770277
 8  6.97779408370837 -1.53293056275628  1.86901958145815
 8  3.83444850235023 -3.03539156415642 -0.14081742114211
 8  7.42239177577758 -0.78629852495250 -0.22257829052905
 8 -3.02074766086609  2.37804585538554 -0.50929249064906
 7 -0.23706070077008 -0.49939413251325 -0.56356336923692
 7  1.52535102780278  1.79734016651665 -0.33657523512351
 7 -3.22830481948195 -3.08221933493349  0.64177049564957
 7 -0.77524602030203  2.96714786418642 -0.05410925672567
 6  0.54569683398340 -2.35653361176118 -1.42972526762676
 6  0.83502640494049 -1.06710394209421 -0.92906175507551
 6 -0.71783591229123 -2.57809617181718 -1.08352041474147
 6 -1.31533195519552 -1.37302761416142 -0.70795992599260
 6  3.79293775457546  1.53057622412241 -0.20620488728873
 6  2.50817292309231  0.85503732923292 -0.54955914091409
 6  2.23755900610061 -0.47270452835284 -0.83084255885589
 6  3.47124776487649  2.79975977817782  0.18806679697970
 6  1.59336074117412 -3.30375207650765 -2.07958530413041
 6 -5.54764367106711 -2.85375098999900  1.24984224852485
 6 -3.59080293959396 -1.83139811571157  0.24058999079908
 6  2.02703701580158  2.99648964316432  0.05567319071907
 6 -4.95511820812081 -1.60024898879888  0.50968501240124
 6  5.10329559145915  0.75320023692369 -0.30643960266027
 6 -2.66831164686469 -0.93528208360836 -0.27937441124112
 6 -1.45822548464847 -3.80828058115812 -1.58111842864286
 6 -4.31572124052405 -3.75807003880388  1.38113323892389
 6  2.08611974567457 -4.41718074177418 -1.00888011481148
 6  5.39531833423342 -0.21623974747475  0.92408495569557
 6  4.48078413971397  3.90001285058506  0.57621982228223
 6  1.32136081448145  4.09898444874487  0.38535025562556
 6 -6.80539519011901 -3.50439521932193  0.78077713981398
 6 -5.86365594619462 -0.57230301430143  0.11799896679668
 6 -0.11845976527653  4.03625187498750  0.25274708660866
 6 -1.03393849244924  5.15333286698670  0.46720518601860
 6 -2.30769024272427  4.66832833423342  0.34789069506951
 6  3.11551813381338 -3.96389906010601 -0.01431374217422
 6 -5.52689639913991  0.56644193279328 -0.71439290409041
 6  6.65732561156116 -0.80489595919592  0.79368026622662
 6 -3.69702724562456  5.22154321282128  0.19922443314331
 6 -2.23040259185919  3.23345830683068  0.03656788698870
 6 -0.67985857695770  6.59081475147515  0.77878693029303
 6 -4.21029059165917  5.48051400810081 -1.25822491399140
 1 -0.40602218711871  0.58303516931693 -0.21606134583458
 1  2.84315167616762 -1.09543768496850 -1.22164225162516
 1  2.39046892819282 -2.81329292589259 -2.45018156525653
 1  1.26505751195119 -3.94222833373337 -2.97911627172717
 1 -5.64941666896690 -2.50992961766177  2.35539607950795
 1  5.14007652015202  0.33108248964897 -1.33622396969697
 1  5.82765133253325  1.69621915001500 -0.41191476607661
 1 -2.82236845454545  0.19282707300730 -0.42096249374937
 1  0.52748997959796  1.76999684358436 -0.46532397789779
 1 -1.44634937073707 -4.67304187468747 -0.94409391919192
 1 -2.51238134913491 -3.64611519791979 -1.90525865896590
 1 -0.99875505540554 -4.08291536033603 -2.54963055235523
 1 -2.16372875917592 -3.56325605630563  0.60357302250225
 1  1.32727355665567 -4.81386408470847 -0.34506989688969
 1  2.53059916431643 -5.16796090299030 -1.52411779367937
 1  4.66673190619062 -1.09258042144214  0.67176691279128
 1  5.14047839323932  0.26921295999600  1.87353515661566
 1  4.47059758535854  4.93615403180318 -0.28315968776878
 1  5.38940203190319  3.48942647584759  0.38769455905591
 1  4.49533656625663  4.25584105620562  1.61703742064206
 1  1.82854363296330  5.05639481688169  0.43741481668167
 1 -7.70331189948995 -3.02567765126513  0.99762103170317
 1 -6.83213727762776 -4.61071745384538  1.26913275367537
 1 -6.82766846384639 -3.85085250135013 -0.18448636023602
 1 -7.02918744104410 -0.74785569406941  0.44281228232823
 1 -4.76783575567557  1.21632645354535 -0.09775703700370
 1 -6.52000037743774  1.26669574457446 -0.72897721382138
 1 -5.11685099709971  0.21377153935394 -1.62699946474647
 1 -3.71662364786479  6.32612701780178  0.69182605910591
 1 -4.16514795299530  4.43546587848785  0.86605263156316
 1 -0.08009715421542  6.54915548094809  1.71238107970797
 1 -1.45585169546955  7.28290174487449  1.14009336103610
 1 -0.06683751575157  7.06800908660866 -0.03651269416942
 1 -3.62279018601860  6.02615024072407 -1.98649285178518
 1 -5.28470117731773  5.96325944204420 -1.17266714391439
 1 -4.52392586948695  4.47473764406441 -1.83991349934993
 1  3.73273167366737 -4.64519073157316  1.88637942034203
 1  7.77774579917992 -2.00652004100410  1.59449683268327

