%nproc=4
%Mem=2GB
# td=(NStates=1) B3LYP/SVP 

TD

0 1
 8 -4.25338684948495 -4.93436780798080  1.75935996439644
 8  3.31873590229023 -4.74767607440744  1.09238337563756
 8  6.92186849114912 -1.63049031873187  1.88431111061106
 8  3.97589264676468 -2.98306633163316 -0.13989732913291
 8  7.45975551215122 -0.86343623872387 -0.22844887758776
 8 -3.16836242234223  2.49054710551055 -0.35639720112011
 7 -0.23984097879788 -0.52512670577058 -0.41396840974097
 7  1.45781427412741  1.75925635813581 -0.33746532413241
 7 -3.31255324432443 -3.13350446344634  0.61301762036204
 7 -0.87604610031003  2.92160330973097 -0.08693253905391
 6  0.67376964126413 -2.39642760116012 -1.34556685178518
 6  0.97955085738574 -1.11345857755776 -0.86484533343334
 6 -0.80266439513951 -2.62430079227923 -1.20087214991499
 6 -1.29715013701370 -1.36579689108911 -0.56252538253825
 6  3.76680514131413  1.44119728622862 -0.24122838963896
 6  2.48702080788079  0.83156498199820 -0.42178636363636
 6  2.27019226942694 -0.42084934283428 -0.84183365796580
 6  3.58813945404540  2.80612041424142  0.04873286358636
 6  1.69087049214922 -3.37636933823382 -1.95765311091109
 6 -5.59774868156816 -2.82043765866587  1.31515878017802
 6 -3.65029888918892 -1.82723769966997  0.28985491729173
 6  2.12869718181818  2.98191818601860  0.06445406880688
 6 -5.05755845214521 -1.59937890179018  0.52051609550955
 6  5.01435669756976  0.86494141104110 -0.39862882158216
 6 -2.67092190789079 -1.02534108950895 -0.34957143094309
 6 -1.56393605570557 -3.77729748284828 -1.75269558635864
 6 -4.35603527192719 -3.75853008480848  1.28650377597760
 6  2.25332646634663 -4.45149417311731 -0.99195842264226
 6  5.35550435283528 -0.03070119361936  0.89685223242324
 6  4.53571963326333  3.86100895019502  0.28489068936894
 6  1.19154783318332  4.04882943324332  0.37205892649265
 6 -6.87753240384038 -3.49563434323432  0.88482754485449
 6 -5.85702528312831 -0.63151893589359 -0.04225705880588
 6 -0.18310622992299  4.09953820362036  0.15251706360636
 6 -1.06791188978898  5.20238777247725  0.43585205070507
 6 -2.34576405010501  4.71257275867587  0.27041294729473
 6  3.28282486448645 -4.02340501070107  0.00010769997000
 6 -5.34476818631863  0.47449273787379 -0.79503096789679
 6  6.68342822182218 -0.83723919351935  0.77410830903090
 6 -3.64217176007601  5.36626768526853  0.33917842854285
 6 -2.17505705730573  3.20930589158916 -0.01593736353635
 6 -0.84183477457746  6.52727839783978  0.90944999659966
 6 -4.13543310591059  5.74755071177118 -1.18033712521252
 1 -0.32569415431543  0.41308817461746 -0.04184392409241
 1  2.96449381038104 -1.29302744394439 -0.98696878427843
 1  2.56999688098810 -2.73383498009801 -2.37999454655465
 1  1.26895790199020 -3.92984709560956 -2.95629398949895
 1 -5.74680640794079 -2.55948457315732  2.34591513141314
 1  5.05635814831483  0.08727810921092 -1.25569591689169
 1  5.77989655705571  1.59396892499250 -0.65460903550355
 1 -2.78800501820182  0.02025981628163 -0.32180257775778
 1  0.62999022962296  1.98006785068507 -0.64007145264526
 1 -1.39634437023702 -4.57669223972397 -0.96972648244825
 1 -2.57217732873287 -3.64245483188319 -1.85177331043104
 1 -0.92823800370037 -3.82122919171917 -2.72444803410341
 1 -2.33336572287229 -3.37889762046205  0.57773043824382
 1  1.36426725602560 -4.87993069136914 -0.48335372527253
 1  2.58805490989099 -5.20613472037204 -1.68524390629063
 1  4.63409864286429 -0.76959812321232  1.24646438253825
 1  5.42637698309831  0.56246228492849  1.72524032713271
 1  4.19447997359736  4.61416183258326 -0.28817018881888
 1  5.51459455115512  3.57240477367737  0.32541833143314
 1  4.19618665126513  4.23896936903690  1.29743546044604
 1  1.72054283288329  4.99353853125313  0.30020109530953
 1 -7.72951451975197 -2.85098018151815  0.94110538013801
 1 -6.89415347924792 -4.52482886498650  1.37963380378038
 1 -6.75506120312031 -3.60034745084508 -0.28526643824382
 1 -6.92322684498450 -0.73314422292229  0.21809981108111
 1 -4.83938291039104  1.43518833973397 -0.43129039033903
 1 -6.30144852225223  1.13748282328233 -1.14008832493249
 1 -4.73925323732373  0.34987514971497 -1.74280104490449
 1 -3.74589657515752  6.25511991709171  1.10773765026503
 1 -4.45966740494049  4.85863819571957  0.91838786508651
 1 -0.39093823832383  6.55800636603660  1.93351319291929
 1 -1.67814392469247  7.22143559825983  0.91944129582958
 1 -0.36968780078008  7.18360064576458  0.14684564166417
 1 -3.38497640464046  6.45573319901990 -1.61496569906991
 1 -5.21861456865687  6.08388150425043 -1.13547342454245
 1 -4.43715719261926  4.81920209050905 -1.58096760476048
 1  3.87054545504550 -4.44532074457446  1.63600438283828
 1  7.83633165776578 -2.05167455645565  1.52422980598060

