%nproc=4
%Mem=2GB
# td=(NStates=1) B3LYP/SVP 

TD

0 1
 8 -4.20075158595860 -4.72534690589059  2.01879590799080
 8  3.19337336603660 -4.89336064286429  0.91628576587659
 8  6.77086339063906 -1.65141241094109  1.90607328682868
 8  3.88873393089309 -3.13968199319932 -0.16504984438444
 8  7.55322485908591 -0.52809270437044  0.11162512981298
 8 -3.00498608470847  2.43728177897790 -0.53041460286029
 7 -0.25172216691669 -0.36967116021602 -0.64599161206121
 7  1.53286177887789  1.80381081358136 -0.37842942054205
 7 -3.15173716271627 -3.11952306530653  0.76971328992899
 7 -0.80194869056906  2.94203535293529 -0.12779662546255
 6  0.66934919921992 -2.35673363176318 -1.37025932103210
 6  0.98889179147915 -1.03366059775978 -0.94594344324432
 6 -0.68671279998000 -2.56847520972097 -1.16186824952495
 6 -1.27462788478848 -1.35608591999200 -0.66430556055606
 6  3.75993445424542  1.47837100360036 -0.27313157995800
 6  2.48285039083908  0.83843566906691 -0.57790197519752
 6  2.25105035523552 -0.48671592949295 -0.89002847744774
 6  3.50699133923392  2.82959276147615  0.09873786408641
 6  1.65661706680668 -3.30207190849085 -2.06282362796280
 6 -5.47567647434744 -2.74130974587459  1.33526079037904
 6 -3.55861972127213 -1.89761473737374  0.15482141394139
 6  2.08515282738274  2.99548954315432  0.04683230663066
 6 -4.88631132743274 -1.59129809370937  0.53538758265827
 6  5.08467372927293  0.76504142104210 -0.30210916961696
 6 -2.58447326302630 -0.98753730913091 -0.25146161996200
 6 -1.51563122522252 -3.73882363546355 -1.73507382418242
 6 -4.31251091949195 -3.70367459925993  1.36163128872887
 6  2.00849198289829 -4.48949797349735 -1.14199342614261
 6  5.18114691709171 -0.26077420092009  0.85758830603060
 6  4.50751681298130  3.89444229352935  0.40548274857486
 6  1.26431510991099  4.04407895819582  0.39425114571457
 6 -6.69632428302830 -3.42854763456346  0.88280734283428
 6 -5.69496907750775 -0.52878866286629  0.17170433733373
 6 -0.15830374967497  4.00605885568557  0.29829164106411
 6 -1.11714681328133  5.12361989568957  0.53852231773177
 6 -2.37352682638264  4.61532303370337  0.06596250225022
 6  3.10861744374437 -4.07737040724072 -0.12596490729073
 6 -5.45914962446245  0.62351764036404 -0.77220868566857
 6  6.63834371337134 -0.81113658325833  0.85065596379638
 6 -3.80554809770977  5.30907196569657  0.22572708340834
 6 -2.20884043564356  3.22423738473847 -0.21926769656966
 6 -0.75528611971197  6.42285795579558  1.01815086668667
 6 -4.41296085868587  5.38732468916892 -1.17510660216022
 1 -0.19179076397640  0.56047291309131 -0.13023276297630
 1  3.08946630763076 -1.24230237143714 -0.88490857825783
 1  2.57392727402740 -2.94089568616862 -2.19902644974497
 1  1.25987699389939 -3.58103221412141 -3.19980834093409
 1 -5.46911863916392 -2.29412803750375  2.38640918081808
 1  5.49938245074507  0.12042142354235 -1.19313966126613
 1  5.94544311171117  1.48723825192519 -0.10959453405341
 1 -2.93342956065606  0.09389718001800 -0.43231362886289
 1  0.40507773837384  1.93970381428143 -0.27723516901690
 1 -1.43096783258326 -4.54893946444645 -1.17397690749075
 1 -2.71896200720072 -3.49643022942294 -1.86508464156416
 1 -1.33917909780978 -3.89281635043504 -2.84282987228723
 1 -2.27162954925493 -3.54399413011301  0.73737640284028
 1  1.25847667696770 -5.08173087138714 -0.53834922482248
 1  2.72595870027003 -5.19896400330033 -1.83516889878988
 1  4.31661689468947 -0.95760692409241  0.70552028812881
 1  5.03102744814481  0.24059009770977  1.80537834093409
 1  4.19949047464747  4.90801121752175 -0.06675804760476
 1  5.59986307800780  3.63509104230423  0.13769955955596
 1  4.38094512711271  4.10998647074708  1.54132984988499
 1  1.91587236583658  4.92598177557756  0.72143321852185
 1 -7.78322989128913 -2.63930901440144  0.88984025362536
 1 -6.79598366226623 -4.12489887198720  1.73484932533253
 1 -6.53297899489949 -3.80476789288929 -0.19580749234923
 1 -6.75942046434643 -0.62450335883588  0.68126612771277
 1 -4.71048002010201  1.39686450735074 -0.22775003630363
 1 -6.39665804320432  1.17215629062906 -1.01284560066007
 1 -4.81641095309531  0.28098826102610 -1.69327609240924
 1 -3.54635662116212  6.31801620672067  0.72971984848485
 1 -4.55337677587759  4.74650698259826  0.83711973827383
 1 -0.26199534403440  6.33709427482748  2.00766060766077
 1 -1.71760787108711  7.06588004270427  1.14828418011801
 1  0.06516568456846  6.80447273297330  0.40779173627363
 1 -3.76102400940094  6.06586421212121 -1.79260346284628
 1 -5.44601730893089  5.80688380448045 -1.16943682088209
 1 -4.55420889778978  4.33632380268027 -1.60781028902890
 1  3.81632003250325 -4.38782499499950  1.27879866226623
 1  7.79685771037104 -1.81856124512451  2.00843822682268

