%nproc=4
%Mem=2GB
# td=(NStates=1) B3LYP/SVP 

TD

0 1
 8 -4.24334584538454 -4.94338871007101  1.75718974737474
 8  2.83865789448945 -4.89292059885989  1.02648678597860
 8  7.07752405670567 -1.46327359705971  1.93264594409441
 8  3.86077113461346 -3.12343036803680 -0.00790412981298
 8  7.74887442404240 -0.35447534263426  0.10967493479348
 8 -3.03031861796180  2.36855490629063 -0.23813537493749
 7 -0.27544453915392 -0.44349854295430 -0.53277028992899
 7  1.51732022472247  1.73933436593659 -0.40181175877588
 7 -3.26831882088209 -3.19021013401340  0.70688700730073
 7 -0.80043853955396  2.95908705810581 -0.14071791759176
 6  0.56229849414941 -2.44089204760476 -1.36824912001200
 6  0.92585548784878 -1.09004623632363 -0.90189903880388
 6 -0.83973810251025 -2.57755611781178 -1.23445550825083
 6 -1.31971239323932 -1.35964627602760 -0.66497562756276
 6  3.78876733753375  1.53402656915692 -0.32145641244124
 6  2.51982408820882  0.83182500800080 -0.62533671867187
 6  2.19194444464446 -0.49257651555156 -0.82733220782078
 6  3.58819946004600  2.74732453465347  0.06889487978798
 6  1.49545095019502 -3.37194889618962 -1.99075642124212
 6 -5.59931883858386 -2.93165878077808  1.26094335863586
 6 -3.58164202350235 -1.88637361326133  0.15054098589859
 6  2.11627593969397  2.93289328352835 -0.06183856045605
 6 -5.04017671397140 -1.72288125202520  0.49416346024602
 6  5.14628989088909  0.88840375727573 -0.42972193089309
 6 -2.69492430813081 -1.06203475887589 -0.37701417521752
 6 -1.65513517561756 -3.63024277737774 -1.83498381518152
 6 -4.41100076847685 -3.81156538833883  1.27090221582158
 6  1.92526366006601 -4.50009903360336 -1.13267249404940
 6  5.51578038043804  0.04739661616162  0.87418996619662
 6  4.48490455175518  3.90469331863186  0.57220942124212
 6  1.32605128352835  4.07171172147215  0.18454017461746
 6 -6.84335898649865 -3.53306808660866  0.80684974707471
 6 -5.76827640824082 -0.67225300930093  0.25890305720572
 6 -0.02569048834883  4.05638388818882  0.16678849074907
 6 -0.99160425902590  5.17274480818082  0.39169763526353
 6 -2.18240771447145  4.67301880328033  0.22983888988899
 6  2.97099368136814 -4.04509717991799 -0.02805511631163
 6 -5.43529723922392  0.63608889748975 -0.56682814761476
 6  6.88731861086109 -0.63880935053505  0.84327522572257
 6 -3.57771531443144  5.34278533703370  0.35786029672967
 6 -2.13283283488349  3.30332529352935 -0.05730149994999
 6 -0.75611620272027  6.58130380038004  0.73721277287729
 6 -4.30555011761176  5.30976693339334 -1.09799889138914
 1 -0.36691827672767  0.50813767956796  0.24496475677568
 1  3.00738809980998 -1.20167830903090 -1.26808689608961
 1  2.29756963826383 -2.88644024062406 -2.59591613871387
 1  0.68281928812881 -3.80061417231723 -2.87139549964997
 1 -5.74840656795680 -2.43837246194619  2.36549708960896
 1  5.17746025852585  0.27773715511551 -1.37450779807981
 1  5.97624619201920  1.63669319741974 -0.41664523912391
 1 -2.87403362106211  0.02077986828683 -0.48874927242724
 1  0.47904513511351  1.91712155605561 -0.50672811831183
 1 -1.84021875767577 -4.56267083758376 -1.21386089588959
 1 -2.57606771777178 -3.17365795219522 -2.09564769786979
 1 -1.04217939783978 -3.94797186598660 -2.92003759305931
 1 -2.30497288358836 -3.77353708440844  0.74823748894889
 1  1.20365119441944 -5.10315301360136 -0.62231762166217
 1  2.58556466086609 -5.24302840974097 -1.70701608350835
 1  4.88689392239224 -0.90996215961596  1.08683841994199
 1  5.35966031143114  0.59874591329133  1.89635743884388
 1  4.60715124072407  4.69143956035604 -0.22434380618062
 1  5.55737882958296  3.38936646984699  0.84105989558956
 1  4.16365339793979  4.28265373747375  1.48175389228923
 1  2.03775455405541  4.88338751615162  0.66139721492149
 1 -7.69007057535754 -2.84725980948095  0.88123939353935
 1 -7.06760082398240 -4.30719710181018  1.43459930033003
 1 -6.69373507050705 -3.80289770587059 -0.35959387098710
 1 -6.81402592489249 -0.91749265776578  0.41419942104210
 1 -4.90021899399940  1.33608842974297  0.07666040474047
 1 -6.41638001540154  0.99032810781078 -0.86232054815482
 1 -4.66615592759276  0.54519468166817 -1.35685245004500
 1 -3.51230321582158  6.31926633173317  0.72648952545255
 1 -4.28889032723272  4.78594092599260  1.02093812011201
 1 -0.24749389388939  6.99763032843284  1.61436127772777
 1 -1.67334344464446  7.23549700440044  0.69221857355736
 1 -0.02317314931493  7.13302558825883  0.04990594769477
 1 -3.61477938493849  5.85937356305631 -1.97023122562256
 1 -5.14204691189119  5.91532464856486 -0.88013789098910
 1 -4.42510598749875  4.17853802410241 -1.25130463846385
 1  3.45534393489349 -4.69153536603660  1.82739352175217
 1  7.94631265586559 -1.70121951095109  1.90765814881488

