%nproc=4
%Mem=2GB
# td=(NStates=1) B3LYP/SVP 

TD

0 1
 8 -4.26860837163716 -4.83574794599460  1.73727775617562
 8  2.91999602830283 -4.74034534133413  1.17698183548355
 8  6.93802010631063 -1.81757902760276  1.57155983548355
 8  3.78889394689469 -3.04313233823382 -0.06973031243124
 8  7.74395393199320 -0.45743563866387 -0.02041807450745
 8 -3.06036162226223  2.39229728052805 -0.39522108350835
 7 -0.21130812551255 -0.46873106620662 -0.57849486238624
 7  1.55528402110211  1.77012744524452 -0.16384796239624
 7 -3.18579056805681 -3.01113222622262  0.76052237083708
 7 -0.74999349504950  2.95613676307631  0.00582673687369
 6  0.55769803410341 -2.42868082648265 -1.40016231133113
 6  0.92351525382538 -1.08173540524052 -0.86113496239624
 6 -0.85351948064806 -2.56227458965897 -1.09755181788179
 6 -1.38858928092809 -1.28821913331333 -0.72605173517352
 6  3.80317877867787  1.47221038753875 -0.22391665846585
 6  2.54862696849685  0.77244907040704 -0.52825701070107
 6  2.25042029222922 -0.46629388728873 -0.93070254485449
 6  3.62557319741974  2.85741554375438  0.21166915721572
 6  1.59595100020002 -3.44570627192719 -1.89908725432543
 6 -5.42727163386339 -2.78381399629963  1.27412467676768
 6 -3.54387824712471 -1.76906188208821  0.20441637343734
 6  2.07935224732473  2.99647964216422  0.20838846224622
 6 -4.98085078137814 -1.64481344524452  0.40959500340034
 6  5.12448771067107  0.78410332723272 -0.38996795549555
 6 -2.65787060276028 -0.80739929532953 -0.30162663646365
 6 -1.68838850095010 -3.78384813791379 -1.69128944574457
 6 -4.22794246264626 -3.70227445924592  1.30715584118412
 6  2.01664279797980 -4.50161918561856 -1.05424465126513
 6  5.48585738813881 -0.12835095859586  0.77067961516152
 6  4.49790585188519  3.99239208850885  0.51383358365837
 6  1.30372905130513  4.09286383668367  0.51297301790179
 6 -6.65378002860286 -3.67459223902390  0.76605566766677
 6 -5.81641122172217 -0.65521130513051  0.01885905280528
 6 -0.15199311861186  4.18561681148115  0.20335214711471
 6 -1.15396049464946  5.26444397809781  0.41992045754575
 6 -2.36369584328433  4.65430693209321  0.18104401040104
 6  3.00767734973497 -4.05607827802780  0.03762145134513
 6 -5.44147785728573  0.53333862246225 -0.76255772057206
 6  6.82981286028603 -0.77830329992999  0.68381928012801
 6 -3.80332787568757  5.23408446694669  0.25653016371637
 6 -2.19921947354735  3.19315427642764 -0.08558432823282
 6 -0.60853144424442  6.55674134413441  0.78171722332233
 6 -4.38439800240024  5.33305926262626 -1.23165225672567
 1 -0.33899548444845  0.40595746154615 -0.26781652135214
 1  3.10960832183218 -1.15689383058306 -0.96398648604860
 1  2.32200208150815 -2.79308090469047 -2.44102064916492
 1  1.02380338653865 -3.74965907680768 -2.70354871497150
 1 -5.57512924022402 -2.43175179987999  2.24248478837884
 1  5.03970648314831  0.11744112551255 -1.46143649094910
 1  5.88640720812081  1.56238576667667 -0.59445301990199
 1 -2.77092331003100  0.17672546284628 -0.63456385388539
 1  0.57771500210021  1.92436228012801 -0.50861830733073
 1 -1.70544528032803 -4.68973354385439 -1.34428393819382
 1 -2.60929104010401 -3.64357494389439 -1.95425355845585
 1 -1.38135331523152 -4.27489455825583 -2.70853644294429
 1 -2.33729611591159 -3.34834456515652  0.93083574877488
 1  1.28581941124112 -5.24688738703870 -0.63732912281228
 1  2.69202530693069 -5.17320142704270 -1.69309469136914
 1  4.80229546254625 -0.96508767216722  0.95290502660266
 1  5.52777712311231  0.44462050075007  1.69132693579358
 1  4.06139666526653  4.86616703310331 -0.06574794659466
 1  5.50575366706671  3.77383491669167  0.30771656125613
 1  4.38658569116912  4.10100557265727  1.50085580248025
 1  1.88453923252325  5.07540671807181  0.70772184738474
 1 -7.39917148544855 -3.05545062856286  1.04072534213421
 1 -6.77035109900990 -4.59978636073607  1.38379421982198
 1 -6.44918061506151 -3.99902731883188 -0.27519543114311
 1 -6.71079560186019 -0.59652056055606  0.45870387148715
 1 -5.05643461556156  1.13822864376438  0.17788052675268
 1 -6.35543392079208  1.17569664466447 -1.15036935303530
 1 -4.79850916291629  0.29108927112711 -1.63700046484648
 1 -3.89675166066607  6.34256866196620  0.51822869936994
 1 -4.58741017921792  4.69919225112511  0.92616864316432
 1 -0.16583572807281  6.31866243164316  1.71908174977498
 1 -1.62578868916892  7.12683613831383  1.16701605330533
 1  0.23082225022502  7.16990927662766  0.32452340944094
 1 -3.61724963196320  5.96187381308131 -1.78414261676168
 1 -5.41654436163616  5.67497061316132 -1.40529040624062
 1 -4.62750622752275  4.36252642294229 -1.55615512351235
 1  3.74970337083708 -4.32891910441044  1.98932971537154
 1  7.86862488708871 -1.99961935093509  1.47136451945195

