%nproc=4
%Mem=2GB
# td=(NStates=1) B3LYP/SVP 

TD

0 1
 8 -4.45003651445144 -5.05950032123212  1.68432246064606
 8  2.83772780148015 -5.04367567436744  1.12686682398240
 8  7.20147645194519 -1.39566683638364  1.80508318781878
 8  3.61962702020202 -3.12744076907691  0.21872853345335
 8  7.64846438303830 -0.35118501360136 -0.29031506420642
 8 -3.09385497159716  2.46040409120912 -0.36925848724872
 7 -0.21473846854685 -0.46591078417842 -0.47142415531553
 7  1.52033052575258  1.85806623912391 -0.30918249584959
 7 -3.32565455445545 -3.20229134213421  0.72647896649665
 7 -0.82985148084808  2.79664081348135 -0.10049389518952
 6  0.63373563786379 -2.34132209060906 -1.36516881198120
 6  0.85958886118612 -1.04106133783378 -1.00292914181418
 6 -0.76717084578458 -2.53499186138614 -1.31290335303530
 6 -1.33098352035204 -1.37175748714871 -0.66782591259126
 6  3.83845230603060  1.56988015451545 -0.24578884568457
 6  2.56117822362236  0.81004282978298 -0.43524770977098
 6  2.25528077827783 -0.40554781268127 -0.89419889448945
 6  3.54534517461746  2.78291809400940  0.07675566586659
 6  1.67153855895590 -3.29222092339234 -1.99157650325033
 6 -5.51906081278128 -2.84268988388839  1.34256152045205
 6 -3.64790865016502 -1.94690966686669  0.16567249904991
 6  2.15656996909691  2.98630862506251  0.10060768416842
 6 -5.02048474477448 -1.65587455135514  0.54018806270627
 6  5.15088034993499  0.78800371727173 -0.42704166286629
 6 -2.64641945764576 -1.04833338873887 -0.37756423022302
 6 -1.41773143524352 -3.75766551965197 -1.71434175097510
 6 -4.40379004740474 -3.88080231203120  1.29099422502250
 6  2.07383851755176 -4.51785080878088 -1.02475170197020
 6  5.42543134553455 -0.18493661716172  0.74172671987199
 6  4.47551361266127  3.86886973627363  0.53251545184518
 6  1.26024470287029  4.06762131243124  0.43196491709171
 6 -6.76591124172417 -3.50735551535154  0.76365542764276
 6 -5.68688826942694 -0.55106089008901  0.23213037993799
 6 -0.11627954725473  4.06274452425242  0.21070288218822
 6 -1.08785388398840  5.20163769746975  0.42753121862186
 6 -2.36738621232123  4.77105860726073  0.30950685668567
 6  2.96329291129113 -4.07966063626363  0.13195088428843
 6 -5.43429713921392  0.62354764336434 -0.70717218201820
 6  6.87096697569757 -0.62547801740174  0.67836873507351
 6 -3.61216875977598  5.39219027752775  0.21009552025203
 6 -2.19151870347035  3.32815777677768 -0.05836160596060
 6 -0.56558714981498  6.54709037903790  0.79809886148615
 6 -4.32884244684468  5.48267422412241 -1.18477756925693
 1 -0.40583216811681  0.43465033083308  0.04629488978898
 1  2.94664202520252 -1.23808194939494 -1.11356144354435
 1  2.57838772007201 -2.96686828342834 -2.37943449054905
 1  1.19957096329633 -3.83569768066807 -2.88318667876788
 1 -5.62342406970697 -2.51820044474447  2.44416495639564
 1  5.19627213971397  0.24555393679368 -1.33050339763976
 1  6.10880944834483  1.44664419251925 -0.51502507710771
 1 -2.92297851555155 -0.13599580928093 -0.45280567806781
 1  0.68537576817682  1.60313015691569 -0.66495394089409
 1 -1.26619135493549 -4.76935150565057 -1.22514202400240
 1 -2.51815192619262 -3.56721730813081 -1.72125025812581
 1 -0.80319549944994 -4.16599366816682 -2.54588017731773
 1 -2.29001138743874 -3.51900163086309  0.69301196639664
 1  1.17983881318132 -5.21953465176518 -0.73585897579758
 1  2.69823592799280 -5.04486859375938 -1.73592897479748
 1  4.75461069406941 -1.11258242164216  0.71519125522552
 1  5.18260260566057  0.32727876657666  1.70709851295129
 1  4.29604012961296  4.86922733913391  0.01630025822582
 1  5.71550464216422  3.65574310751075  0.47154294389439
 1  4.26740377297730  4.03176864896490  1.59372508940894
 1  1.77681846044604  5.04703388078808  0.55256633183318
 1 -7.56439800810081 -2.78407349084909  0.90561183078308
 1 -6.87774183808381 -4.59978636073607  1.36753259365937
 1 -6.71227692469247 -3.56850426652665 -0.36083399499950
 1 -6.81979650195020 -0.73697460596060  0.37278527962796
 1 -5.13464243634364  1.61461628252825 -0.27336459775978
 1 -6.40729910731073  0.89062813781378 -1.18142245834583
 1 -4.57120643264326  0.41542170437044 -1.40896766156616
 1 -3.79019100460046  6.35110951605161  0.69562643914391
 1 -4.23737517571757  4.70158249014901  0.76199222552255
 1 -0.37517666216622  6.44788535393539  2.00380022162216
 1 -1.53513962426243  7.32460591529153  0.57588694039404
 1  0.43821298929893  6.93702598829883  0.22057301440144
 1 -3.78288619561956  6.06560418611861 -1.89090329282928
 1 -5.38362106930693  5.96459957605761 -0.99531940914091
 1 -4.34558803570357  4.39864003430343 -1.40692020002000
 1  3.44904330483048 -4.89399561206121  1.98841962436244
 1  8.05694371897190 -1.68469785878588  1.74084146714672

