%nproc=4
%Mem=2GB
# td=(NStates=1) B3LYP/SVP 

TD

0 1
 8 -4.37992950375038 -5.07952232343234  1.41146517491749
 8  3.27947197589759 -4.71876318311831  1.25168930623062
 8  6.99165546984699 -1.49314658435844  1.80428310781078
 8  3.95212026952695 -3.01669969496950 -0.06874021342134
 8  7.62765230183018 -0.48660855595560 -0.07803383608361
 8 -3.00788637473747  2.41141919271927 -0.27620918231823
 7 -0.26499349404941 -0.54010820392039 -0.56337335023502
 7  1.43299179187919  1.85724615711571 -0.45808738633863
 7 -3.36754874387439 -3.19245035803580  0.61177749634964
 7 -0.83614210991099  3.00513166256626  0.03234938913891
 6  0.61378364266427 -2.42098005640564 -1.35086738183818
 6  0.85167807010701 -1.20347757945795 -0.90996984588459
 6 -0.77757188588859 -2.58098646084608 -1.15114717741774
 6 -1.29879030103010 -1.43656396779678 -0.64359348934894
 6  3.75277373817382  1.48378154465447 -0.34266853365337
 6  2.39156126192619  0.81838366386639 -0.68269245424542
 6  2.16050130033003 -0.50291754965497 -0.90338981358136
 6  3.53592423252325  2.77261706390639  0.01126911721172
 6  1.55628703380338 -3.47902960426043 -1.89166651225123
 6 -5.52664157085709 -2.81148676357636  1.33150041434143
 6 -3.56547040634063 -1.86448142404240  0.25426135793579
 6  2.03045735783578  3.01085107930793  0.02270989438944
 6 -4.96647934423442 -1.54423338723872  0.55562960686069
 6  5.04710997289729  0.72677759465947 -0.39574853355336
 6 -2.65903071877188 -1.08615717111711 -0.43862033583358
 6 -1.47517717981798 -3.90944069716972 -1.59469978677868
 6 -4.38346801520152 -3.89631386318632  1.11878700430043
 6  2.17235836953695 -4.49002802650265 -0.92089131593159
 6  5.37866666906691 -0.22185030853085  0.93469601680168
 6  4.57593365466547  3.84663751305130  0.41082328262826
 6  1.24670334873487  4.05663021332133  0.35173689428943
 6 -6.94478912951295 -3.38178295809581  0.78726778887889
 6 -5.80417999859986 -0.54694047804780  0.15057222412241
 6 -0.15860377967797  4.15455370517052  0.21782359425943
 6 -1.03413851245124  5.20460799449945  0.41161962746275
 6 -2.37184665836584  4.68404990639064  0.31048695469547
 6  3.24003058505851 -4.04257692789279  0.05296298549855
 6 -5.49472318181818  0.73296858545855 -0.61278274307431
 6  6.78646852585259 -0.69552502210221  0.84789568776878
 6 -3.64326186908691  5.33235429392939  0.37987249794980
 6 -2.13379293089309  3.23090805180518  0.03736796699670
 6 -0.61945253635364  6.59481515151515  0.68399745134513
 6 -4.26236579917992  5.71071702840284 -1.00198929042904
 1 -0.36450803570357  0.36500336613661 -0.09319905960596
 1  3.09030639163916 -1.18151629282928 -1.11033112051205
 1  2.62145202650265 -3.04299589618962 -2.53952049914991
 1  1.07600860706071 -4.04765887678768 -2.77158551865187
 1 -5.68451017831783 -2.66201482618262  2.31195173507351
 1  4.94790730323032  0.13271265266527 -1.31580192749275
 1  5.81351991939194  1.43574310241024 -0.75137871247125
 1 -3.02036825452545 -0.04120633033303 -0.62231262876288
 1  0.38480571117112  2.05645548944894 -0.61901934743474
 1 -1.17444218001800 -4.82701727222722 -1.27828733853385
 1 -2.60206031703170 -3.59210979737974 -1.57311544464446
 1 -1.35155033493349 -4.15550261906191 -2.81327691699170
 1 -2.50894328062806 -3.58071780248025  0.39874253945394
 1  1.29124995429543 -5.04801750005001 -0.27280267016702
 1  2.56988309270927 -5.47282138903890 -1.47690307220722
 1  4.81936716971697 -1.09847101050105  0.77996773287329
 1  5.22279662506251  0.45908194689469  1.75997380048005
 1  4.26225675127513  4.74674509090909 -0.25298667046705
 1  5.43535662736274  3.37674520772077 -0.01162537293729
 1  4.50183721632163  4.32382785488549  1.40634635153515
 1  1.72167294589459  5.03875305270527  0.57250832603260
 1 -7.70202177047705 -2.72214729822982  1.29147041664166
 1 -6.72602666656666 -4.41586796889689  1.26203204360436
 1 -6.87504320132013 -3.53093050915091 -0.24375228682868
 1 -6.72231675397540 -0.93772468096810  0.34758275937594
 1 -5.13533250535054  1.65751057195720 -0.17266452775277
 1 -6.38538691609161  1.03573264826483 -1.02909722582258
 1 -4.87659697169717  0.41062122432243 -1.44313107790779
 1 -3.60994297979798  6.36729113421342  1.06944382088209
 1 -4.38845028322832  4.52292462436244  0.74638066436644
 1 -0.24434357885789  6.65465603100310  1.60423026462646
 1 -1.56999310961096  7.23770722542254  0.72906225792579
 1  0.12516168416842  7.01909419511951 -0.03146218911891
 1 -3.65427333433343  6.61123874957496 -1.46630083258326
 1 -5.29170187738774  6.00194331043104 -0.81391126832683
 1 -4.14622809970997  4.88744891519152 -1.68953846184618
 1  3.69501790229023 -4.27741395389539  2.04742552495250
 1  7.86199422402240 -1.88674806380638  1.76151353435344

