%nproc=4
%Mem=2GB
# td=(NStates=1) B3LYP/SVP 

TD

0 1
 8 -4.24828633943394 -4.82920729192919  1.78068209660966
 8  3.04816884558456 -4.77081838863886  1.16804094139414
 8  6.91480778507851 -1.91804907460746  1.66551923142314
 8  3.97438249574958 -3.15567359235924 -0.18454179357936
 8  7.46335587218722 -0.48787868296830 -0.03322935563556
 8 -3.03681926802680  2.40031808260826 -0.45451701310131
 7 -0.14035102980298 -0.52985717881788 -0.50965797869787
 7  1.55503399609961  1.91049148164816 -0.32933451105111
 7 -3.28979096809681 -3.09116022902290  0.59080539913991
 7 -0.69187768346835  2.88884003340334  0.08766492069207
 6  0.63544580888089 -2.41779973837384 -1.32979527462746
 6  1.00052295459546 -1.07626485818582 -0.95846469536954
 6 -0.65945007370737 -2.63067142934293 -1.18712077477748
 6 -1.25580600260026 -1.33484379577958 -0.68149727972797
 6  3.74168262906291  1.56239940644064 -0.31472573937394
 6  2.45629773557356  0.93828565406541 -0.54345853085309
 6  2.25813106330633 -0.46663392129213 -0.78479795439544
 6  3.52501314141414  2.87173697589759  0.03196118641864
 6  1.60155156025603 -3.45244694599460 -1.93012035763576
 6 -5.53072197889789 -2.78114372927293  1.31236850115011
 6 -3.56398025732573 -1.80294527042704  0.26125205700570
 6  2.10564487658766  3.08578857305731  0.06304392779278
 6 -4.98714141044104 -1.57943690759076  0.46329037293729
 6  5.04527978987899  0.81424634153415 -0.41461041974197
 6 -2.59533434913491 -0.97420597599760 -0.21356783058306
 6 -1.42792245434543 -3.83899365246525 -1.84258457525753
 6 -4.30568023642364 -3.72057628942894  1.31888701430143
 6  2.02695382908291 -4.48074709840984 -0.90652987978798
 6  5.24597339973997 -0.09699782328233  0.87677022422242
 6  4.52333839513951  3.97418026732673  0.39820202050205
 6  1.24147282568257  4.17419196949695  0.40695241584158
 6 -6.80691534213421 -3.38403318311831  0.76569563166317
 6 -5.82249182978298 -0.55608139213921  0.07098426532653
 6 -0.19019693899390  4.10022827262726  0.35553736563656
 6 -1.18304340294029  5.15953348704871  0.53020148564856
 6 -2.36185565926593  4.61874337573757  0.39610551655166
 6  3.18204478647865 -4.07943061326133  0.01992968216822
 6 -5.38474218371837  0.60152544114411 -0.72780424522452
 6  6.57835771477148 -0.82502797239724  0.72130302850285
 6 -3.71947949084909  5.24670572907291  0.33983849454945
 6 -2.15040459205921  3.17549251025102  0.01832606280628
 6 -0.77110770187019  6.57007267726773  0.72990204180418
 6 -4.28292785538554  5.21399735643564 -1.20155924742474
 1 -0.23363494839484  0.32659952575258 -0.06064580428043
 1  3.21042840384038 -0.88983712491249 -1.00751083848385
 1  2.50006988828883 -3.08161975857586 -2.40922746984698
 1  1.21343234943494 -4.00951506240624 -2.72131049114912
 1 -5.72031375867587 -2.34563318801880  2.41313185308531
 1  5.09906241874187  0.07204658605861 -1.31229157645765
 1  6.02486105350535  1.51268079617962 -0.47166074067407
 1 -2.58185440314031  0.18313610391039 -0.30270066756676
 1  0.37766499709971  2.05935577947795 -0.39956740224022
 1 -1.51465620142014 -4.80868543904390 -1.39690920072007
 1 -2.41302141314131 -3.46904749114912 -2.12514064716472
 1 -0.94372955285529 -4.17469453825383 -2.78258384768477
 1 -2.40992337863786 -3.38054778547855  0.43426609180918
 1  1.13607443674367 -4.96856955525553 -0.17746313621362
 1  2.34245034943494 -5.43109721662166 -1.55426080798080
 1  4.45398063106311 -0.88809997339734  1.01519125522552
 1  5.14579892529253  0.63899993869387  1.65433323642364
 1  4.61681220682068  5.07815823222322 -0.13799517131713
 1  5.55999909160916  3.62298983218322  0.15411120072007
 1  4.46058309090909  4.19702517461746  1.57739345624562
 1  1.58300907950795  5.20830000740074  0.58497957315732
 1 -7.72388395669567 -2.73695877937794  1.01974324392439
 1 -7.07426149004900 -4.26130251235123  1.22706854725473
 1 -6.86859255625563 -3.51933935003500 -0.47036494809481
 1 -6.82126664896490 -0.69659056755676  0.39888788988899
 1 -4.78549752185219  1.34282910381038 -0.04731199249925
 1 -6.31503988138814  1.11315039003900 -1.11036535263526
 1 -4.70160947294729  0.39683984618462 -1.56928369316932
 1 -3.85918790429043  6.46060046514652  0.67747462396240
 1 -4.35488692689269  4.71145347724773  0.99511553785379
 1 -0.56716586108611  6.93606417181718  1.74655449704970
 1 -1.48689479977998  7.32126558125813  0.40198955065507
 1  0.23809297729773  6.85887817351735 -0.03042208510851
 1 -3.54864277127713  5.68812643834383 -1.80473467596760
 1 -5.33297600480048  5.45358847494749 -1.51733161036104
 1 -4.31622509940994  4.19406957725773 -1.57985749374937
 1  3.70266866736674 -4.20914712721272  1.81097187958796
 1  7.81337936253625 -2.36402579157916  1.31922930593059

