%nproc=4
%Mem=2GB
# td=(NStates=1) B3LYP/SVP 

TD

0 1
 8 -4.16974848564857 -4.84661903310331  1.79883391179118
 8  2.87889191789179 -5.16773808060806  0.94834897219722
 8  6.83549985428543 -1.51561883158316  1.93097577707771
 8  3.70283534103410 -3.23352137713771  0.08261492209221
 8  7.51272080868087 -0.67778767386739 -0.02365839853985
 8 -2.96082166826683  2.23997204800480 -0.25136669806981
 7 -0.31210820552055 -0.39325351845185 -0.61717873077308
 7  1.57137563026303  1.84895532803280 -0.27534911251125
 7 -3.28050003900390 -3.03385449844984  0.59572589118912
 7 -0.71396989268927  2.95518666806681 -0.03077692349235
 6  0.69596186048605 -2.35689364776478 -1.40036233133313
 6  0.95410831313131 -1.00156738843884 -0.87463631253125
 6 -0.67521164986499 -2.47787614981498 -1.22725478817882
 6 -1.26471689368937 -1.30642095349535 -0.73075220522052
 6  3.81275973677368  1.55921908840884 -0.20600486728673
 6  2.63239534533453  0.97071889738974 -0.59003318831883
 6  2.25749099929993 -0.37752501040104 -0.85551502610261
 6  3.61462210231023  2.89076887908791  0.02756074637464
 6  1.51683308840884 -3.28476017731773 -2.10060740634063
 6 -5.47801670837084 -2.79114472937294  1.28921618591859
 6 -3.46815067436744 -1.69066404230423  0.30009594139414
 6  2.17736204830483  3.11723171737174  0.07646526992699
 6 -4.96076877317732 -1.55493445734573  0.58711275517552
 6  5.04346960886089  0.86003091999200 -0.40358931763176
 6 -2.50843565926593 -0.90877943334333 -0.24529100290029
 6 -1.52103176527653 -3.65660541364136 -1.70046036283628
 6 -4.31059072747275 -3.70692492429243  1.27358248384838
 6  2.02902403610361 -4.48778780248025 -1.23087231403140
 6  5.39661846424642 -0.09967809130913  0.79402194939494
 6  4.52343840514051  3.94878772807281  0.39089128942894
 6  1.32093077147715  4.18790334063406  0.44788650925093
 6 -6.68027267786779 -3.52087686748675  0.79514857695770
 6 -5.75023460406041 -0.55936172017202  0.16941410831083
 6 -0.08786670597060  4.07112536233623  0.31688350025002
 6 -1.19992509110911  5.12854038773877  0.49199766526653
 6 -2.34527400110011  4.58729023042304  0.29156506250625
 6  2.85082166416642 -4.10884355455546  0.03895158435844
 6 -5.35264897439744  0.55588087668767 -0.64018548334833
 6  6.66058593759376 -0.76297176677668  0.78593949214921
 6 -3.73292083498350  5.14634569306931  0.16554106480648
 6 -2.09494904650465  3.12621758275828 -0.03049881968197
 6 -0.72452304340434  6.54821049104910  0.63154220582058
 6 -4.47604716731673  5.03426938363836 -1.23083217471747
 1 -0.53669525442544  0.40471733753375 -0.00177991769177
 1  3.13225058605861 -0.92845098629863 -1.35462554995500
 1  2.39987986928693 -2.73991558815882 -2.45099164626463
 1  1.04734574077408 -3.82573668456846 -2.84209256935694
 1 -5.48763049034903 -2.49626825152515  2.51605214511451
 1  4.92217472997300  0.46308568996900 -1.55497584488449
 1  5.92340090749075  1.49414894299430 -0.36245982058206
 1 -2.83187940564056  0.15236302660266 -0.26864726222622
 1  0.51234846544654  2.07373721762176 -0.44053149864987
 1 -1.11668640444044 -4.48923349384938 -1.21023053285328
 1 -2.61802191319132 -3.72832341874188 -1.48615674877488
 1 -1.12533771367137 -3.80925799459946 -2.90593618291829
 1 -2.27385977227723 -3.40772050275028  0.51096376157616
 1  1.13452428172817 -5.01530422872287 -1.01977736763676
 1  2.67953405780578 -5.25168927582758 -1.77016239813981
 1  4.76482171517152 -0.97625878927893  1.04401413751375
 1  5.34651899729973  0.48985502420242  1.63950175327533
 1  4.45641616721672  4.83210362676268 -0.07024839663966
 1  5.52963605530553  3.47039457265727  0.71014680428043
 1  4.29024605720572  4.27508298039804  1.37754347124712
 1  1.89711048964896  5.11000017741774  0.74067514271427
 1 -7.78151972027203 -2.94239932343234  0.85209647924792
 1 -6.79223328722872 -4.40221660376038  1.46814265466547
 1 -6.66797249424943 -3.83414083018302 -0.28869678127813
 1 -6.98066258855886 -0.58014892339234  0.46036403750375
 1 -4.89296826892689  1.47291211211121 -0.03368062936294
 1 -6.33687206460646  1.05375445044504 -1.03050736683668
 1 -4.65709502150215  0.36608677087709 -1.49357612241224
 1 -3.78486047154715  6.33298770387039  0.38484536103610
 1 -4.41055249344935  4.82651498339834  1.10810683698370
 1 -0.06758590309031  6.48064863026303  1.47627746934693
 1 -1.61864797509751  7.15930938563856  0.86599595129513
 1 -0.10641147314731  6.86648893459346 -0.31048009090909
 1 -3.98778668566857  5.65100272597260 -2.06338054055406
 1 -5.22834554175417  5.63136625272527 -1.12122199939994
 1 -4.54549802670267  4.07059723002300 -1.88663817181718
 1  3.54423282378238 -4.92553876637664  1.76948773117312
 1  7.79983800840084 -2.05104449344935  1.86276365936594

