%nproc=4
%Mem=2GB
# td=(NStates=1) B3LYP/SVP 

TD

0 1
 8 -4.20160167096710 -4.89699407060706  1.70662469086909
 8  2.86883091179118 -4.89538084488449  1.28303244054405
 8  7.07089339363936 -1.40549781948195  1.86146882638264
 8  3.67404246174617 -3.10289831483148  0.19218587918792
 8  7.51956149274927 -0.68639853495350 -0.32299833253325
 8 -2.91461704780478  2.33589163996400 -0.30057161856186
 7 -0.18664565926593 -0.48112230533053 -0.63133014591459
 7  1.54283277597760  1.89013944644464 -0.36971854945495
 7 -3.31266325532553 -3.15445655865587  0.56052237083708
 7 -0.72860135583558  2.90151130053005 -0.01239508530853
 6  0.60010227452745 -2.36164412281228 -1.44445674077408
 6  0.96132903520352 -1.04868209990999 -1.00881973087309
 6 -0.77870199889989 -2.63527188938894 -1.23160522322232
 6 -1.32429285128513 -1.42727303870387 -0.77985711571157
 6  3.74811327212721  1.58495166166617 -0.32835710251025
 6  2.54270637643764  0.87766959245925 -0.63188737373737
 6  2.23259851005101 -0.49751700960096 -0.94432390699070
 6  3.52338297839784  2.84533433563356  0.17444543484348
 6  1.65522692779278 -3.37204890619062 -1.90657800340034
 6 -5.54243315001500 -2.88108372327233  1.23797106140614
 6 -3.57511137043704 -1.89222419831983  0.17659359115912
 6  2.11582589468947  3.02887288148815  0.05719334273427
 6 -4.99003169946995 -1.64996396029603  0.59630367426743
 6  5.13331859375938  0.83752866976698 -0.39134809350935
 6 -2.62623743944394 -1.08311686708671 -0.36988346214621
 6 -1.41998166026603 -3.82329208230823 -1.78662897969797
 6 -4.37676734513451 -3.82271650345035  1.13658878447845
 6  1.91950308400840 -4.48599762346235 -0.87756698349835
 6  5.44783358575858 -0.08231635513551  0.71487403460346
 6  4.46066212751275  3.99185203450345  0.47853005330533
 6  1.20266894529453  4.10978552885289  0.29063078367837
 6 -6.78411306190619 -3.45924070387039  0.61828089018902
 6 -5.80119970057006 -0.56550233423342  0.17650481738174
 6 -0.15985390469047  4.02646089588959  0.25992780468047
 6 -1.11602670127013  5.15900343404340  0.47085555105511
 6 -2.27477695139514  4.61396289768977  0.26800270627063
 6  2.92530911291129 -3.99712238243824  0.30583827302730
 6 -5.30439414891489  0.66819210781078 -0.53082454725473
 6  6.82249212821282 -0.71431690129013  0.67275817401740
 6 -3.58453599649965  5.38204926342634  0.42213672437244
 6 -2.07957750935094  3.14988994999500 -0.09553532333233
 6 -0.82978356945695  6.57968363836384  0.69782883448345
 6 -4.33571313391339  5.56279223592359 -0.88930802230223
 1 -0.27203878877888  0.41289815561556 -0.07550729042904
 1  3.12735009600960 -1.12850099129913 -0.98323841124112
 1  2.61094097539754 -2.85069666626663 -2.36974352145215
 1  1.22400340654065 -4.05609972087209 -2.75912427252725
 1 -5.71100282758276 -2.67574619931993  2.28601914181418
 1  5.22099461196120  0.38499788118812 -1.43778412571257
 1  5.89643821122112  1.66304583268327 -0.35372894749475
 1 -2.88386460416042  0.02405019531953 -0.60106050355035
 1  0.71669890049005  1.73893373727373 -0.70977842334233
 1 -1.69757449324932 -4.66623119361936 -1.10486999679968
 1 -2.43564367536754 -3.59878046444644 -2.09586771987199
 1 -0.81702688258826 -4.42607967676768 -2.60631622092209
 1 -2.34944733103310 -3.74042377307731  0.23852651785179
 1  1.07678850815082 -4.87697039533953 -0.08349373927393
 1  2.31653775817582 -5.41062516941694 -1.23105848774877
 1  4.76654188718872 -0.96545770917092  0.74246398249825
 1  5.31730607600760  0.23980001870187  1.61885968906891
 1  4.37373789938994  4.76241665806581 -0.33191456325633
 1  5.57468055975598  3.48448598179818  0.58721451105111
 1  4.07983501610161  4.34825029712971  1.45353107000700
 1  1.58818959755976  5.05526470387039  0.37568864406441
 1 -7.67399896819682 -2.98759384288429  0.73371464106411
 1 -6.79348341224122 -4.47069345144514  1.10828666906691
 1 -6.41078677567757 -3.65863327942794 -0.35211312291229
 1 -6.87188171047105 -0.37454836333633  0.35731373247325
 1 -4.58173714581458  1.43346816771677 -0.04371163246325
 1 -6.18367674507451  1.27095617061706 -0.59062337843784
 1 -4.54440375237524  0.43480364256426 -1.31349811461146
 1 -3.46637862336234  6.21264566966697  1.04094097059706
 1 -4.28744018221822  4.82667499939994  0.98421444774477
 1 -0.35588473297330  6.87199776517652  1.64960480208021
 1 -1.70493660396040  7.26262971767177  0.77055640734073
 1 -0.05866669866987  6.93049533523352  0.03570452755275
 1 -3.86371427842784  5.97927555325533 -1.76102030453045
 1 -5.33921662886289  5.90037315341534 -0.88588846604660
 1 -4.41885536243624  4.46864703500350 -1.32373188118812
 1  3.69546794729473 -4.75339155165516  1.84829561196120
 1  7.94308233283328 -1.70421981098110  1.55465284828483

