%nproc=4
%Mem=2GB
# td=(NStates=1) B3LYP/SVP 

TD

0 1
 8 -4.15292680348035 -4.80913528472847  1.91668569696970
 8  2.91847587628763 -4.84934624142414  1.09623376067607
 8  6.83557986228623 -1.64975224492449  1.80580325982598
 8  3.84710976847685 -3.19860788578858 -0.15683902330233
 8  7.54431396799680 -0.54346424152415  0.05303927122712
 8 -3.03908949504951  2.28219627042704 -0.49856141754175
 7 -0.29571656635664 -0.43486767986799 -0.63048006090609
 7  1.61692018471847  1.83597402990299 -0.45021659925993
 7 -3.32036402540254 -3.10487160016002  0.65658197679768
 7 -0.77494599029903  2.90346149554955 -0.29194304010401
 6  0.65808807310731 -2.25949390779078 -1.46135843094309
 6  0.87287018931893 -1.00246747844784 -0.97478632753275
 6 -0.69604373307331 -2.49750811301130 -1.32231429412941
 6 -1.26480690269027 -1.44063437483748 -0.72754188418842
 6  3.79518797959796  1.59537270377038 -0.25336960376038
 6  2.55550765656566  0.81315314081408 -0.58663284828483
 6  2.21501675187519 -0.48723598149815 -0.86716619121912
 6  3.49078971907191  2.81334113631363  0.06549453975398
 6  1.64814621972197 -3.36923862516252 -2.04250159575958
 6 -5.44966387308731 -2.63150876577658  1.41064832913291
 6 -3.57324118341834 -1.81894687058706  0.18478441024102
 6  2.08171248334833  3.00911090529053  0.03497112051205
 6 -5.01979467576758 -1.60944990889089  0.45708975287529
 6  5.10670593249325  0.93043796069607 -0.23136209490949
 6 -2.58682349804980 -1.01164972037204 -0.33591006480648
 6 -1.55969563166317 -3.64621437453745 -1.81035135193519
 6 -4.23881354975498 -3.73185741754175  1.38755388098810
 6  2.07621875557556 -4.47407643134313 -1.00866009280928
 6  5.39713851625163 -0.03868199169917  0.88203075027503
 6  4.46101216251625  3.86091894119412  0.53418561886189
 6  1.25163384178418  4.07964251455146  0.25028674927493
 6 -6.80310496109611 -3.39236401620162  1.30196925902590
 6 -5.76225580618062 -0.71291707570757 -0.04904773787379
 6 -0.18617653695370  3.97040529032903  0.13652546444644
 6 -1.06897199579958  5.06880441414141  0.56928539403940
 6 -2.34862433613361  4.53090459185919  0.34671057705771
 6  3.11779836183618 -3.99320199039904  0.04536222542254
 6 -5.41768547804780  0.42745803440344 -0.99859132393239
 6  6.74575445444544 -0.77823329292929  0.85430632883288
 6 -3.74774231713171  5.23767482598260  0.40276478717872
 6 -2.08892844444444  3.12860782178218 -0.22272804260426
 6 -0.63459405050505  6.35712138213821  1.05983503510351
 6 -4.26952651525152  5.60957691439144 -1.08463755525553
 1 -0.55705729062906  0.47087395319532 -0.15331507120712
 1  2.90881824282428 -1.07984612581258 -1.14820490789079
 1  2.34519440074007 -2.70805240184018 -2.41637818491849
 1  1.11336234243424 -3.83507761866187 -2.87769612971297
 1 -5.37091881918192 -2.19061768646865  2.37048758865887
 1  5.25261777427743  0.45561494289429 -1.22414276157616
 1  5.94598316571657  1.68860838893889 -0.49340291489149
 1 -2.56620283798380  0.17276506680668 -0.33726412391239
 1  0.52804003460346  1.96707655155516 -0.77360480598060
 1 -1.32153688948895 -4.70361493199320 -1.21414092389239
 1 -2.72384249524953 -3.60030061646165 -1.85320345344534
 1 -0.91375655555556 -3.72766983578358 -2.69920550985098
 1 -2.30182256855686 -3.35803553425342  0.85378804400440
 1  1.06595742504250 -4.77925062336234 -0.67420281018102
 1  2.59232533693369 -5.37069117601760 -1.54125950785078
 1  4.57475270827083 -0.81031219461946  0.96216595269527
 1  5.17420176557656  0.41285732443244  1.91230903400340
 1  3.83060358595860  5.07346776317632  0.43149177737774
 1  5.52603569526953  3.84044157735774  0.09040483008301
 1  4.36653368596860  3.98714418651865  1.58676439333933
 1  1.55891667026703  5.00590976837684  0.58405948114811
 1 -7.67902947124712 -2.85350043354335  1.33507477707771
 1 -6.77846191009101 -4.34999138123812  1.86195203560356
 1 -7.04650034703470 -3.43342075817582  0.17657974637464
 1 -6.87232175447545 -0.87109801830183  0.01604960606061
 1 -5.14260323242324  1.28541336223622 -0.24931219251925
 1 -6.47321569896990  0.70766984198420 -1.84450876697670
 1 -4.65660497249725  0.01546170837084 -1.72728949374938
 1 -3.77281926742674  6.20227463256326  0.93920079657966
 1 -4.68050948914891  4.67484981688169  0.92130815711571
 1  0.15078593409341  6.27601816721672  1.93181302290229
 1 -1.37081319161916  7.11658511321132  1.59809916161616
 1  0.00623979197920  6.89466175187519  0.24851580868087
 1 -3.40166807380738  6.14174179987999 -1.59720392289229
 1 -5.24959766696670  5.95014813091309 -0.94264414161416
 1 -4.46644012091209  4.65693586388639 -1.67190669866987
 1  3.66178457895790 -4.78862507500750  1.75618640104010
 1  7.84610263486349 -1.93637302630263  1.85299268226823

