%nproc=4
%Mem=2GB
# td=(NStates=1) B3LYP/SVP 

TD

0 1
 8 -4.23832534333433 -4.91556592779278  1.80098412681268
 8  3.07359138783878 -4.97606891369137  1.15044918221822
 8  6.92262856715672 -1.55903317301730  1.82879555905591
 8  3.71526658415842 -3.06907493249325  0.18988564916492
 8  7.45179471607161 -0.67050694579458 -0.24958099079908
 8 -3.04256984308431  2.48091614241424 -0.43502506390639
 7 -0.25796279097910 -0.37581177427743 -0.75892290519052
 7  1.51046953965397  1.86091652415242 -0.31565314291429
 7 -3.25450743974397 -3.21194230723072  0.57388370697070
 7 -0.83004149984999  2.96105725512551 -0.02453629942994
 6  0.67267953225323 -2.38396635503550 -1.26177847294729
 6  0.92978588088809 -1.01730896259626 -0.94962381128113
 6 -0.67606173487349 -2.62695105730573 -1.24510657335734
 6 -1.24029445144514 -1.36023633503350 -0.75474460446045
 6  3.70546900770077  1.49405257175718 -0.27392165896590
 6  2.51799390519052  0.89470129562956 -0.53693787878788
 6  2.17683293349335 -0.36060331823182 -0.88336781138114
 6  3.54940558065807  2.81325112731273  0.05132312261226
 6  1.71085249034904 -3.44083578487849 -1.91358870447045
 6 -5.51877078377838 -2.80983659855986  1.34607187148715
 6 -3.55616947624763 -1.93587856375638  0.16373230503050
 6  2.13428774087409  3.04397439163916  0.02406002940294
 6 -4.95019771607161 -1.64882384628463  0.44011805570557
 6  5.08663392529253  0.83061797869787 -0.41791074977498
 6 -2.62108692439244 -1.13050160556056 -0.43865033883388
 6 -1.39438910101010 -3.80922067516752 -1.81042135893589
 6 -4.36905657405741 -3.77264149594959  1.36807193279328
 6  2.08031916561656 -4.43220224392439 -0.87524675147515
 6  5.39371817421742 -0.16268439193919  0.71131367856786
 6  4.57492355365537  3.86857970727073  0.44869707000700
 6  1.26391506990699  4.16757130743074  0.33160488108811
 6 -6.83246789738974 -3.54746952675267  0.89475853795380
 6 -5.79228880948095 -0.58575435943594  0.13099026592659
 6 -0.13152107140714  4.15562381218122  0.22509432133213
 6 -1.04001910051005  5.18224575827583  0.51104957045705
 6 -2.28893836753675  4.71602310371037  0.34915082108211
 6  3.03367994999500 -4.06192886308631  0.14538222742274
 6 -5.46686039553955  0.62595788438844 -0.84362582738274
 6  6.73801368036804 -0.80106557615762  0.69618051625163
 6 -3.69312685558556  5.28316937543754  0.30486499719972
 6 -2.17621717331733  3.28738369936994 -0.11564733453345
 6 -0.69771036213621  6.61745741574157  0.97206625822582
 6 -4.33665322792279  5.47497345404540 -1.00813990549055
 1 -0.33799538443844  0.42849971577158 -0.22390212991299
 1  3.08776613761376 -0.99224736593659 -1.13755384278428
 1  2.59328921022102 -3.06025762236224 -2.36131267836784
 1  1.31506251245124 -3.90355446634663 -2.97077543764376
 1 -5.70194192149215 -2.56672529722972  2.30578111801180
 1  5.23874638713871  0.40117949934994 -1.52945329262926
 1  5.74903347074707  1.63834336243624 -0.26405998059806
 1 -2.90400661836184 -0.16980919061906 -0.73929432693269
 1  0.45526275687569  1.80748059195920 -0.41305875137514
 1 -1.39208394419442 -4.68876344684468 -1.02219172897290
 1 -2.42191230223022 -3.37998858525853 -1.92009014211421
 1 -0.87118229812981 -4.17382445124512 -2.64154974427443
 1 -2.32247463376338 -3.49564929562956  0.69246191139114
 1  1.33593442274227 -4.86803950225022 -0.27788317821782
 1  2.57841394579458 -5.37127123402340 -1.48459384128413
 1  4.70231546454645 -1.10670183358336  0.73170290639064
 1  4.93156750215021  0.22824886358636  1.67921572467247
 1  4.49154968056806  4.84450486688669 -0.39412078387839
 1  5.60599369106911  3.49696722992299  0.73080887048705
 1  4.03525055765577  4.40892636473647  1.33295901280128
 1  1.62642342094209  5.17708688608861  0.71164223942394
 1 -7.66676824512451 -2.71483656715672  0.82621389098910
 1 -7.27975203910391 -4.36547292939294  1.82598843924392
 1 -6.86340203720372 -3.89983739983998 -0.16033394499450
 1 -6.69495401770177 -0.56347725622562  0.54331233233323
 1 -4.70482945504550  1.55202002290229 -0.35869313061306
 1 -6.29071744914491  1.03520259525953 -1.32675699179918
 1 -4.91368068006801  0.27759792199220 -1.84074083888389
 1 -3.60557254275428  6.21613601870187  0.96493336983698
 1 -4.41922336053605  4.55602793469347  0.68155418171817
 1 -0.23154229872987  6.79504006940694  2.05554539613961
 1 -1.73560967126713  7.31521497619762  1.02249160086009
 1  0.19602877087709  6.90149243494349  0.39932088918892
 1 -4.07169507650765  6.31928955465547 -1.76778098059806
 1 -5.26306901410141  5.79944306040604 -0.73523340054005
 1 -4.32719619651965  4.65807597789779 -1.60613012101210
 1  3.75609400990099 -4.81150736323632  1.89652043444344
 1  7.82144016861686 -1.72898228722872  1.73377076007601

