%nproc=4
%Mem=2GB
# td=(NStates=1) B3LYP/SVP 

TD

0 1
 8 -4.30969248004800 -4.92109648084809  1.71282531093109
 8  2.93877790649065 -4.86848815561556  1.09074321162116
 8  6.87974427872787 -1.60796806650665  1.97707038653865
 8  3.77107216471647 -3.11115914091409 -0.03399673907391
 8  7.56438597519752 -0.65326522162216 -0.05858189088909
 8 -2.98294388048805  2.36923497429743 -0.31897345874587
 7 -0.21446844154415 -0.52027622072207 -0.64277129002900
 7  1.56010450315031  1.93001343384338 -0.49040061766177
 7 -3.30004199319932 -3.16791790479048  0.79292561116112
 7 -0.72325082078208  2.88623977337734 -0.00797464326433
 6  0.63216548084808 -2.35579353775378 -1.40835313041304
 6  0.89661256355636 -1.06343357505751 -0.93010185908591
 6 -0.69919404810481 -2.61339970217022 -1.27582964566457
 6 -1.27502792479248 -1.39239955135514 -0.69018814881488
 6  3.83543200400040  1.61830499699970 -0.33758802560256
 6  2.54778688448845  0.92626445194519 -0.60533471847185
 6  2.22456770697070 -0.39056631453145 -0.82754222882288
 6  3.56773741384138  2.91621142334233 -0.03159516921692
 6  1.68472987808781 -3.25978768006801 -2.04180152575258
 6 -5.43675258195820 -2.71582719761976  1.39458672297230
 6 -3.56512037133713 -1.86844182008201  0.25652158395840
 6  2.08908322042204  3.08536853105311 -0.08409078567857
 6 -5.01185388168817 -1.62993195709571  0.60600464436444
 6  5.07421268316832  0.73108802570257 -0.35831479017902
 6 -2.60708552425242 -0.96203475887589 -0.23572004580458
 6 -1.42507216931693 -3.75903565666567 -1.77413773057306
 6 -4.39019868826883 -3.77365159695970  1.34404953055306
 6  2.12674380808081 -4.49518854255426 -1.16459568636864
 6  5.30876967936794 -0.16890501400140  0.88684123132313
 6  4.53404946624662  3.83195604490449  0.54999720002000
 6  1.27864654305431  4.17933248354835  0.24101582218222
 6 -6.71849650025002 -3.48220300010001  0.91705076717672
 6 -5.86924650525053 -0.69949573357336 -0.02502533563356
 6 -0.08325624492449  4.07222547234723  0.24409622152215
 6 -1.06535163376338  5.11253878757876  0.50395886138614
 6 -2.38750822452245  4.61485298669867  0.28550445644564
 6  3.04426100810081 -4.12672534273427  0.00618830803080
 6 -5.43560727022702  0.46683197179718 -0.82774423922392
 6  6.73145302430243 -0.74534000360036  0.80925182338234
 6 -3.71156869976998  5.36174723322332  0.30738524922492
 6 -2.09601915351535  3.17510247124712 -0.03795956575658
 6 -0.71106169726973  6.57011268126813  0.72527157875788
 6 -4.43457301990199  5.54297025372537 -1.03183227472747
 1 -0.45828741364136  0.46367323312331 -0.24514425412541
 1  3.13201056205621 -0.96253439463946 -1.13186327372737
 1  2.61738161946195 -2.53687528412841 -2.22361890899090
 1  1.21389239543954 -3.55058916981698 -2.97066542664266
 1 -5.54869659695970 -2.36849547424742  2.49745028492849
 1  4.93607612011201 -0.04833545214521 -1.02037238453845
 1  6.00778934633463  1.39607913601360 -0.62161573617362
 1 -2.81933815151515  0.24694248454846 -0.37440783828383
 1  0.58580581118112  1.66000584448445 -0.88192563806381
 1 -1.51734647044704 -4.73703827432743 -1.14647415721572
 1 -2.51108121912191 -3.71806239263926 -1.89437757085709
 1 -1.07066224612461 -4.15239230803080 -2.70627621692169
 1 -2.23836622292229 -3.54730446114611  0.78402106730673
 1  1.35771660096010 -5.03344604290429 -0.82953834373437
 1  2.68805490989099 -5.09905401230123 -1.87034241614161
 1  4.62651788478848 -0.94955611901190  0.80316005210521
 1  5.53227757315732  0.12833887258726  1.73939174227423
 1  4.18913943954395  4.86672708910891  0.35275390359036
 1  5.59119221092109  3.71665919911991  0.13579936953695
 1  4.43109014161416  3.79944541664167  1.73310902780278
 1  1.65077585618562  5.14183336073607  0.86617769296930
 1 -7.64626619491949 -2.85022010551055  1.10854212381238
 1 -6.89140320422042 -4.27337371947195  1.55125096549655
 1 -6.70737643464346 -3.59867728382838 -0.05852376397640
 1 -6.82596711901190 -0.79901080958096  0.46584458555856
 1 -5.24956392849285  1.24227904880488 -0.02209947124712
 1 -6.17183556095610  0.96986606160616 -1.40052436853685
 1 -4.40676998899890  0.31454161636164 -1.56007277207721
 1 -3.53403538903890  6.36407081218122  0.70219709620962
 1 -4.37065850405041  4.52521485338534  1.04174020032003
 1 -0.32062120662066  6.59097966336634  1.80646048764877
 1 -1.57139324962496  7.26615006970697  0.49724907660766
 1  0.19132830083008  6.90841312701270  0.11524248134813
 1 -3.96544445144514  6.19236686238624 -1.72577678017802
 1 -5.44445715291529  5.97602071817182 -0.69913979117912
 1 -4.58824230113011  4.45974614491449 -1.39406891489149
 1  3.47841624212421 -4.25022123462346  1.78259904230423
 1  7.84801282588259 -1.61011040004000  2.01493887688769

