%nproc=4
%Mem=2GB
# td=(NStates=1) B3LYP/SVP 

TD

0 1
 8 -4.07472898369837 -4.71415578677868  2.00666469486949
 8  2.99299332803280 -4.87947925472547  1.00287442474247
 8  6.83021932623262 -1.61757902760276  2.07216989648965
 8  3.72941799929993 -2.95876390139014  0.00170683128313
 8  7.54261379797980 -0.58131802690269  0.21668563586359
 8 -3.09592517861786  2.37068511931193 -0.36150771217122
 7 -0.32923991869187 -0.48443263636364 -0.82724973787379
 7  1.46526501920192  1.85868630113011 -0.55321689928993
 7 -3.14165615461546 -3.10460157315732  0.67853417201720
 7 -0.80155865156516  2.76092724212421  0.00550670487049
 6  0.61409367366737 -2.46648460686069 -1.59393168826883
 6  0.87576047834783 -1.09595682738274 -1.14539338823882
 6 -0.78234236293629 -2.55099346154616 -1.42065412811281
 6 -1.27196761876188 -1.40489080048005 -0.84722385238524
 6  3.70012847364736  1.39495266176618 -0.37613187998800
 6  2.41091319711971  0.89409123462346 -0.70636482148215
 6  2.19661491169117 -0.44611186908691 -1.08344781938194
 6  3.54593523362336  2.78889869206921  0.02481047134713
 6  1.58852025712571 -3.39081078237824 -2.13740108570857
 6 -5.36517542424242 -2.69929554445445  1.35054231853185
 6 -3.52421628092809 -1.83321829772977  0.22649858165817
 6  2.09227353945395  3.03884387858786 -0.11883426002600
 6 -4.91190388668867 -1.57930689458946  0.53986803070307
 6  5.11152641454145  0.79350426732673 -0.26333529222922
 6 -2.60806562226223 -1.02058061346135 -0.48765523932393
 6 -1.48201786388639 -3.85782553565357 -1.89161947874787
 6 -4.18319798819882 -3.65648988078808  1.48994412001200
 6  2.16902803650365 -4.37148617231723 -1.17166639343934
 6  5.30257906030603 -0.04604272777278  1.06171871907191
 6  4.55843190449045  3.73075592489249  0.40795299559956
 6  1.26132481088109  4.11768631893189  0.17439916051605
 6 -6.75885053565357 -3.39580436023602  1.14550361246125
 6 -5.77988756935694 -0.63299908390839  0.14365153205321
 6 -0.17456537583758  3.99963821362136  0.24189600150015
 6 -1.07623272187219  5.15421295499550  0.48695716121612
 6 -2.31758123182318  4.62009351075107  0.33035894189419
 6  2.96901348334833 -3.89413208340834  0.02482017121712
 6 -5.37113082258226  0.47698298689869 -0.86749821462146
 6  6.70046992599260 -0.75075054465447  1.09182008020802
 6 -3.60952849574958  5.25206626512651  0.42955746644664
 6 -2.14552410401040  3.20562552355236 -0.06880265006501
 6 -0.74748533963396  6.50030570057006  0.88205725732573
 6 -4.25577514011401  5.51353731043104 -0.93338242974297
 1 -0.42138372327233  0.32153901970197 -0.02511225092509
 1  3.07431479247925 -0.97395553675367 -1.20727081448145
 1  2.59292917421742 -2.96038763536354 -2.28420496759676
 1  1.35906691289129 -3.84404851575158 -3.18330669076908
 1 -5.41113284058406 -2.30103872857286  2.36455699559956
 1  5.00399291179118  0.13540292169217 -1.05641598889889
 1  5.90356892429243  1.51902143024302 -0.29641321592159
 1 -2.94897111481148  0.11062885318532 -0.41426182368237
 1  0.42131936253625  1.85243508740874 -0.88452589808981
 1 -1.60539527532753 -4.75749031953195 -1.19131864166417
 1 -2.65186529752975 -3.43404399079908 -1.95431356445645
 1 -0.99136431633163 -4.08291536033603 -2.91694728402840
 1 -2.11421380768077 -3.49290902160216  0.61238390359036
 1  1.15197602690269 -5.00090278857886 -0.98382377227723
 1  2.75526163056306 -5.13381748864887 -1.62893827572757
 1  4.31882711571157 -0.60704186758676  1.11241097719772
 1  5.26622096749675  0.51023706240624  2.00904870797080
 1  4.32889341494149  4.62220263666367  0.06421504970497
 1  5.58524161586159  3.53301083428343  0.35837162676268
 1  4.53303033563356  3.85821129322932  1.46227194409441
 1  1.73078385698570  5.08876805420542  0.38440951615162
 1 -7.64754632293229 -2.89060414391439  1.55465673527353
 1 -6.78243230713071 -4.22207858995900  1.80898673907391
 1 -6.98333403040304 -3.42097951405141  0.13314540294029
 1 -6.90685520782078 -0.61902281078108  0.52357035813581
 1 -4.90716968906891  1.28196301720172 -0.30387764906491
 1 -6.04216259365937  0.76744581958196 -1.53312762886289
 1 -4.46435574757476  0.25655581778178 -1.56499326412641
 1 -3.80544252975298  6.08058246334633  1.18844572107211
 1 -4.28797023522352  4.24857718961896  0.79653567986799
 1 -0.43726287078708  6.40254081948195  2.03413325492549
 1 -1.55393150345034  7.14887834253425  0.91079043074307
 1 -0.10677150915092  6.98661094679468  0.19030998809881
 1 -3.68018592559256  6.15419304500450 -1.48627282978298
 1 -5.11256396359636  6.02332544864487 -0.86456633383338
 1 -4.30231370827083  4.49415958625863 -1.35501500950095
 1  3.62836123662366 -4.42319853235324  1.67105788818882
 1  7.70916894149415 -1.94472386138614  2.01992937593759

