%nproc=4
%Mem=2GB
# td=(NStates=1) B3LYP/SVP 

TD

0 1
 8 -4.15691720252025 -4.87649202040204  1.87604163256326
 8  3.07307133583358 -4.97882918971897  0.87983212051205
 8  6.96746305060506 -1.36597386708671  2.23702638213821
 8  3.81946700420042 -3.06131415641564 -0.22458579797980
 8  7.50033957055706 -0.62074196929693  0.19647361466147
 8 -3.00340592669267  2.36918496929693 -0.40366192759276
 7 -0.35948294299430 -0.42563675677568 -0.75045205810581
 7  1.52790128282828  1.84056448894890 -0.46618819641964
 7 -3.20135212421242 -3.05546665966597  0.78846516511651
 7 -0.78675717141714  2.90302145154515 -0.21003484928493
 6  0.55105737003700 -2.42541049944994 -1.47063935903590
 6  0.89344224652465 -1.07823505520552 -1.08567741664166
 6 -0.76273040174017 -2.61028939113911 -1.24926698939894
 6 -1.36344676667667 -1.29440975237524 -0.74400353035304
 6  3.81125958675868  1.45764893139314 -0.38650291709171
 6  2.43934604040404  0.88251007650765 -0.67051123612361
 6  2.22457770797080 -0.44444170207021 -1.05797527212721
 6  3.48929957005701  2.79428923112311  0.02839082938294
 6  1.52918432353235 -3.37476917821782 -2.12347969356936
 6 -5.46348525522552 -2.87253286818682  1.32453971827183
 6 -3.54854871417142 -1.76859183508351  0.26697262906291
 6  2.11000531263126  2.96757675187519  0.00410803420342
 6 -4.95091778807881 -1.62659162306231  0.59173321722172
 6  5.12570783268327  0.75846076297630 -0.41359031773177
 6 -2.61748656435644 -0.89332788818882 -0.30024649844985
 6 -1.50840050215021 -3.82666241934193 -1.54979529632963
 6 -4.29632930133013 -3.81341557335734  1.41677680328033
 6  2.00154128782878 -4.45652467616762 -1.15108433523352
 6  5.33140194259426 -0.10622874637464  0.94584713191319
 6  4.53997005830583  3.87469031833183  0.40927312761276
 6  1.24633331173117  4.00030458075808  0.38135985658566
 6 -6.78200285088509 -3.52305708550855  0.85217427952795
 6 -5.78893847444744 -0.56979276327633  0.19563673057306
 6 -0.16861478077808  4.02579082888289  0.26731854375438
 6 -1.05523062166217  5.15268280198020  0.48123658915892
 6 -2.27756723042304  4.61100260166017  0.30862676867687
 6  3.09764634663466 -4.04915758595860 -0.18673098389839
 6 -5.45565927542754  0.56850213881388 -0.68713017781778
 6  6.70184006300630 -0.71260673027303  1.05547644584458
 6 -3.71955949884989  5.23102416091609  0.28147265796580
 6 -2.17523707530753  3.23586854785479 -0.08766453625363
 6 -0.65369596069607  6.52999866986699  0.92779183078308
 6 -4.14567413001300  5.56993294999500 -1.17281637313731
 1 -0.50403198809881  0.65872273807381 -0.35632537223722
 1  3.13800116111611 -1.12564070527053 -1.18949903730373
 1  2.36030591189119 -2.70551214781478 -2.43375992309231
 1  1.10722172837284 -3.80014412531253 -3.04153251335134
 1 -5.68223995129513 -2.60631925662566  2.35441598149815
 1  5.08847135963596  0.04907428882888 -1.06466681398140
 1  5.96787535493549  1.70931045914591 -0.52047562216222
 1 -2.91936815451545  0.09371716201620 -0.39501989948995
 1  0.42224945554555  1.88898874277428 -0.71038848434843
 1 -1.42274701050105 -4.70006457695770 -0.82487199699970
 1 -2.70459057005701 -3.69857044344434 -1.73542167526753
 1 -1.20280546044604 -4.33127019581958 -2.45653124242424
 1 -2.24783717001700 -3.66511624232423  0.73730639583958
 1  1.27099792909291 -4.95943864216422 -0.66547193709371
 1  2.49673577797780 -5.17440154705471 -1.85634101600160
 1  4.56195142814281 -0.76391755515552  1.00626036213621
 1  4.96941128652865  0.65002104080408  1.84516231933193
 1  4.41214173977398  4.73389380578058 -0.25536690849085
 1  5.41963505520552  3.47724525772577  0.57705349494950
 1  4.40050708330833  4.24027950005001  1.46662237913791
 1  1.60196097469747  5.07506668406841  0.57800887608761
 1 -7.54511607990799 -2.71506659015902  0.69104037363736
 1 -6.74435849974997 -4.49212559465947  1.44523036343634
 1 -6.51021671867187 -3.82531994809481 -0.16517442904290
 1 -6.84070859315932 -0.44789569806981  0.70675867696770
 1 -4.70558953105311  1.10037485838584 -0.02168943024302
 1 -6.23413179057906  1.46086516151615 -0.66556087218722
 1 -4.98937824982498  0.24478464066407 -1.70690745554555
 1 -3.52317430293029  6.10644504960496  0.90157703420342
 1 -4.37851929012901  4.62003433533353  0.70319634593459
 1  0.07703855935594  6.39325989138914  1.94992483408341
 1 -1.63093920422042  7.25342879757976  1.43919327102710
 1 -0.08695952795280  6.92359464516452  0.23761471857186
 1 -3.33497140414041  6.29444707040704 -1.56888109060906
 1 -5.23573628082808  5.95052816891689 -1.26788666586659
 1 -4.28986246314632  4.59236940724072 -1.87744725272527
 1  3.62147054755476 -4.63883009550955  1.64371515391539
 1  7.86012403700370 -1.62269165816582  2.19974735773577

