%nproc=4
%Mem=2GB
# td=(NStates=1) B3LYP/SVP 

TD

0 1
 8 -4.43796530733073 -4.99883425462546  1.76058008640864
 8  2.78558258695870 -4.69662096889689  1.19946408370837
 8  6.98298460276028 -1.43504077377738  1.91324400390039
 8  3.92357741524152 -3.25982400740074 -0.17609094849485
 8  7.71408094469447 -0.43803369846985  0.00781474877488
 8 -3.09912549864987  2.33854190499050 -0.50209177057706
 7 -0.32623961866187 -0.47171136423642 -0.66421343424342
 7  1.53444193689369  1.90070050255026 -0.40535211281128
 7 -3.22348433743374 -3.14557567056706  0.68434475307531
 7 -0.79703819951995  2.86307745714571  0.00722687688769
 6  0.62118438273827 -2.33122108050805 -1.50585288038804
 6  0.96695959825983 -1.05874310601060 -1.00515936483648
 6 -0.69418354705471 -2.60477884008401 -1.26141820452045
 6 -1.31675209720972 -1.37881819321932 -0.80295942594259
 6  3.78254671547155  1.49979314581458 -0.30336460326033
 6  2.51773387918792  0.84687651315132 -0.54855904090409
 6  2.19418466866687 -0.46486374427443 -0.95676515111511
 6  3.50459109920992  2.74748455065507  0.14279226952695
 6  1.61886329142914 -3.37818952025203 -1.99052639823982
 6 -5.45479438613861 -2.79200481538154  1.35357262156216
 6 -3.52591645094509 -1.86945192109211  0.27108304010401
 6  2.09518383048305  2.97863785798580  0.05437306070607
 6 -4.99814251055106 -1.56783574747475  0.58054209810981
 6  5.07142240414041  0.73417833473347 -0.46648560726073
 6 -2.56867168286829 -1.09773832923292 -0.36712318611861
 6 -1.43111277337734 -3.76194594769477 -1.74232454925493
 6 -4.34301396979698 -3.87017124892489  1.34229935553555
 6  2.01675280898090 -4.44823384708471 -1.14359358615862
 6  5.44563336573657 -0.03280140364036  0.81410395759576
 6  4.52319838113811  3.71069391869187  0.72231443174317
 6  1.21921059945995  4.05038958925893  0.40604232483248
 6 -6.71857650825083 -3.40331511131113  0.96226528862886
 6 -5.76365594619462 -0.59577536153615  0.26300346724672
 6 -0.23917183648365  4.06826507630763  0.21056286818682
 6 -1.11352645124512  5.12479001270127  0.41563002850285
 6 -2.37792726642664  4.63337483888389  0.12753865986599
 6  3.01573815581558 -4.09853252345235  0.02580026922692
 6 -5.43328703820382  0.58704399299930 -0.56375784058406
 6  6.79582946194619 -0.68954442404240  0.84760565876588
 6 -3.66677422032203  5.34388544704470  0.21678618931893
 6 -2.14409396099610  3.17486244724472 -0.19417518731873
 6 -0.61276186728673  6.47239290929093  0.87149620122012
 6 -4.27837740034003  5.67605356205621 -1.05990508200820
 1 -0.42734431933193  0.34838170397040 -0.05457519721972
 1  3.24515187618762 -0.96590473167317 -1.40625071247125
 1  2.50560044134413 -3.05482707930793 -2.32113866096610
 1  1.32240324652465 -3.82332644354435 -2.93068142824282
 1 -5.38588031533153 -2.40782940764076  2.47798833873387
 1  5.22252476497650  0.17544692609261 -1.34134448174817
 1  5.91245981338134  1.27578710681068 -0.78192176677668
 1 -3.00251646934693 -0.14912712241224 -0.50397079457946
 1  0.39648687928793  2.16773661756176 -0.72841028652865
 1 -1.33575831163116 -4.66589115961596 -1.10487999779978
 1 -2.61354146514651 -3.76082666906691 -1.78613674677468
 1 -1.04241942184218 -4.04463153195320 -2.76454204350435
 1 -2.40966335263526 -3.71806153685369  0.62029469466947
 1  1.20410123942394 -5.14877757605761 -0.70607599749975
 1  2.68599470387039 -5.03241734863486 -1.66433181508151
 1  4.76980221322132 -0.93931509490949  1.27232696879688
 1  5.45145949134913  0.70368640734073  1.68400620372037
 1  4.40725125072507  4.77713813021302  0.14848347654765
 1  5.46964005570557  3.66512404560456  0.53703949354936
 1  4.48468550115011  4.15282075417542  1.66447216411641
 1  1.80715149374937  4.93529270667067  0.71191226642664
 1 -7.56669823812381 -2.57965304880488  0.73875514511451
 1 -6.94611867576758 -4.25367174927493  1.71800764116412
 1 -6.71767746474648 -3.66083349944995 -0.25145305690569
 1 -6.87522204450445 -0.77308821732173  0.56437443854385
 1 -4.70431940404040  1.35410023092309 -0.24401166246625
 1 -6.41878025542554  1.22754182918292 -0.91511582768277
 1 -4.81630094209421  0.24201436363636 -1.44398116291629
 1 -3.43383536903690  6.46441084618462  0.80688756525653
 1 -4.57050848904891  4.61964429632963  0.76844287058706
 1  0.02275313081308  6.12258282368237  1.57697753935394
 1 -1.56533264356436  6.93721717641764  1.02932228392839
 1 -0.05721655365536  6.95330761646165  0.16697765486549
 1 -3.56536444344434  6.41696932263226 -1.57577177967797
 1 -5.11582428962896  6.23996711281128 -0.79962984018402
 1 -4.47512098899890  4.83060323062306 -1.91704121212121
 1  3.40298869936994 -4.20054626712671  1.83306408880888
 1  7.90112813741374 -1.65113450245024  1.68694607760776

