%nproc=4
%Mem=2GB
# td=(NStates=1) B3LYP/SVP 

TD

0 1
 8 -4.44147565836584 -4.91667603880388  1.70570459885989
 8  2.93639766846685 -4.84752605940594  1.19321345864586
 8  7.11655796009601 -1.42610988068807  1.91209388888889
 8  3.75255031253125 -3.09202722772277 -0.02742608200820
 8  7.65247478407841 -0.55132502760276 -0.12443847654765
 8 -2.85092067816782  2.20401845264526 -0.36421798319832
 7 -0.26967396209621 -0.47268146124612 -0.56318333123312
 7  1.60319881258126  1.83144357685769 -0.40062163976398
 7 -3.35676766576658 -3.12750386338634  0.63881019961996
 7 -0.80474897059706  2.86602775217522  0.02483863806381
 6  0.67107937223722 -2.35133309170917 -1.37699999509951
 6  0.91287418971897 -0.99327655935594 -0.99154800370037
 6 -0.75605973467347 -2.56918528072807 -1.21713377607761
 6 -1.37590801280128 -1.37283759515952 -0.80361949194919
 6  3.87962642344234  1.52725589208921 -0.34774904170417
 6  2.57284939073907  0.88764058955896 -0.64624880988099
 6  2.31138638883888 -0.36972423032303 -0.93267274187419
 6  3.55280592069207  2.80045984818482  0.05680367066707
 6  1.62771417651765 -3.31001270257026 -1.99272661826183
 6 -5.52487139383938 -2.75790140504050  1.33068033233323
 6 -3.68255211451145 -1.82228720462046  0.18294422622262
 6  2.17280159225923  3.04057405160516 -0.01014339093909
 6 -5.06731942824282 -1.57239620352035  0.38531257515752
 6  5.21502676457646  0.81030594749475 -0.39801876057606
 6 -2.66154096979698 -1.03351190659066 -0.32433890769077
 6 -1.54575423752375 -3.74854460756076 -1.80183049984999
 6 -4.40509017741774 -3.81588582038204  1.25002012761276
 6  2.04720585428543 -4.39191821552155 -1.02889211601160
 6  5.46316511891189  0.00928280478048  0.95002754995500
 6  4.57423348464846  3.95756860616062  0.36688888918892
 6  1.31939061746175  4.03193774407441  0.28569028962896
 6 -6.98824347494749 -3.43257803760376  1.01073013511351
 6 -5.83902348294829 -0.62780856485649  0.09256642354235
 6 -0.11591951125113  4.00202845264526  0.22528434033403
 6 -1.04983008160816  5.08132566626663  0.55401386688669
 6 -2.33631310501050  4.56672817421742  0.35062096809681
 6  2.97517409940994 -4.03996666686669  0.12625031423142
 6 -5.52833654315432  0.52857814641464 -0.82505397019702
 6  6.80981086008601 -0.69818528812881  0.83210410861086
 6 -3.66890443334333  5.18930998949895  0.32461697239724
 6 -2.13870342194219  3.10628558955896 -0.02931870167017
 6 -0.67208779987999  6.52342801280128  0.77714676627663
 6 -4.38583814641464  5.42387834453445 -0.92359145064506
 1 -0.24330591549155  0.46585345114511 -0.03509324902490
 1  3.26571393239324 -1.00946908810881 -0.92780286768677
 1  2.34970485178518 -2.95161675827583 -2.44783133023302
 1  1.03935494169417 -3.80606471737174 -2.80691905200520
 1 -5.42947467476748 -2.50701932663266  2.16402694259426
 1  5.23924643714371  0.04095347674768 -1.11624197149715
 1  6.04207277467747  1.35387491559156 -0.56841041564156
 1 -3.05819203690369 -0.02661487118712 -0.32224262176218
 1  0.63241047164716  1.75236508040804 -0.76601404690469
 1 -1.49556429222922 -4.66136070657066 -1.23730324012401
 1 -2.60976108710871 -3.55182576897690 -2.01301943504350
 1 -0.83298847874787 -4.28369543834383 -2.72075766506651
 1 -2.42152453875388 -3.57231696239624  0.74185685088509
 1  1.26962779207921 -5.09732243054305 -0.58342373227323
 1  2.73136924132413 -5.25002910981098 -1.57942332423242
 1  4.83884911791179 -0.86972813621362  1.19504924102410
 1  5.35139948534853  0.81428746744674  1.91881968506851
 1  4.40868139373937  4.91340175657566 -0.14643601540154
 1  5.56929002070207  3.54791232443244  0.01281707130713
 1  4.70613764636464  4.24449992209221  1.57762347924792
 1  1.86839761836184  5.04139331673167  0.64289536473647
 1 -7.70210177847785 -2.63051813531353  1.12284355395540
 1 -7.08367243114311 -4.40501688378838  1.48289412981298
 1 -6.89094479147915 -3.80678809490949  0.11060314871487
 1 -6.92996751905191 -0.67406831533153  0.43787178827883
 1 -4.98668764086409  1.42985780668067 -0.36856411771177
 1 -6.60758913631363  0.94667374237424 -0.89854417051705
 1 -4.87803711571157  0.45691585378538 -1.62436920172017
 1 -3.50436242174217  6.13635804090409  0.73401027752775
 1 -4.40959239743974  4.68814114601460  0.92764879117912
 1  0.00294114961496  6.79366993239324  1.56652649424943
 1 -1.76822293259326  6.97908136283628  0.98362771447145
 1 -0.20140097209721  7.13620590629063 -0.09452849574957
 1 -4.04619252625263  6.57074470017002 -1.42599680218022
 1 -5.55505821302130  5.57567068316832 -0.77030690789079
 1 -4.32505598249825  4.62323249354936 -1.77167667566757
 1  3.70988938943894 -4.67060327282728  1.80632141454145
 1  8.10961898649865 -1.65917530653065  1.92655003800380

