%nproc=4
%Mem=2GB
# td=(NStates=1) B3LYP/SVP 

TD

0 1
 8 -4.18689019981998 -4.91332570377038  1.89010303870387
 8  2.98472250095010 -4.83493480028003  1.29660379767977
 8  6.91879818411841 -1.63562083178318  1.74110679017902
 8  3.91329638713871 -3.25302332733273  0.05942260286029
 8  7.59015855245525 -0.50171006610661 -0.10887692039204
 8 -3.05678126422642  2.31982003280328 -0.35315687708771
 7 -0.30642763746375 -0.49236342944294 -0.60894790769077
 7  1.55686417911791  1.84466489898990 -0.48699027662766
 7 -3.32397438643864 -3.12621373437344  0.67640395899590
 7 -0.80793928962896  2.92862401180118 -0.15372921872187
 6  0.66384864916492 -2.41584954335434 -1.36372866796680
 6  0.91492439473947 -1.07204443614361 -1.01213006190619
 6 -0.75639976867687 -2.55385374757476 -1.31785384808481
 6 -1.35272569456946 -1.38670898229823 -0.80993012301230
 6  3.83592205300530  1.57834100060006 -0.23765803260326
 6  2.53507561336134  0.88489031453145 -0.63845803080308
 6  2.22846809700970 -0.48448570647065 -0.96403587818782
 6  3.48374901500150  2.83808361056106  0.16455444574457
 6  1.68168957405741 -3.37168887018702 -1.99008635423542
 6 -5.49956886358636 -2.72390800570057  1.30303756805681
 6 -3.62492635193519 -1.85774074997500  0.14812074387439
 6  2.08039235133513  2.99115911011101  0.00134775817582
 6 -5.02787548384839 -1.54201316521652  0.55384942884288
 6  5.19936519841984  1.01142605950595 -0.36629558825883
 6 -2.67072188788879 -1.01976053145315 -0.45074154795480
 6 -1.46998666076608 -3.73796354945495 -1.66541685848585
 6 -4.32564223262326 -3.75082931473147  1.31954708030803
 6  2.16035716941694 -4.48449747344734 -1.02394162096210
 6  5.39512831523152 -0.10964908840884  0.79148169536954
 6  4.50863692499250  3.94529737903790  0.51726392669267
 6  1.21247992639264  4.05677022732273  0.31669338993899
 6 -6.72972762336234 -3.43513829362936  0.65501456355636
 6 -5.93873345394539 -0.57753353735374  0.24042120902090
 6 -0.19411733103310  4.00169841964196  0.31835364726473
 6 -1.10542564116412  5.13462099579958  0.54248271377138
 6 -2.30278975267527  4.67908941034103  0.32448835483548
 6  3.13247982998300 -4.11353402360236  0.15571326052605
 6 -5.64456816631663  0.61826711531153 -0.66552801760176
 6  6.73716359535954 -0.78643411301130  0.72209310751075
 6 -3.67158470137014  5.28654971347135  0.28072258295830
 6 -2.13722327392739  3.17139210021002 -0.09019478927893
 6 -0.68433902500250  6.51980765076508  1.03314236583658
 6 -4.22514207680768  5.52051800850085 -1.16226531803180
 1 -0.41443302820282  0.47200406620662 -0.16202594229423
 1  3.05256261726173 -1.13052119331933 -1.17588767616762
 1  2.42307218851885 -2.60270186678668 -2.48196474357436
 1  1.15369637583758 -3.95993010391039 -2.79252761286129
 1 -5.53592531983198 -2.38921754645465  2.44440498039804
 1  5.50354286678668  0.67551693309331 -1.29338968626863
 1  6.06987555495550  1.64339386748675 -0.32658623322332
 1 -3.06879309700970 -0.13018522822282 -0.69633003050305
 1  0.45949317991799  1.79794963886389 -0.55218266376638
 1 -1.34475921172117 -4.62075664616462 -0.91931144094409
 1 -2.49500961196120 -3.58264885128513 -2.04368250135013
 1 -1.00317549744974 -4.43356042484248 -2.47177276657666
 1 -2.37615000130013 -3.47764749544955  0.73849651485149
 1  1.42604343364336 -5.16543924222422 -0.66366175607561
 1  2.87307341174117 -5.10634474137414 -1.59721510341034
 1  4.42807804080408 -0.78041920532053  0.62941267736774
 1  5.29601394679468  0.34417045574557  1.78547635073507
 1  4.18502902850285  4.87707812421242  0.18021664986499
 1  5.71264435613561  3.84225175837584 -0.05731994239424
 1  4.40652768536854  3.89141461356136  1.63289900680068
 1  1.73467424602460  4.95636481388139  0.60029110431043
 1 -7.69885145344534 -2.77710279377938  0.72567383698370
 1 -7.13969803370337 -4.32072845494549  1.12064790519052
 1 -6.65468116511651 -3.66574399049905 -0.42166007760776
 1 -6.82736725902590 -0.75778668716872  0.81142914401440
 1 -4.64931390349035  1.29283410431043 -0.17749501080108
 1 -6.64155253265327  1.13337241224122 -0.73231754785479
 1 -5.26356566856686  0.35315547774778 -1.86933369816982
 1 -3.82062404790479  6.30393479857986  0.70619749624963
 1 -4.22090352855286  4.57148948084808  0.78950497679768
 1 -0.08114725922592  6.52450301570157  1.80649049064906
 1 -1.60940705100510  7.08710216491649  1.18470782248225
 1 -0.16089692169217  7.01080336603660  0.19643060016002
 1 -3.27934584158416  5.96070369606961 -1.93094729722972
 1 -5.26131883908391  6.14878799489949 -1.26786666386639
 1 -4.09809328622862  4.63040321062106 -1.60622013001300
 1  3.56828522902290 -4.60827704020402  2.04650543294329
 1  7.74894291889189 -2.20900028902890  1.49278666166617

