%nproc=4
%Mem=2GB
# td=(NStates=1) B3LYP/SVP 

TD

0 1
 8 -4.42189370017002 -4.86447081828183  1.85221925032503
 8  2.91986601530153 -4.76413772057206  1.06281041834183
 8  7.04115041934193 -1.47568483818382  1.89445212471247
 8  3.91039609710971 -3.11463948894889 -0.15498883828383
 8  7.31160069666967 -0.89806970207021 -0.35260129282928
 8 -3.03117870397040  2.39080713151315 -0.47779934133413
 7 -0.15243223792379 -0.57356154925493 -0.39506651955196
 7  1.54641313401340  1.84336476897690 -0.28154973257326
 7 -3.23102509150915 -3.17020813381338  0.75910222882288
 7 -0.81169966566657  2.89150029942994 -0.10482432823282
 6  0.71714397869787 -2.37522548094809 -1.33686598169817
 6  0.95689859215922 -1.08664589628963 -0.82296114501450
 6 -0.69664379307931 -2.58191655385539 -1.22025408810881
 6 -1.27116753875388 -1.45918623002300 -0.57019614961496
 6  3.81845030583058  1.58955212171217 -0.24566883368337
 6  2.55642774857486  0.91161298679868 -0.53713789878988
 6  2.29291454165417 -0.38841609950995 -0.85227470207021
 6  3.53226386648665  2.83942374457446  0.18666665696570
 6  1.58649005410541 -3.29539124042404 -2.06501384698470
 6 -5.51261016771677 -2.81458707360736  1.42084934923492
 6 -3.54688854815482 -1.88650362626263  0.32731866366637
 6  2.07509182128213  2.99860985518552  0.13958158155816
 6 -4.93402609890989 -1.65083404730473  0.49500354425443
 6  5.19935519741974  0.92723764066407 -0.28311727042704
 6 -2.61548636433643 -1.07060561596160 -0.20510698449845
 6 -1.48077773987399 -3.72217197029703 -1.88407872467247
 6 -4.38184785318532 -3.69038327012701  1.41989711531153
 6  2.16336747044704 -4.43022204590459 -1.24105333213321
 6  5.36325512791279 -0.02896101960196  0.90131267846785
 6  4.45454151545155  3.92938578787879  0.71218341864186
 6  1.23579225762576  4.10169471977198  0.39959167976798
 6 -6.81086573717372 -3.39898467826783  0.89057811991199
 6 -5.74727430803080 -0.59374515851585  0.04049121602160
 6 -0.19386730603060  4.04110236003600  0.30335214711471
 6 -1.09280437903790  5.09421695539554  0.47735620112011
 6 -2.29673914761476  4.62296379777978  0.15147105310531
 6  3.07556413841384 -4.00006267646765 -0.10672298309831
 6 -5.50658436793679  0.48258354695470 -0.83041450625063
 6  6.72610248924892 -0.82295776537654  0.66290718891889
 6 -3.72470001290129  5.26606766526653  0.20236474717472
 6 -2.14343389498950  3.20807576857686 -0.17627339713971
 6 -0.72780337143714  6.53136880688069  0.76167521912191
 6 -4.25216477907791  5.51790774747475 -1.19014810631063
 1 -0.20373195809581  0.21988885468547  0.15794605490549
 1  3.19714707570757 -1.09370751195119 -1.05503559095910
 1  2.42766264756476 -2.70049164576458 -2.75097164426443
 1  1.32409341554155 -3.80345445634563 -3.02193055315532
 1 -5.71164289158916 -2.29394801950195  2.40943148304831
 1  4.96409892239224  0.12507188858886 -1.02098244554455
 1  5.95434400180018  1.52829235733573 -0.35451902650265
 1 -2.54187040474047 -0.05640785048505 -0.57610800830083
 1  0.46333356395640  1.72565240914091 -0.32423986948695
 1 -1.38789352515251 -4.68223279377938 -1.39833934373437
 1 -2.53480359135914 -3.27299788618862 -1.96116424952495
 1 -1.26974215411541 -4.16919398819882 -2.82830842014201
 1 -2.22717510381038 -3.39082881358136  0.94401706690669
 1  1.18766959625963 -5.01260395869587 -0.65989137903790
 1  2.80353645804581 -5.16752085898590 -1.76668205010501
 1  4.56031126412641 -0.72963412681268  1.12580231633163
 1  5.34196854225423  0.50232627132713  1.74961276437644
 1  4.34749527512751  4.81474189058906  0.12666129432943
 1  5.50954404610461  3.77382491569157  0.50851664126413
 1  4.16877390999100  4.33264873697370  1.78546426332633
 1  1.60240101870187  5.12733191059106  0.81246232143214
 1 -7.63223479177918 -2.66434151765177  0.94052532213221
 1 -7.01977604150415 -4.36846322842284  1.56675251565157
 1 -6.59050474747475 -3.64564198029803 -0.22942085368537
 1 -6.96059058135814 -0.78912982148215  0.07921592269227
 1 -4.90693966606661  1.22579740064006 -0.44491175247525
 1 -6.37660603800380  1.01493056805681 -1.36854117021702
 1 -4.92584189618962  0.29513967616762 -1.77821458625863
 1 -3.62496448194820  6.26708111321132  0.84683155965597
 1 -4.74401583978398  4.53781611351135  0.72388841514151
 1  0.14441529702970  6.60683124852485  1.39145898749875
 1 -1.58277438773877  7.15003845854585  0.69199855155516
 1 -0.34218505050505  7.08653093879388 -0.17183622652265
 1 -3.63663157015702  6.17940556625663 -1.81137534003400
 1 -5.27623033023302  6.06014913101310 -1.07071694889489
 1 -4.33100657755776  4.46918708900890 -1.72748225622562
 1  3.57960636113611 -4.45138135063506  1.75577636003600
 1  7.76429445404540 -2.27260664966497  1.78678606160616

