%nproc=4
%Mem=2GB
# td=(NStates=1) B3LYP/SVP 

TD

0 1
 8 -4.17620913171317 -4.83644801600160  1.81571559996000
 8  3.22455648434843 -5.06287759455946  1.00232436973697
 8  6.98475477977798 -1.57828509820982  1.75707838733873
 8  3.68839389688969 -3.11815984098410 -0.15186852625263
 8  7.61941147774778 -0.38180807590759  0.06893086038604
 8 -2.95643122922292  2.30366841764176 -0.44148570997100
 7 -0.25591258595860 -0.43018721182118 -0.57326433933393
 7  1.54739323202320  1.84998543104310 -0.40947252485249
 7 -3.30290227922792 -2.98051916491649  0.70362668126813
 7 -0.76704520022002  2.82257340674067  0.03754990919092
 6  0.65389765406541 -2.33836179457946 -1.27289958505851
 6  0.91634453675368 -1.02921015271527 -0.90966981588159
 6 -0.83073720242024 -2.51097946014601 -1.23880594329433
 6 -1.31784220622062 -1.37520783218322 -0.68744787478748
 6  3.75024348514851  1.43306647314731 -0.25647991479148
 6  2.47412951875188  0.87352917841784 -0.62103628862886
 6  2.19484473467347 -0.41033829172917 -1.01847132173217
 6  3.57408804890489  2.79374917711771  0.18839682998300
 6  1.65010641574157 -3.26398810011001 -1.91742908850885
 6 -5.50192909960996 -2.76673228812881  1.38162542684268
 6 -3.57089094839484 -1.74037901380138  0.31230716251625
 6  2.19064337643764  2.97331732593259  0.09175679907991
 6 -5.03081577787779 -1.54959392329233  0.50351439533953
 6  5.01451671357136  0.76026094299430 -0.43034199289929
 6 -2.61916673237324 -0.91649020442044 -0.30215668946895
 6 -1.56473613571357 -3.72108186128613 -1.83647396419642
 6 -4.36272594099410 -3.71271550335033  1.37399252485249
 6  2.05307644134413 -4.54142316601660 -1.04793402020202
 6  5.36425522792279  0.00081195769577  0.85432797999800
 6  4.61526758805881  3.75783863316332  0.55017721802180
 6  1.30329900830083  4.12006655695570  0.37176889748975
 6 -6.89230388098810 -3.46011079087909  0.93727278937894
 6 -5.76028560916092 -0.51334711871187  0.14678184508451
 6 -0.20200812011201  4.00886913671367  0.36769858175818
 6 -1.05494059265927  5.06238377207721  0.50273873937394
 6 -2.35659513321332  4.61938343974397  0.22102800880088
 6  3.10787736973697 -4.19334200440044 -0.01340365116512
 6 -5.41884559405941  0.60611590019002 -0.81348281308131
 6  6.77434731373137 -0.66941241084108  0.85112601080108
 6 -3.73673121602160  5.11243230173017  0.16139064976498
 6 -2.11922147374737  3.12621758275828 -0.15510127992799
 6 -0.76414700580058  6.49995566556656  0.93589264086409
 6 -4.33028259085909  5.36290224692469 -1.33074216571657
 1 -0.43188477337734  0.34204106990699 -0.24186392609261
 1  3.09526688768877 -0.98860700190019 -1.23749383678368
 1  2.31031091239124 -2.82673427002700 -2.22471901900190
 1  1.15843684988499 -3.60110422132213 -2.75770413051305
 1 -5.62319404670467 -2.20489911461146  2.35524606450645
 1  5.11643415591559  0.23557293869387 -1.29990033733373
 1  5.74604317171717  1.54974450255025 -0.50721429602960
 1 -2.93864008170817  0.04924271457146 -0.53622401990199
 1  0.41190842144214  2.06178602250225 -0.62180962646265
 1 -1.78865360116012 -4.40963553405341 -0.99203871367137
 1 -2.68610872187219 -3.33027361376138 -2.05698383148315
 1 -1.12075725562556 -4.20962803160316 -2.74932052135214
 1 -2.41679406570657 -3.61303103380338  0.47091975717572
 1  1.29735056435644 -5.08857155545555 -0.66572196209621
 1  2.67915401980198 -5.18912301920192 -2.03427880978098
 1  4.65060029302930 -0.97575873927393  1.03254299039904
 1  4.96414075947595  0.58072411111111  1.73494129722972
 1  4.43854438003800  4.92964338073807  0.21338996719672
 1  5.63024611631163  3.56001353455345  0.44328011761176
 1  4.47280431303130  3.98830430253025  1.60434615151515
 1  1.82800357895790  5.13285246264627  0.57317839303930
 1 -7.56946851515151 -2.76878196169617  1.04272554215422
 1 -7.05063912781278 -4.38494487658766  1.61633747414742
 1 -6.76075177217722 -3.91854927102710 -0.00695860746075
 1 -6.97750227252725 -0.66710761926193  0.28108610971097
 1 -4.90457943004300  1.39153397429743 -0.17739500080008
 1 -6.39856823422342  0.95245432043204 -1.37662197829783
 1 -4.62189150115011  0.30917107930793 -1.23677044184418
 1 -3.79716170167017  6.16363076817682  0.49396627312731
 1 -4.65667710591059  4.61416374827483  0.60777680398040
 1 -0.53908305280528  6.74073463886389  1.96126596819682
 1 -1.57063317361736  7.34888834353435  0.92279163086309
 1  0.08023719171917  6.85707799349935  0.38447940504050
 1 -3.74045195219522  6.06700432613261 -1.88891309380938
 1 -5.26827953515351  5.92401551765177 -1.33131300850085
 1 -4.48102157905791  4.39063923422342 -2.00246975497550
 1  3.88223662416242 -4.64181039353935  1.53571435383538
 1  7.91203922852285 -1.83848323732373  1.53546092909291

