%nproc=4
%Mem=2GB
# td=(NStates=1) B3LYP/SVP 

TD

0 1
 8 -4.40257176797680 -4.99483385458546  1.67459148754875
 8  2.96417044574457 -4.79870117691769  1.05297943524352
 8  7.01969827412741 -1.50158742844284  1.83217589708971
 8  3.79551460896090 -3.05085311031103 -0.04674801420142
 8  7.56287582418242 -0.79793968906891 -0.20968700140014
 8 -2.99366495259526  2.39412746354635 -0.35821738313831
 7 -0.31046804150415 -0.56029022212221 -0.50558757165717
 7  1.55568406110611  1.89447988048805 -0.23812539013901
 7 -3.31219320832083 -3.11796290929093  0.93588990759076
 7 -0.82840133583358  2.87551870127013  0.03930008420842
 6  0.71374363866387 -2.30120807920792 -1.36352864796480
 6  0.87102000430043 -1.01862909460946 -1.00843969286929
 6 -0.71446557525753 -2.64716307850785 -1.16433849654965
 6 -1.31446186818682 -1.51103141454145 -0.54365349534954
 6  3.84325278607861  1.51891505800580 -0.38659292609261
 6  2.48229033483348  0.89385121062106 -0.47416160116012
 6  2.23782903310331 -0.40831808970897 -0.92086156075608
 6  3.61916255635564  2.90082988518852  0.02534052435244
 6  1.72140354545455 -3.25702740404040 -2.06741408700870
 6 -5.70454936163616 -2.92688830373037  1.29819708400840
 6 -3.62983684298430 -1.95829080498050  0.31298723052305
 6  2.13079739183918  3.12950294449445  0.13507113051305
 6 -5.12526522282228 -1.68493745764576  0.45087913181318
 6  5.17318258015802  0.94720963786379 -0.43398235693569
 6 -2.67185200090009 -1.15875443084308 -0.25343181698170
 6 -1.42524218631863 -3.78433818691869 -1.73622393919392
 6 -4.44799446784678 -3.87982221402140  1.38917404300430
 6  2.03948508220822 -4.45746477017702 -1.05020424722472
 6  5.37261606400640 -0.03454157765777  0.85076762396240
 6  4.42709877117712  4.06146899619962  0.43252545284528
 6  1.26524520292029  4.10857540784078  0.36088780938094
 6 -6.92961761236124 -3.52374715451545  0.79246830893089
 6 -5.82008158875888 -0.66020180418042 -0.04679751285128
 6 -0.10253817311731  4.01537978777878  0.37448926082608
 6 -1.06782188078808  5.19921745544554  0.48520698619862
 6 -2.28782825652565  4.70988248964897  0.26849275527553
 6  3.07355393739374 -3.95861853205321  0.03313100230023
 6 -5.48507221672167  0.50713600220022 -0.79805126992699
 6  6.80431031003100 -0.83388885848585  0.70657155535554
 6 -3.66470401330133  5.41860291879188  0.28636314701470
 6 -2.12303185478548  3.18622358335834 -0.01967773757376
 6 -0.63457404850485  6.58704437443744  0.75815486708671
 6 -4.06606616921692  5.47190314701470 -1.20990008150815
 1 -0.50344192909291  0.42759962576258  0.10553081338134
 1  2.97207456845685 -1.28214635583558 -1.18038812621262
 1  2.76022590389039 -3.00852244884488 -2.53117966506651
 1  1.01140214641464 -3.86058016891689 -2.85976433653365
 1 -5.66677840514051 -2.53626225092509  2.32178271817182
 1  5.26722923542354  0.35986536793679 -1.28896924422442
 1  6.10199876727673  1.80532006010601 -0.29674324892489
 1 -2.88256447414742  0.09872766306631 -0.53306370387039
 1  0.34638186878688  1.76571641554155 -0.29319676517652
 1 -1.43913864966497 -4.59049361986199 -0.98491800160016
 1 -2.35934604560456 -3.70692127852785 -2.07153528662866
 1 -0.89052423232323 -4.06986405520552 -2.66547213651365
 1 -2.39476186248625 -3.41033076377638  1.11310397559756
 1  1.21530235953595 -4.97476017431743 -0.55911130103010
 1  2.47337344174417 -5.12975708260826 -1.64624000590059
 1  4.58029326232623 -0.96866803020302  0.69613935003500
 1  5.41796614201420  0.51188722742274  1.87337514061406
 1  4.26310683628363  5.06224664106411 -0.13889526132613
 1  5.61533462516252  3.81108864206421  0.22335812541254
 1  4.32324935753575  4.36743221532153  1.48291400830083
 1  1.74569534813481  5.14191336873687  0.68241931713171
 1 -7.76300786908691 -3.00107519101910  0.78280955055506
 1 -6.96802086598660 -4.38137451955195  1.27978381878188
 1 -6.85998169516952 -3.82003942004200 -0.24487239883988
 1 -6.91986650895090 -0.59259016751675  0.36039404050405
 1 -4.81277024912491  1.19594441534153 -0.16655391669167
 1 -6.32816119351935  0.89102817781778 -1.42178649474947
 1 -4.40292960496050  0.13252341454145 -1.33668043284328
 1 -3.54271625712571  6.39870427552755  0.81017789428943
 1 -4.47686912511251  4.72230456235624  0.77954398069807
 1 -0.10614975947595  6.68579914531453  1.79823966556656
 1 -1.35908201850185  7.45703915861586  0.78394774647465
 1 -0.01829266126613  6.88446073177318 -0.13436247914791
 1 -3.20305821282128  6.13227085278528 -1.79488369086909
 1 -4.99074178137814  5.92136525262526 -1.35793567076708
 1 -4.09906338323832  4.67154732503250 -1.90042955095510
 1  3.82744114461446 -4.54319053155316  1.56921770417042
 1  7.97153517811781 -2.02976236523652  1.86960434343434

