%nproc=4
%Mem=2GB
# td=(NStates=1) B3LYP/SVP 

TD

0 1
 8 -4.17704921572157 -4.84426879807981  2.02221625002500
 8  2.95346937563756 -4.80155146194619  1.13630776807681
 8  6.84804110841084 -1.58316558625863  1.89213189268927
 8  3.92477753525353 -3.23634165916592 -0.21589492889289
 8  7.37338687528753 -0.79172906800680 -0.17081311401140
 8 -3.10167575367537  2.43490154095410 -0.36657821922192
 7 -0.18086508120812 -0.54281847494749 -0.48683569646965
 7  1.57983647634763  1.79183961646165 -0.44331590919092
 7 -3.23474546354635 -3.10263137613761  0.83443976257626
 7 -0.83359185488549  2.95231638103810 -0.10247409320932
 6  0.70486275057506 -2.40575853425343 -1.35223751885188
 6  0.96933983628363 -1.09528676037604 -0.87234608350835
 6 -0.65470959965997 -2.56806516871687 -1.32656471917192
 6 -1.20459088108811 -1.47650796219622 -0.67146627662766
 6  3.78200666146615  1.58341150765076 -0.31518578537854
 6  2.54553665946595  0.80327215271527 -0.64263844884488
 6  2.22796804700470 -0.51298855675568 -0.88146762136214
 6  3.48884952505251  2.86560636283628  0.04322231253125
 6  1.64919632473247 -3.23397509880988 -2.05868321392139
 6 -5.54156306300630 -2.85522113701370  1.33844110841084
 6 -3.54868872817282 -1.90491546744674  0.18392432423242
 6  2.07102141424142  3.10283027722772 -0.00398277487749
 6 -4.94251694799480 -1.64285324922492  0.53562760666067
 6  5.02695795769577  0.86584150105010 -0.27940689938994
 6 -2.55675049074907 -1.07617617301730 -0.40519699349935
 6 -1.43873353545355 -3.73172292539254 -1.93406372317232
 6 -4.28999866826683 -3.73084731653165  1.42441756735674
 6  2.01696282998300 -4.45597462116212 -1.03580280708071
 6  5.40800960336034  0.03258513501350  0.89214176137614
 6  4.43764982628263  3.84187703700370  0.64362656295630
 6  1.21304998339834  4.14502905320532  0.38171989258926
 6 -6.89821447204720 -3.54328910871087  0.84888395049505
 6 -5.77141672227223 -0.68273405740574  0.04064123102310
 6 -0.16984490379038  3.99735798559856  0.23941575347535
 6 -1.11212631123112  5.16450398409841  0.47295576107611
 6 -2.39718919261926  4.70836233763376  0.25711161716172
 6  3.04045062706271 -4.06200887108711 -0.08700101090109
 6 -5.43425713521352  0.40945623422342 -0.81705317011701
 6  6.72087196619662 -0.72609807940794  0.79991088928893
 6 -3.70632817571757  5.41230228872887  0.29286379707971
 6 -2.22784233583358  3.28008296929693 -0.05070083988399
 6 -0.59410000110011  6.49224489448945  0.95529458105811
 6 -4.18142770537054  5.70551650835083 -1.23633272477248
 1 -0.35035662056206  0.35403226902690 -0.09504924462446
 1  3.13226058705871 -1.21662980418042 -0.96637672507251
 1  2.60047992929293 -2.72152374897490 -2.34409095619562
 1  1.40499150535054 -3.68452256315631 -3.15965432553255
 1 -5.95763749104910 -2.57423604830483  2.31480202010201
 1  5.17462997549755  0.07353673507351 -1.17301764906491
 1  5.96992555995600  1.60121965006501 -0.54486806140614
 1 -2.62409862756276  0.09393718401840 -0.32985338283828
 1  0.61706893749375  1.87967781168117 -0.71033847934793
 1 -1.55782051785178 -4.46552112261226 -1.18738824862486
 1 -2.40878098909891 -3.52108269466947 -2.23428156125613
 1 -0.99061424132413 -4.26960402920292 -2.79574516381638
 1 -2.30358274457446 -3.30800053075308  1.17722038723872
 1  1.16215704500450 -4.79872257055706 -0.44427981788179
 1  2.47013311771177 -5.38574268116812 -1.59684506640664
 1  4.66659189218922 -0.67335849924993  0.87709744584458
 1  5.25637998339834  0.67964400310031  1.86569437253725
 1  4.31331185678568  4.95601601800180  0.51856048424843
 1  5.47446053775378  3.71509904310431  0.11725751535153
 1  4.72490952355235  3.65022049414942  1.97463318021802
 1  1.75602638123812  5.07525670307031  0.71299237443744
 1 -7.58427999629963 -2.75238032153215  0.70665193479348
 1 -7.13181724562456 -4.29689607170717  1.57674351475147
 1 -6.42307800480048 -4.10333774987499  0.04534662306231
 1 -6.69551407370737 -0.74169507800780  0.58623662476248
 1 -4.89174814691469  1.28792361326133 -0.46981424272427
 1 -6.47459583698370  0.89011808680868 -1.14449876597660
 1 -4.95508482048205  0.32219238143814 -1.63973073787379
 1 -3.70041202670267  6.54820922602260  0.70999787628763
 1 -4.57944938313831  4.98185051695170  0.79938596489649
 1 -0.10493963846385  6.44265483088309  1.95720556215622
 1 -1.47989409970997  7.16691014571457  1.11679103080308
 1 -0.02035286728673  6.96211849754976  0.19266022312231
 1 -3.48858676567657  6.43272089778978 -1.72723692619262
 1 -5.27830053725372  5.96500961706171 -1.36760663786379
 1 -4.13315679257926  4.67296746704671 -1.66719622762276
 1  3.64663306380638 -4.46820303280328  1.69096987938794
 1  7.72392041664166 -1.87486687568757  1.71613899689969

