%nproc=4
%Mem=2GB
# td=(NStates=1) B3LYP/SVP 

TD

0 1
 8 -4.19845135593559 -4.84039841104110  1.94613864226423
 8  3.09569359805981 -4.96542784958496  1.09695383268327
 8  6.92989929422942 -1.61759902960296  1.78938161766177
 8  3.60786584408441 -3.04317234223422 -0.04865820522052
 8  7.59296883348335 -0.60188008310831 -0.08803483618362
 8 -2.93982956905691  2.39934798559856 -0.47491905330533
 7 -0.23695068976898 -0.47818201130113 -0.70352736563656
 7  1.54142263496350  1.89796022852285 -0.49950152775278
 7 -3.22382437143714 -3.06533764676468  0.81375769436944
 7 -0.82681117681768  2.99227037643764 -0.22298614441444
 6  0.65912817711771 -2.40285824422442 -1.45345764086409
 6  0.89712261456146 -1.04913214491449 -1.05735458435844
 6 -0.73608773747375 -2.57359572177218 -1.27958002070207
 6 -1.30603102510251 -1.43092340374037 -0.79184831483148
 6  3.75721418221822  1.49980314681468 -0.16341060786079
 6  2.49003110891089  0.84071589708971 -0.53516770177018
 6  2.25119036923692 -0.41109836773677 -0.94811428602860
 6  3.52140278037804  2.79659946214621  0.29360735103510
 6  1.68068947404740 -3.38470017131713 -2.01579892549255
 6 -5.44161306800680 -2.79562517741774  1.36414367866787
 6 -3.65079893919392 -1.82860783668367  0.22723865566557
 6  2.07453176527653  3.02072206640664  0.06848447184718
 6 -5.04177687398740 -1.61713067696770  0.50408445234523
 6  5.11831709360936  0.80675559245925 -0.29903886258626
 6 -2.65647046274627 -1.08437699309931 -0.39653612741274
 6 -1.49750941304130 -3.84100385348535 -1.69169948674867
 6 -4.19616928532853 -3.74081831363136  1.37230235583558
 6  2.11071220492049 -4.50451947564757 -1.02165139193919
 6  5.37251605400540 -0.18882700620062  0.86065861306131
 6  4.41134719601960  4.00255310461046  0.57806000630063
 6  1.30176885528553  4.10233478377838  0.39691141174117
 6 -6.73450810141014 -3.52960774057406  0.84445350745075
 6 -5.79845942654265 -0.56931271527153  0.10276744364436
 6 -0.11874979427943  4.12565081488149  0.12775458735874
 6 -1.11593669226923  5.11249878357836  0.50155862136214
 6 -2.37064653835384  4.65385688708871  0.26273217921792
 6  3.04428101010101 -4.09761243144314  0.09861755095510
 6 -5.50192390189019  0.58788407700770 -0.70404186898690
 6  6.75922580158016 -0.79429489908991  0.81257215541554
 6 -3.63874141704170  5.26782784128413  0.36220073077308
 6 -2.11364091569157  3.17796275727573 -0.22069783958396
 6 -0.71260185128513  6.51819748974898  0.87274632623262
 6 -4.35794535713571  5.58218417511751 -1.00083917541754
 1 -0.51086267116712  0.42352921872187 -0.30208994869487
 1  3.23828118911891 -0.96326446764677 -1.21036112351235
 1  2.67614749604961 -3.01154275087509 -2.25756230333033
 1  1.22905391159116 -3.85436954785479 -2.65941430153015
 1 -5.43650537783778 -2.53958258295830  2.21935247514751
 1  5.08074058655866  0.33359274067407 -1.24358470577058
 1  5.88333690109011  1.52374190229023 -0.41807538213821
 1 -2.97613383108311 -0.00798300800080 -0.60936133363336
 1  0.68624585518552  1.89448929282928 -0.97167461296130
 1 -1.42958769456946 -4.77262183268327 -1.19399890969097
 1 -2.67935804680468 -3.47969855625563 -1.98754688778878
 1 -0.98671385128513 -4.07103417221722 -2.53635922522252
 1 -2.31938432473247 -3.57467719841984  0.68817148234824
 1  1.13200402970297 -5.04825752405241 -0.67383277317732
 1  2.44812091649165 -5.16632073897390 -1.91248663056306
 1  4.90953618661866 -1.06092725612561  0.82495223132313
 1  5.24759910531053  0.16410244894489  1.87652545564557
 1  4.22620314591459  4.80153056945695 -0.11351272307231
 1  5.41605469716972  3.82725025822582  0.47170295989599
 1  4.26255328792879  4.42763823592359  1.55182089898990
 1  1.51901267986799  5.07193637103710  0.95733680888089
 1 -7.73438500680068 -2.97943302680268  0.83625489508951
 1 -6.79232329622962 -4.50647702980298  1.13263910431043
 1 -6.65118081508151 -3.63636105220522 -0.36578449004900
 1 -6.81740626292629 -0.52912382088209  0.47357535863586
 1 -5.02540151225123  1.43560838173817 -0.21086834813481
 1 -6.39764814221422  1.10497957295730 -1.03255757185719
 1 -4.81067037903790  0.38964912711271 -1.51496826162616
 1 -3.61116310181018  6.29728413351335  0.98717559405941
 1 -4.21251268946895  4.65952828472847  0.96148217451745
 1  0.18784964046405  6.62690325572557  1.62401224282428
 1 -1.55370148044804  7.20507396209621  1.09572892459246
 1 -0.14153498549855  7.06021830753075 -0.01592063496350
 1 -3.97050495749575  6.46369399509951 -1.67695189768977
 1 -5.40334304150415  5.93117623372337 -1.15169504670467
 1 -4.27051052795280  4.58924909520952 -1.66553606160616
 1  3.72458085858586 -4.47898411091109  1.75008579097910
 1  7.85128315291529 -1.91453084208421  1.67245462846285

