%nproc=4
%Mem=2GB
# td=(NStates=1) B3LYP/SVP 

TD

0 1
 8 -4.24436594739474 -4.84233860506051  1.95634966336634
 8  2.99098312701270 -4.77745905270527  1.09234337163716
 8  7.03748005230523 -1.47934520422042  1.95253793329333
 8  3.84239929742974 -3.09865789078908 -0.10988432783278
 8  7.43085262186219 -0.62470236533653 -0.08019405210521
 8 -2.94517010311031  2.44587263806381 -0.40620218161816
 7 -0.25418241294129 -0.52599679277928 -0.62259927282728
 7  1.49353784648465  1.81325175767577 -0.24083566116612
 7 -3.34940692969297 -3.20207132013201  0.57410372897290
 7 -0.80084858055806  2.97867901730173 -0.16343018881888
 6  0.65658792309231 -2.40813877227723 -1.46838913401340
 6  0.94834773707371 -1.04958218991899 -0.94149299819982
 6 -0.69049317801780 -2.67954631683168 -1.30664272697270
 6 -1.31924234623462 -1.44140445184518 -0.80042917291729
 6  3.75304376517652  1.45091825832583 -0.30797506430643
 6  2.51481358715872  0.82576440194019 -0.49920410541054
 6  2.23987923812381 -0.41182844074407 -0.92515198979898
 6  3.53102374247425  2.80746054825483  0.08177616791679
 6  1.57916932203220 -3.41005270657066 -2.07652499809981
 6 -5.47364627132713 -2.81350696559656  1.31313857815782
 6 -3.59248310761076 -1.89148412431243  0.25216114791479
 6  2.12537684978498  3.04708470267027  0.03692131553155
 6 -5.00994369066907 -1.57094605850585  0.44543858775878
 6  5.09936519841984  0.74414933183318 -0.30766972567257
 6 -2.62089690539054 -1.02320087548755 -0.32246872067207
 6 -1.53787344944494 -3.88034778787879 -1.84044436123612
 6 -4.27708737713771 -3.78538277007701  1.42989811541154
 6  2.19471060476048 -4.57762678637864 -1.15194442124212
 6  5.37446624902490 -0.01923004650465  0.94244679187919
 6  4.61630769206921  3.80415326462646  0.44485668596860
 6  1.31454013241324  4.14255880618062  0.26741846244624
 6 -6.81842649324932 -3.46210098989899  0.84746380848085
 6 -5.84996457705771 -0.58825460946095  0.10106727362736
 6 -0.16082400170017  4.15133338313831  0.24356616851685
 6 -1.08305340394039  5.20555808950895  0.49223768926893
 6 -2.36025549924992  4.70903240464046  0.28782468846885
 6  3.05861244324432 -3.96084875507551 -0.00726303710371
 6 -5.51049475897590  0.56422171077108 -0.66466793159316
 6  6.75724560356036 -0.70877634723472  0.85807670587059
 6 -3.70868841174117  5.33852491099110  0.36780129082908
 6 -2.13152270387039  3.28290325132513 -0.15573134293429
 6 -0.67200779187919  6.55446111611161  0.85222427402740
 6 -4.37213677627763  5.45158111481148 -1.07885697719772
 1 -0.40528211311131  0.32929979577958 -0.04176391609161
 1  3.07868522952295 -1.13931207240724 -0.89438952635264
 1  2.46868674997500 -2.98647024362436 -2.55792233933393
 1  1.31715272147215 -3.62019613051305 -2.91208956905691
 1 -5.80130185748575 -2.29693831853185  2.36925746564657
 1  4.98334084658466  0.14532391379138 -1.17995834313431
 1  5.89867843524352  1.41829135723572 -0.39216279087909
 1 -3.12596881458146 -0.01505371507151 -0.44818521602160
 1  0.55408263886389  1.93895373927393 -0.46160360586059
 1 -1.75549028482848 -4.70011458195820 -0.91997150695070
 1 -2.72412252325233 -3.44890547694770 -2.04879301240124
 1 -0.98429360926093 -4.62163923272327 -2.51968755805581
 1 -2.45904829112911 -3.57760749144915  0.61137380258026
 1  1.35049587888789 -5.07119981828183 -0.65151054095410
 1  2.87055315971597 -5.23047715461546 -1.73546892879288
 1  4.61442667566757 -0.87139830323032  1.27402713881388
 1  5.18189253465346  0.55101113981398  1.83255105820582
 1  4.42931345694569  4.77367778417842 -0.19591096289629
 1  5.68503159485949  3.36376390959096  0.34682047164717
 1  4.63255028762876  3.90997646974697  1.56079179607961
 1  1.88254903350335  4.94828400580058  0.57632870807081
 1 -7.78210977927793 -3.00968605210521  1.03130440004000
 1 -6.72138620252025 -4.46994337643764  1.52806864726473
 1 -6.67168286528653 -3.60859827592759 -0.21402931453145
 1 -6.90570509280928 -0.70905181368137  0.37494549564956
 1 -4.79469844194419  1.20777559845985 -0.05243250455046
 1 -6.40541891929193  1.19687876287629 -0.84053836993699
 1 -4.83139245124512  0.24682484468447 -1.59354611941194
 1 -3.52306429192919  6.27864226932693  0.65630250675068
 1 -4.45980741894190  4.66558889078908  1.13875990229023
 1 -0.05725486998700  6.39436000140014  1.86294613621362
 1 -1.54194030433043  7.35335879057906  1.18335768746875
 1 -0.08300913291329  6.97941022672267  0.22305326242624
 1 -3.88124603160316  6.39676730243024 -1.65053925642564
 1 -5.58311101830183  5.59257237333733 -0.97905778297830
 1 -3.93951742864286  4.49558972927293 -1.59986949494949
 1  3.64462286278628 -4.46498271077108  1.76104688708871
 1  7.99005703030303 -1.79606899589959  1.78047543054305

