%nproc=4
%Mem=2GB
# td=(NStates=1) B3LYP/SVP 

TD

0 1
 8 -4.16105761656166 -4.87253162436244  1.82410643904390
 8  2.78764279297930 -4.60124143094309  1.04134827212721
 8  6.88428473277328 -1.59375664536454  1.92878555805581
 8  3.90082514001400 -3.02938096309631 -0.22488582798280
 8  7.72709224582458 -0.58589848494849  0.09356332363236
 8 -3.00994658075808  2.27074512531253 -0.33518507990799
 7 -0.28349534423442 -0.40272446554655 -0.65738275117512
 7  1.59809830253025  1.76580701320132 -0.30141171877188
 7 -3.27404939393939 -3.11205231823182  0.75880219881988
 7 -0.79477797349735  2.80710185958596 -0.11374522032203
 6  0.54968723302330 -2.32780073847385 -1.43932622772277
 6  0.94046694899490 -1.05842307400740 -0.94952380128013
 6 -0.81105523422342 -2.53638200040004 -1.24084614731473
 6 -1.26757717971797 -1.36346665806581 -0.82668179817982
 6  3.83657211801180  1.49525269176918 -0.37744201100110
 6  2.59432153795380  0.86019784528453 -0.56352053705371
 6  2.25328057825783 -0.42172943084308 -0.94483395799580
 6  3.60736137623762  2.83182298449845  0.09961795209521
 6  1.65528693379338 -3.23908560986099 -2.03472081768177
 6 -5.50836974367437 -2.84019963486349  1.35614287858786
 6 -3.60365422472247 -1.86228120402040  0.28922485428543
 6  2.15753006510651  2.96581657585759  0.05727335073507
 6 -5.02611530783078 -1.63590255415542  0.57265130903090
 6  5.16698196009601  0.76212112901290 -0.24386334503450
 6 -2.69222403810381 -1.06939549494949 -0.39818629242924
 6 -1.63521318341834 -3.78766851995200 -1.67125744254425
 6 -4.33092276067607 -3.83594782658266  1.33244837043704
 6  2.13107424112411 -4.39544856855686 -1.16970619741974
 6  5.27952675507551 -0.17132525602560  0.91650419761976
 6  4.46607266856686  3.94363721302130  0.43046524682468
 6  1.21890056845685  4.08436298659866  0.36416813741374
 6 -6.79641429202920 -3.59511429122912  0.82664172627263
 6 -5.85753533413341 -0.57717350135014  0.32672983988399
 6 -0.15463338263826  4.00846909670967  0.22032384428443
 6 -1.03889898849885  5.10657819151915  0.40744921042104
 6 -2.30979045274527  4.51767326872687  0.13219912591259
 6  3.09362594459446 -3.91887455765576 -0.05024733553355
 6 -5.55546925642564  0.61284657325733 -0.62476394119412
 6  6.71896177517752 -0.79874534413441  0.85097599579958
 6 -3.61587913081308  5.25546660516052  0.28724323502350
 6 -2.13207275887589  3.13331829282928 -0.14427019681968
 6 -0.69740033113311  6.48930460046005  0.74676372797280
 6 -4.19879944254425  5.66451240794079 -1.11453054455446
 1 -0.29939152405241  0.41243810961096  0.05259551985199
 1  3.00062742374237 -1.37790593179318 -0.97817790519052
 1  2.62436231753175 -2.64512610921092 -2.44306085318532
 1  1.28315932213221 -3.50938504940494 -3.05606396649665
 1 -5.78899062636264 -2.60495912061206  2.26898743864386
 1  5.24895740824082  0.22523190459046 -1.25237558485849
 1  5.86129469686969  1.55066459455946 -0.20282385698570
 1 -2.86956317401740  0.00837862816282 -0.42867326482648
 1  0.58181541214121  1.91945178907891 -0.41981942744274
 1 -1.50976571237124 -4.46112068256826 -0.88493800360036
 1 -2.70912102310231 -3.63220380678068 -1.96720485358536
 1 -1.07806298619862 -4.15076214501450 -2.72119770907091
 1 -2.39426181248125 -3.60605033573357  0.85004766996700
 1  1.18811964126413 -5.00847354565456 -0.82222761266127
 1  3.06702280668067 -5.00849495639564 -1.83243862576258
 1  4.59575480848085 -1.03160432383238  0.77323705980598
 1  5.24225857125713  0.40466650535054  1.82784058715872
 1  4.35535606120612  4.90995141154115 -0.30462183398340
 1  5.54687777947795  3.77515504870487  0.63733952355236
 1  4.13029006160616  4.38037350945095  1.52990870777078
 1  1.57648842744274  5.02852202960296  0.78926000120012
 1 -7.59417098539854 -2.72504758825883  0.90131140074007
 1 -7.06198026192619 -4.49458584068407  1.64618045844584
 1 -6.81241693869387 -3.88136555265527 -0.21935984758476
 1 -6.97264178647865 -0.48885979447945  0.64281228232823
 1 -4.69275824792479  1.30571539243924 -0.14035129642964
 1 -6.45108348574857  1.05492456745675 -1.11348566466647
 1 -4.96483579557956  0.26764692689269 -1.57685445024502
 1 -3.65070705620562  6.10769517461746  0.87019389588959
 1 -4.37492893109311  4.52194452635264  0.76225225152515
 1 -0.37892703720372  6.23441400680068  1.81867170877088
 1 -1.68918502880288  7.08249170387039  0.67912726442644
 1  0.06344551255126  6.98213049874987  0.00821177827783
 1 -3.71325923292329  6.33564118981898 -1.73102730523052
 1 -5.20987369456946  6.04684780088009 -1.12464234143414
 1 -4.39536301320132  4.76258642894289 -1.79713922192219
 1  3.35903430393039 -4.38822503500350  1.78731951435144
 1  7.86783480808081 -1.67686707570757  1.88377576057606

