%nproc=4
%Mem=2GB
# td=(NStates=1) B3LYP/SVP 

TD

0 1
 8 -4.15018652945295 -4.75086945814582  1.81219524792479
 8  2.77282131083108 -4.89131043784378  1.13180731803180
 8  7.12898920322032 -1.69297656735674  1.74098677817782
 8  3.60203526102610 -3.11519954495450  0.08865552615262
 8  7.83432296889689 -0.27729762486249  0.08929289658966
 8 -2.95243082918292  2.20387843864386 -0.16910847224722
 7 -0.34263125782578 -0.37842203530353 -0.60201721462146
 7  1.59394788748875  1.77324775727573 -0.32443402100210
 7 -3.22052404140414 -3.04364547754775  0.72382870147015
 7 -0.76398489418942  2.83099424882488  0.01323747794779
 6  0.55281754605461 -2.27485544394439 -1.34228652375238
 6  0.86996989928993 -0.98625585728573 -0.99433828272827
 6 -0.86137026572657 -2.48480684288429 -1.23195525822582
 6 -1.34963538553855 -1.35468577997800 -0.76285541554155
 6  3.85219368016802  1.50048321482148 -0.33353762056206
 6  2.57377948374837  0.90061188668867 -0.52419660466047
 6  2.22631788198820 -0.43398065596560 -0.81937141174117
 6  3.56956759685969  2.76676647884788  0.02878086838684
 6  1.54502590769077 -3.30501220252025 -1.98625597119712
 6 -5.52528143484348 -2.78040365526553  1.22350961526153
 6 -3.56712057135714 -1.74652962886289  0.35297122892289
 6  2.11517582968297  3.00648064226423 -0.00422279887989
 6 -4.98317101340134 -1.53313227712771  0.49261330523052
 6  5.17994325622562  0.79926484338434 -0.40823978267827
 6 -2.65127994369437 -0.93069162456246 -0.38567504130413
 6 -1.53423308540854 -3.71208096119612 -1.81646196299630
 6 -4.30901056945695 -3.74692892469247  1.30002512811281
 6  2.04426556025603 -4.46168519221922 -1.01229045584558
 6  5.50164896729673 -0.22929105260526  0.78167071427143
 6  4.55113117441744  3.87922077137714  0.35197739803980
 6  1.31594027242724  4.04755930623062  0.31103282388239
 6 -6.67424207480748 -3.52513729352935  0.70259932203220
 6 -5.84669425002500 -0.55494127812781 -0.00138297139714
 6 -0.18181610091009  3.92896114591459  0.25486729862986
 6 -1.13320841944194  5.13707124082408  0.44313277877788
 6 -2.32782225592559  4.58718021942194  0.24911081708171
 6  2.89616619861986 -4.06396906710671  0.07104479367937
 6 -5.48996270577058  0.63218850745075 -0.76531799659966
 6  6.94602448144814 -0.63655912551255  0.81368226642664
 6 -3.74097164006401  5.13865492399240  0.28277278797880
 6 -2.13305285688569  3.12250721172117 -0.02402817261726
 6 -0.83204379547955  6.45663133313331  0.76291534313431
 6 -4.38884844744474  5.28952490919092 -1.04076316781678
 1 -0.59210079497950  0.39283614941494 -0.09326906660666
 1  3.15163252425243 -0.87633577477748 -0.94818490589059
 1  2.51090097139714 -2.83935553215322 -2.38448499559956
 1  1.14012501870187 -3.81483559445945 -2.89933829392939
 1 -5.76299802710271 -2.51157978267827  2.26018655855586
 1  5.18173068556856  0.21419080048005 -1.33115346264626
 1  6.02242080948095  1.48694822292229 -0.44549812441244
 1 -2.83519973767377  0.20552834313431 -0.13930432793279
 1  0.58443567416742  1.76780662456246 -0.44091153665367
 1 -1.50375511131113 -4.46471104160416 -1.04190370017002
 1 -2.70390050105010 -3.61833241964196 -1.83708184128413
 1 -1.10405558545855 -3.88092516131613 -2.82417800710071
 1 -2.15493788008801 -3.29999973067307  0.75039770497050
 1  1.10106093539354 -5.14691739003900 -0.86627201710171
 1  2.63457956235624 -5.28301240814081 -1.59445482738274
 1  4.87173240624062 -1.15087625102510  0.82259199529953
 1  5.30581492689269  0.16456249494949  1.82904070717072
 1  4.40888141374137  4.82690310671067 -0.19210058185819
 1  5.63922701440144  3.73145067826783  0.21687747734773
 1  4.41002803540354  4.25013048514852  1.35535125202520
 1  1.82071284988499  5.01262043944395  0.73956503170317
 1 -7.52881444974497 -2.83744882838284  0.98422969256926
 1 -7.13767783168317 -4.36412279437944  1.23309915031503
 1 -6.48317401440144 -3.69843725982598 -0.32680059165917
 1 -6.84341886418642 -0.91066197469747  0.34953295439544
 1 -4.96115508760876  1.28539336023602 -0.21199846114612
 1 -6.50528890629063  1.03559263426343 -1.15835015111511
 1 -4.70811012301230  0.28909907210721 -1.45331209600960
 1 -3.84785677117712  6.28183258835884  0.80745762226223
 1 -4.22604404260426  4.36641897379738  0.61298732503250
 1  0.11349220472047  6.53417398279828  1.55990583218322
 1 -1.70889700000000  7.18907236193619  1.15307465916592
 1 -0.29325015701570  6.94581686738674 -0.16000504340434
 1 -3.92912081908191  6.01418904460446 -1.70332453495350
 1 -5.45204791199120  5.75708882498250 -0.86968684588459
 1 -4.40182365926593  4.41584175447545 -1.82035154315432
 1  3.33370177067707 -4.69030524302430  1.94811559395939
 1  8.05867389198920 -1.89491888088809  1.53266064906491

