%nproc=4
%Mem=2GB
# td=(NStates=1) B3LYP/SVP 

TD

0 1
 8 -4.27976948774877 -4.91627599879988  1.77082111051105
 8  3.23790781948195 -4.90959226602660  1.07621175847585
 8  6.81563786808681 -1.46115338503850  2.04705738523852
 8  3.77076213371337 -3.05100312531253 -0.19549288868887
 8  7.55044458105811 -0.66310620572057  0.00129409670967
 8 -2.94353994009401  2.43834188498850 -0.65213677507751
 7 -0.23461045574557 -0.52415660876088 -0.55939295219522
 7  1.55421391409141  1.80979141164116 -0.40865244284428
 7 -3.27008899789979 -3.14542565556556  0.75345166376638
 7 -0.72800129582958  2.93443459285929 -0.16827067286729
 6  0.67010927522752 -2.39065702410241 -1.38012030713071
 6  0.94746764906491 -1.06767399909991 -1.04003285218522
 6 -0.74006813551355 -2.66646500870087 -1.21998406110611
 6 -1.25571599359936 -1.44359467086709 -0.62664179417942
 6  3.75030349114911  1.53659682618262 -0.30750501730173
 6  2.53669577537754  0.93396522202220 -0.67917210221022
 6  2.27834308450845 -0.49158641654165 -0.98871834643464
 6  3.47165780588059  2.88539834203420  0.05114310461046
 6  1.58708011311131 -3.39927162846285 -1.97595494109411
 6 -5.49994890159016 -2.77002261716172  1.38648591289129
 6 -3.59638349764976 -1.86412138803880  0.19138507030703
 6  2.05992030413041  3.05063505770577  0.00319794319432
 6 -5.06784948124812 -1.64911387528753  0.42947699159916
 6  5.18483374527453  0.75888080498050 -0.44528348704871
 6 -2.68195301100110 -0.96580513591359 -0.37542401620162
 6 -1.53738340044004 -3.71982173527353 -1.78607892469247
 6 -4.32368203660366 -3.77656188798880  1.31459658525853
 6  2.05553668736874 -4.44898392209221 -1.03940316711671
 6  5.34897369976998 -0.09386751025103  0.74753730093009
 6  4.54282034333433  3.88526137543754  0.50460266056606
 6  1.33463214161416  4.21086563686369  0.39445116571657
 6 -6.89457410801080 -3.43588836863686  1.12250131223122
 6 -5.81768134873487 -0.57891367536754  0.03385055195520
 6 -0.11325924522452  4.07150540034003  0.31998381028103
 6 -1.08577367596760  5.08298583228323  0.50887935343534
 6 -2.34549402310231  4.58255975737574  0.26436234223422
 6  3.00685726772677 -4.00222289248925  0.06303399259926
 6 -5.46463017251725  0.55656094469447 -0.79238070287029
 6  6.74370424942494 -0.68910438003800  0.92636353455346
 6 -3.62485002790279  5.25738679717972  0.41541605230523
 6 -2.00585013661366  3.18484344534453 -0.24016978677868
 6 -0.81606219731973  6.39328499849985  0.97874692629263
 6 -4.27898746134613  5.53557951465146 -1.03358244974497
 1 -0.44936652155216  0.44226109190919 -0.14102384208421
 1  3.13896125712571 -1.08807694889489 -1.08404849224922
 1  2.40948082938294 -2.82629422602260 -2.45383193029303
 1  1.00341134733473 -3.72768687958796 -2.94550291039104
 1 -5.42605433273327 -2.42089071377138  2.43245378527853
 1  5.29630214271427  0.23416279767977 -1.40450079737974
 1  6.16592515991599  1.39278880698070 -0.73392696729673
 1 -2.94661087878788 -0.04490670037004 -0.58892929042904
 1  0.62400963156316  1.79017886178618 -0.88602604810481
 1 -1.75205994179418 -4.59469403990399 -1.03812332213221
 1 -2.58699881088109 -3.34705529192919 -2.18463659675968
 1 -0.91461664156416 -4.22425949474947 -2.68355394469447
 1 -2.29918230453045 -3.47796752745275  0.83092575777578
 1  1.01314214351435 -4.82004470277028 -0.49564495439544
 1  2.45740184458446 -5.55515962286229 -1.57355273717372
 1  4.68846407940794 -0.90765192859286  0.71557129322932
 1  5.07032137753775  0.53492953165317  1.84518232133213
 1  4.35689621522152  4.76189660606061  0.06667529572957
 1  5.57653074477448  3.73737127032703  0.39507529712971
 1  4.30985801840184  4.25777124922492  1.52302801970197
 1  1.68122890149015  5.08888806620662  0.86752782798280
 1 -7.52117368566857 -2.72128721222122  1.44767603720372
 1 -7.08719278317832 -4.18481486358636  1.76578241864186
 1 -6.95112080908091 -3.81581899799980  0.13156524492449
 1 -6.88606312861286 -0.45193610211021  0.49589759085909
 1 -4.94961393349335  1.24147896879688 -0.07663492479248
 1 -6.31431980938094  0.95612468746875 -1.08724304040404
 1 -4.83032234423442  0.33724388658866 -1.63415017981798
 1 -3.55284727022702  6.34794920002000  0.93615049154916
 1 -4.24366580478048  4.52805513741374  0.93337936423642
 1 -0.61743088758876  6.47552811821182  1.99268911051105
 1 -1.69647575787579  7.09288274297430  1.16368572027203
 1 -0.20358119011901  6.96973925962596  0.26267722482248
 1 -3.65600350735073  6.18557618331833 -1.67423162566257
 1 -5.16945965316532  5.97247036313631 -0.76683656085609
 1 -4.48869234613461  4.46310648094809 -1.50622013001300
 1  3.87852625312531 -4.41970818331833  1.67371815421542
 1  7.77211523612361 -1.78528791779178  1.84721210421042

