%nproc=4
%Mem=2GB
# td=(NStates=1) B3LYP/SVP 

TD

0 1
 8 -4.21035254605461 -4.86794116531653  2.02889691809181
 8  3.08169219791979 -4.88599990679068  0.91108524582458
 8  7.13453975827583 -1.57486475617562  1.90099277877788
 8  3.71481653915392 -3.03310133513351  0.06525318591859
 8  7.47803734033403 -0.78394828992899 -0.22399843254325
 8 -3.00997658375838  2.42251030183018 -0.50979254065407
 7 -0.37747474217422 -0.56037023012301 -0.51223823672367
 7  1.50376886958696  1.83964439693969 -0.20683226082608
 7 -3.26510849984999 -3.16858797179718  0.70915723432343
 7 -0.77433592929293  2.91495264466447 -0.10487433323332
 6  0.68817108140814 -2.35521347974797 -1.41745404050405
 6  0.85936883918392 -1.02142937463746 -0.93064191309131
 6 -0.74422855155516 -2.64296265846585 -1.26007807050705
 6 -1.37734815681568 -1.45254556595660 -0.63797292729273
 6  3.74992345314531  1.48876204270427 -0.22109637643764
 6  2.48341044684468  0.92975480098010 -0.46532071707171
 6  2.14789003920392 -0.42310956885689 -0.84784425902590
 6  3.45366600670067  2.90020982318232  0.16617460776078
 6  1.70115152025203 -3.27177887918792 -2.11396874247425
 6 -5.46448535523552 -2.80190580548055  1.41457872217222
 6 -3.64414827412741 -1.93698867476748  0.19798573037304
 6  2.14230854295430  2.99997999219922  0.20342796619662
 6 -5.00629332563256 -1.64462342624262  0.61188523242324
 6  5.11175643754375  0.78724364126413 -0.29623858255826
 6 -2.67574238993899 -1.06146470187019 -0.35588206200620
 6 -1.34530419251925 -3.76441619471947 -1.86756707350735
 6 -4.24688435683568 -3.80032426422642  1.48730385598560
 6  2.11168230193019 -4.40291931563156 -1.24616384318432
 6  5.55913471587159 -0.00994911841184  0.89262180938094
 6  4.67416347764776  3.80395324462446  0.51943414371437
 6  1.16571524992499  4.11538608890889  0.45440716131613
 6 -6.74629928052805 -3.41322610241024  0.84359342144214
 6 -5.83173275387539 -0.71376716071607  0.01581874877488
 6 -0.20294821412141  4.08736698649865  0.25995780768077
 6 -1.12543764236424  5.11891942564256  0.43829229472947
 6 -2.36074554825483  4.69745124652465  0.08563446944694
 6  2.94661124312431 -4.02053472367237 -0.00168247904790
 6 -5.49221293079308  0.60800608920892 -0.67906937173717
 6  6.81388126712671 -0.80049551915192  0.81714261246125
 6 -3.71548909180918  5.37376843534353  0.11141565226523
 6 -2.17828738033803  3.32442740374037 -0.18143391319132
 6 -0.76062665376538  6.51160683068307  0.93175222682268
 6 -4.25767533013301  5.58877483418342 -1.31184027552755
 1 -0.57668925382538  0.26253311911191 -0.14043378307831
 1  2.98508586958696 -0.98064620582058 -1.24902498989899
 1  2.59255913721372 -2.63709530613061 -2.47117366446645
 1  1.19780078627863 -3.93156726762676 -2.69323768386839
 1 -5.42021374867487 -2.42058068276828  2.41921246114611
 1  5.21364387688769  0.24538391979198 -1.21984233153315
 1  5.96834540194019  1.34442397049705 -0.62765634023402
 1 -2.93825004270427  0.16332412271227 -0.35957635513551
 1  0.40947817841784  1.90505034893489 -0.41375882138214
 1 -1.59270400620062 -4.67362193269327 -1.14878438823882
 1 -2.29992010301030 -3.53874446084609 -2.27132526562656
 1 -0.91274645454545 -4.24069113791379 -2.68472406170617
 1 -2.24890727702770 -3.45020475117512  0.69151181638164
 1  1.22013284258426 -4.91082378067807 -0.72711810171017
 1  2.68472457685769 -5.11934604150415 -1.83419880178018
 1  4.56012124512451 -0.73104426782678  0.89978971507151
 1  5.51356570197020  0.71338737743774  1.66461426452645
 1  4.63870439603960  4.78640905730573  0.08257688588859
 1  5.65908900060006  3.39099663286329  0.20667645724573
 1  4.39315634823482  4.01699717181718  1.66668238513851
 1  1.66626740534053  5.04034321172117  0.64786586178618
 1 -7.70765233353335 -2.97786286978698  1.06795806540654
 1 -6.92137620152015 -4.49661604370437  1.30186602700270
 1 -6.67440313731373 -3.61252866896690 -0.20234814641464
 1 -6.84441896419642 -0.74363527202720  0.51986998809881
 1 -4.65054402650265  1.11808662956296 -0.04173143444344
 1 -6.55652402980298  0.98039711471147 -1.06937125322532
 1 -5.02650196219622  0.42187234943494 -1.78047481228123
 1 -3.65683766926693  6.45919032413241  0.65603247974797
 1 -4.49475091329133  4.72975530743074  0.70544657095710
 1 -0.16427557205721  6.46232679807981  1.73223306490649
 1 -1.57094320462046  7.24104755945595  0.91515086678668
 1  0.18602777077708  6.87089937563756  0.46661761886189
 1 -3.57366527352735  6.45500312601260 -1.62443664616462
 1 -5.17185989318932  6.26719983608361 -1.14727460466047
 1 -4.19490296719672  4.69913008330833 -1.71590109810981
 1  3.53677207770777 -4.63538975147515  1.62070285268527
 1  7.84837286188619 -2.24318370737074  1.45036241924192

