%nproc=4
%Mem=2GB
# td=(NStates=1) B3LYP/SVP 

TD

0 1
 8 -4.17655916671667 -4.94889926112611  1.81276530493049
 8  2.79736376507651 -4.85768707550755  1.31203534083408
 8  6.84471077537754 -1.50261753145315  2.01732441194119
 8  3.69131418891889 -3.17562558755876  0.15228188878888
 8  7.33772330893089 -0.76590648574857 -0.07220325302530
 8 -2.97541312741274  2.35079313011301 -0.36392795419542
 7 -0.19313630833083 -0.45270946404640 -0.76545355825583
 7  1.50880937363736  1.91506193869387 -0.41231280888089
 7 -3.20288227722772 -3.16881799479948  0.55656197479748
 7 -0.76818531423142  2.92850399979998 -0.27547139293929
 6  0.63819608390839 -2.35324328272827 -1.53835613071307
 6  0.97048995129513 -1.02446967866787 -1.07047589648965
 6 -0.75404953365337 -2.58483684588459 -1.36505856855686
 6 -1.29618004000400 -1.33334364576458 -0.76796592659266
 6  3.76311477227723  1.62364553105311 -0.28508277507751
 6  2.51269337513751  0.95995782128213 -0.68374255925593
 6  2.24088933913391 -0.34416167406741 -1.06637611221122
 6  3.61172181228123  2.82932273447345 -0.06270828052805
 6  1.71565297039704 -3.30857255855586 -2.04010135573557
 6 -5.40114902160216 -2.74661027592759  1.42421968626863
 6 -3.44785864516452 -1.91171614751475  0.13627955975598
 6  2.06768108020802  3.05872586678668 -0.03902627922792
 6 -4.86221891819182 -1.61847081098110  0.53001704560456
 6  5.09048431033103  0.79472438933893 -0.40280923962396
 6 -2.57624243994399 -0.92502105750575 -0.36058253205321
 6 -1.49008867096710 -3.73120287338734 -1.85582589938994
 6 -4.24076374477448 -3.80096432823282  1.34579970557056
 6  2.08610974467447 -4.49094811851185 -1.04214344114411
 6  5.35700450285028 -0.02397052055206  0.90540308750875
 6  4.60137619891989  3.87951080038004  0.55117731803180
 6  1.33024170257026  4.20718526882688  0.22149386998700
 6 -6.77099174977498 -3.42608738853885  0.99675873797380
 6 -5.76151573217322 -0.59082486648665  0.23206037293729
 6 -0.11527944724472  4.02021027082708  0.19171098299830
 6 -1.01037613621362  5.07920545424543  0.58478694419442
 6 -2.27031650535053  4.63567506890689  0.30955686168617
 6  2.89493607560756 -4.12166483668367  0.07969565876588
 6 -5.53585729522952  0.56517180578058 -0.76947841264126
 6  6.66688656765677 -0.78048351795180  0.89916081428143
 6 -3.77735527842784  5.07159821832183  0.44284879557956
 6 -2.12233178477848  3.16858181918192 -0.16906267606761
 6 -0.72768335943594  6.52975864586459  0.82155120672067
 6 -4.38946850945095  5.38242419911991 -0.84668375987599
 1 -0.37854943984398  0.45449231503150 -0.20964070377038
 1  3.20903826482648 -1.03971211241124 -1.19033912131213
 1  2.68873875517552 -2.61206280288029 -2.51065761286129
 1  1.15921692789279 -3.82858696959696 -2.92422078217822
 1 -5.52154388168817 -2.40627925262526  2.36053659355936
 1  5.04960747324732  0.16656603800380 -1.27564791209121
 1  6.11140970837084  1.36318584668467 -0.47980155475548
 1 -2.86873309100910  0.22403019331933 -0.38594899239924
 1  0.50808803940394  1.89656950085008 -0.51367881338134
 1 -1.72822755855586 -4.38767333783378 -0.97923743354335
 1 -2.43265337633763 -3.43914450085009 -2.40693882698270
 1 -0.85482066196620 -4.23884095289529 -2.56984257355736
 1 -2.32123450975098 -3.60794052475247  0.59432209740974
 1  1.22749357865787 -4.83553625192519 -0.81088647854785
 1  2.68173427782778 -5.26963107000700 -1.66480186208621
 1  4.33269850285028 -0.59379054245425  1.28171790789079
 1  5.51078542394239  0.68674471317132  1.85632343544354
 1  4.51904242984298  4.93918433483348  0.04363299149915
 1  5.60502359405941  3.52288982218222  0.51050684028403
 1  4.31125815841584  3.96709218131813  1.73564928182818
 1  1.78056883548355  5.12075125252525  0.35917699289929
 1 -7.55607717601760 -2.89627471097110  1.31066233583358
 1 -6.78752281618162 -4.38674505660566  1.47972381278128
 1 -6.75129082608261 -3.40836825292529 -0.11269918151815
 1 -6.67588211051105 -0.84496540504050  0.55530353145315
 1 -4.84696366846685  1.32136695759576 -0.17544480578058
 1 -6.46061443884388  1.06856593159316 -1.03493780988099
 1 -4.63733304530453  0.28218838103810 -1.50441720652065
 1 -3.68215020052005  6.00125453055306  1.03415029152915
 1 -4.23904534273427  4.12354468636864  0.89474550085008
 1 -0.00842998749875  6.74289485488549  1.79796963856386
 1 -1.64835094539454  7.14730818551855  1.19152850455046
 1 -0.19308014001400  7.11133341904190  0.09435039213921
 1 -3.73537144414441  6.21066869256926 -1.58391259375938
 1 -5.47781048824883  5.90755387148715 -0.87988786598660
 1 -4.34664814171417  4.45583575387539 -1.54669417741774
 1  3.44626302680268 -4.25519173167317  1.77584836723672
 1  7.70824884948495 -2.11964135313531  1.92072945594559

