%nproc=4
%Mem=2GB
# td=(NStates=1) B3LYP/SVP 

TD

0 1
 8 -4.10614212501250 -4.83104747594759  1.86147017541754
 8  2.84525855455546 -4.63213452025203  1.17415155245525
 8  6.75991229552955 -1.68725599529953  1.89791247074707
 8  3.79001405890589 -3.05228325332533 -0.12994633403340
 8  7.32280181678168 -0.78941883698370 -0.13156918961896
 8 -3.03702928902890  2.28767681848185 -0.41952351375138
 7 -0.23317031173117 -0.48433262636264 -0.56728374127413
 7  1.60638913161316  1.89202963546355 -0.46036761436144
 7 -3.23151514051405 -3.07175828882888  0.80686700530053
 7 -0.76264476017602  2.92560370977098 -0.08662250805081
 6  0.71552381668167 -2.35167312571257 -1.41384367946795
 6  1.05076797909791 -1.04635186688669 -0.90564941384138
 6 -0.68537266596660 -2.50796915911591 -1.22304436713671
 6 -1.26283670567057 -1.30552086348635 -0.72452158215822
 6  3.85509397019702  1.55074824132413 -0.35974024082408
 6  2.55728783458346  0.92258408390839 -0.61030521552155
 6  2.35832108230823 -0.39892715061506 -0.90434990959096
 6  3.58927956805681  2.88639844204420  0.13966195649565
 6  1.56927833293329 -3.34139584088409 -2.03831117671767
 6 -5.39284819151915 -2.79135475037504  1.39878714301430
 6 -3.50508436773677 -1.80776575247525  0.22390832263226
 6  2.09664397649765  3.03215320952095  0.02937056045605
 6 -4.95571826812681 -1.60345930983098  0.54756880078008
 6  5.17877313921392  0.80332524942494 -0.34352331103110
 6 -2.57706252195219 -0.95446400180018 -0.37583405720572
 6 -1.37172683478348 -3.74894464756476 -1.93346366316632
 6 -4.21234090249025 -3.67604183598360  1.38691381698170
 6  2.03331446514651 -4.51174019771977 -1.07710693749375
 6  5.22353115551555 -0.15068319181918  0.88159070627063
 6  4.57107316861686  3.87877072637264  0.57897009730973
 6  1.24474315271527  4.07922247254725  0.40671239183918
 6 -6.66953160376038 -3.40920570037004  1.10792985508551
 6 -5.73452303290329 -0.65587137113711 -0.08205103820382
 6 -0.18635655495550  4.07503575337534  0.32392420432043
 6 -1.11375647424742  5.07867540124012  0.42220068556856
 6 -2.37644711841184  4.58468997039704  0.26199210521052
 6  2.97750433243324 -3.94960763096310  0.03406109530953
 6 -5.50435414491449  0.53612890149015 -0.91898336313631
 6  6.57568744774477 -0.89865533513351  0.76617751595160
 6 -3.76263380628063  5.15202626112611  0.28835334603460
 6 -2.15000455205521  3.11641660266027 -0.08265403520352
 6 -0.69104969606961  6.47324299429943  0.90038909050905
 6 -4.39281884448445  5.43364932163216 -1.15141423292329
 1 -0.39766135103510  0.50486735253525 -0.22602234193419
 1  3.10665802680268 -1.00973911511151 -1.13196328372837
 1  2.50481036233623 -2.94308590519052 -2.43496004310431
 1  1.10454146034603 -3.83848795969597 -2.79957831793179
 1 -5.28534026132613 -2.40123874857486  2.42849338923892
 1  5.30637314981498  0.41867124852485 -1.47586793409341
 1  6.03431199859986  1.61528105620562 -0.21762533713371
 1 -3.00741695939594 -0.00132234193419 -0.88185858335834
 1  0.57094432503250  1.83722356625663 -0.64387183268327
 1 -1.50996573237324 -4.52971754225423 -1.30332984278428
 1 -2.43560367136714 -3.32706329272927 -2.13267140024002
 1 -0.81022620252025 -3.90131720052005 -2.92314790409041
 1 -2.30356274257426 -3.56973670437044  0.62866553175318
 1  1.27265809510951 -5.18115081338134 -0.68742413231323
 1  2.50207631203120 -5.30913502040204 -1.68185356725673
 1  4.38709394239424 -0.79019018241824  0.85201493759376
 1  4.95103944934493  0.30869690839084  1.92092989608961
 1  4.47139766536654  4.91371178757876 -0.00149152095210
 1  5.53638673037304  3.46069360256026  0.58092388198820
 1  4.38343537613761  4.04207968006801  1.68030374727473
 1  1.55524630323032  5.01768094549455  1.23634470967097
 1 -7.57614918321832 -2.73835891939194  1.31062233183318
 1 -6.68004206810681 -4.38855523762376  1.68051389178918
 1 -6.70579627662766 -3.57473488958896  0.02872496089609
 1 -6.78923344564457 -0.72103301180118  0.27939594069407
 1 -5.06333530563056  1.33445826672667 -0.23883114441444
 1 -6.49387776517652  1.03068214321432 -1.27409172527253
 1 -4.66055536753675  0.45970613281328 -1.65543230803080
 1 -3.65270725622562  6.10013441854186  0.99105598209821
 1 -4.46350778897890  4.54363669556956  0.86574260056006
 1 -0.15219436393639  6.35555612101210  2.01972181378138
 1 -1.44819092939294  7.20358381308131  1.38049740144014
 1 -0.27727855985599  6.97524981068107  0.01680263736374
 1 -3.84258216521652  6.17293491919192 -1.76586078857886
 1 -5.43177588478848  5.85960907700770 -1.17255713291329
 1 -4.30433391029103  4.43720389068907 -1.62871237923792
 1  3.58330673117312 -4.53354956745675  1.77859864226423
 1  7.65799382398240 -1.86216560556056  1.80728811181118

