%nproc=4
%Mem=2GB
# td=(NStates=1) B3LYP/SVP 

TD

0 1
 8 -4.29885139593959 -4.93326769796980  1.74372840124012
 8  3.33250727942794 -4.87728903570357  0.98921305860586
 8  6.91428773307331 -1.54044131383138  1.94976765626563
 8  3.59646470397040 -2.99156718171817 -0.10449378877888
 8  7.55635517211721 -0.53690358545855  0.04974894219422
 8 -2.99220480658066  2.35145319611961 -0.48731029242924
 7 -0.21592858755876 -0.47967216031603 -0.56921393429343
 7  1.56402489518952  1.89220965346535 -0.52736431403140
 7 -3.33027501650165 -3.12031314431443  0.68004432303230
 7 -0.78684718041804  2.86355750515051 -0.19092293809381
 6  0.69115137943794 -2.35009296769677 -1.36250854595460
 6  0.98855175747575 -1.04547177887789 -0.91035988488849
 6 -0.70989511821182 -2.50355871807181 -1.34027609030903
 6 -1.28227864986499 -1.37879819121912 -0.80548967896790
 6  3.80728918971897  1.58011117761776 -0.38071233803380
 6  2.57936004180418  0.89035086058606 -0.70758494349435
 6  2.26317156735674 -0.49694695259526 -0.87994746934693
 6  3.57291793189319  2.81864166636664  0.04560255055506
 6  1.51071247634763 -3.43551525282528 -2.02911025662566
 6 -5.56811571827183 -2.77579319421942  1.33608087238724
 6 -3.58593245254525 -1.82861783768377  0.20106603840384
 6  2.23098741084108  3.01162115631563 -0.08414079067907
 6 -5.04895759205921 -1.65710467436744  0.54880892479248
 6  5.13339860176018  0.86494141104110 -0.26565552425243
 6 -2.65941075677568 -0.99973852925293 -0.27631410521052
 6 -1.56735639773977 -3.72168192129213 -1.79792010881088
 6 -4.31692136053605 -3.78191242304230  1.33772889848985
 6  1.98580971467147 -4.48995801950195 -0.97689691649165
 6  5.31291009340934 -0.10967909140914  0.98225077227723
 6  4.56347240854085  3.80937378667867  0.49503170347035
 6  1.22130080848085  4.06498104840484  0.20839255985599
 6 -6.84703935453545 -3.44088886868687  1.05363442554255
 6 -5.80109969056906 -0.65718150215021  0.15303247014701
 6 -0.07990590989099  4.00003825362536  0.16969878177818
 6 -1.07131222982298  5.16994452815282  0.52783124862486
 6 -2.29646912061206  4.65420692209221  0.24030993699370
 6  3.04572115411541 -4.03396606680668 -0.00356266706671
 6 -5.40776448594860  0.62639792839284 -0.61795326012601
 6  6.73199307830783 -0.76478194779478  0.88214911311131
 6 -3.67676521942194  5.29444050255026  0.29381389208921
 6 -2.12735228682868  3.20558551955195 -0.24340010981098
 6 -0.62432302340234  6.49517518751875  1.12260131173117
 6 -4.41676123872387  5.32273823052305 -1.08577766926693
 1 -0.35401698659866  0.43864072987299  0.04131439173917
 1  3.19128648964897 -1.16404454565457 -1.07678776617662
 1  2.27546742804280 -2.85926752335234 -2.49654620172017
 1  0.91060206640664 -4.01951606250625 -2.87884624472447
 1 -5.38549027632763 -2.45736436113611  2.52529306920692
 1  5.36126863936394  0.43294267566757 -1.11614196149615
 1  5.95510407780778  1.62537206530653 -0.16381995659566
 1 -2.97616383408341  0.02131992229223 -0.34978537603760
 1  0.57069430003000  1.95380522442244 -0.47819526502650
 1 -1.60474521032103 -4.51698626912691 -1.02642215201520
 1 -2.65163527452745 -3.59382996939694 -1.89128726182618
 1 -1.34693987388739 -4.23374044284428 -2.71727731703170
 1 -2.30438282458246 -3.46558628932893  0.81662432763276
 1  1.28848967826783 -5.08048074637464 -0.39164455435544
 1  2.48500460486049 -5.15712981988199 -1.58352373427343
 1  4.54230946394639 -0.84316547994799  0.88662839893989
 1  5.08868321372137  0.41923796249625  1.86274407750775
 1  4.43937446304631  4.80506092249225  0.14474310251025
 1  5.49296238793879  3.37340487368737  0.60425621522152
 1  4.40174720732073  4.11964743684369  1.49121483838384
 1  1.88709948854886  5.16302547994799  0.49911098629863
 1 -7.77980954925493 -2.52722780628063  1.16536780638064
 1 -7.08897296119612 -4.50127650975097  1.40319616001600
 1 -6.88480417741774 -3.65958337443744 -0.12250016161616
 1 -6.86010053235324 -0.63243415191519  0.32303030413041
 1 -4.98145711781178  1.35944076497650  0.02431517021702
 1 -6.24505288268827  0.90649972497250 -1.30344466056606
 1 -4.54245355735574  0.45093525572557 -1.33380014481448
 1 -3.59242122762276  6.40461486658666  0.51547842434243
 1 -4.32630406860686  4.78271060296030  1.07631365766577
 1 -0.15424456895689  6.42375294069407  1.97604744634463
 1 -1.51219733003300  7.11173462816282  1.12602195389539
 1 -0.11376220822082  7.09549183488349  0.17284824192419
 1 -3.97444535153515  6.07881550725073 -1.82922712521252
 1 -5.54446715391539  5.81342445854585 -0.87159703690369
 1 -4.65845932283228  4.33974414471447 -1.42155166316632
 1  4.05793419391939 -4.51829804230423  1.65019580198020
 1  7.82811083568357 -1.92078146714671  2.11404878787879

