%nproc=4
%Mem=2GB
# td=(NStates=1) B3LYP/SVP 

TD

0 1
 8 -4.33156466726673 -4.78498286948695  1.95381941034103
 8  3.14909893859386 -4.86973828062806  1.16385052235224
 8  6.97158346264626 -1.45832310201020  1.87238991849185
 8  3.90928598609861 -3.09707773277328 -0.07922126152615
 8  7.50126966356636 -0.60049994509451 -0.09268530123012
 8 -3.04944053015302  2.33600165096510 -0.30838239963996
 7 -0.29807680238024 -0.52759695279528 -0.60701771467147
 7  1.58532702540254  1.82929336183618 -0.36988856645665
 7 -3.31015300430043 -3.09016012901290  0.66703302190219
 7 -0.77559605530553  2.87866901630163 -0.09679352515252
 6  0.68461072537254 -2.39212717111711 -1.44654694979498
 6  0.92019492179218 -1.10037726942694 -0.99632848174817
 6 -0.75457958665867 -2.71126948914891 -1.34270633333333
 6 -1.24209463146315 -1.55038534993499 -0.75447457745775
 6  3.71695015581558  1.53690685718572 -0.26683094989499
 6  2.45579768556856  0.90194201970197 -0.45832001700170
 6  2.13905915611561 -0.48700595849585 -0.89530900550055
 6  3.51983262336234  2.83420322252225  0.09248723902390
 6  1.67047845294529 -3.33638533983398 -2.00903824942494
 6 -5.50127903460346 -2.70050566546655  1.30992825712571
 6 -3.56992085138514 -1.84033900980098  0.12070800260026
 6  2.09291360346035  3.00436043024302  0.00250787418742
 6 -4.95759845614561 -1.63282224612461  0.45515955985599
 6  5.08521378327833  0.84778969586959 -0.33558251695170
 6 -2.69470428612861 -1.07155571097110 -0.47779425322532
 6 -1.50572023412341 -3.86743649674967 -1.79448976577658
 6 -4.32245191359136 -3.73178741054105  1.37046217181718
 6  2.06658779247925 -4.42111113481348 -1.04161338813881
 6  5.41168997139714 -0.08324644814481  0.89813236043604
 6  4.50027608890889  3.93997684698470  0.33609580988099
 6  1.26024470287029  4.07574212451245  0.27379910051005
 6 -6.84188883948395 -3.25471025082508  0.92742180428043
 6 -5.73670325092509 -0.62205798979898 -0.06890972407241
 6 -0.14904282358236  3.94435268506851  0.26471828372837
 6 -1.02902800140014  5.18340587428743  0.59175764126413
 6 -2.34958443214321  4.68665016641664  0.34583048904890
 6  3.15901248324833 -3.99831250145014  0.06752444164416
 6 -5.56371008050805  0.55511079967997 -0.99661112591259
 6  6.71909178817882 -0.72379784938494  0.77778867706771
 6 -3.74832237513751  5.28674973347335  0.39009352005201
 6 -2.14646419801980  3.17566252725273 -0.07282305210521
 6 -0.55676626772677  6.48147381738174  0.99798885048505
 6 -4.30983054565457  5.44691064776478 -1.00744983648365
 1 -0.32660424532453  0.36643350915091 -0.10484022372237
 1  3.11089845084508 -1.10162830403040 -0.91773186058606
 1  2.50409029032903 -2.88796039263926 -2.34269081618162
 1  1.01939294549455 -4.10295440634063 -2.75062342244224
 1 -5.61942366966697 -2.21415003970397  2.46963750365037
 1  5.17222973547355  0.17808719011901 -1.19137948524852
 1  5.81272984038404  1.63742327042704 -0.42958653325333
 1 -2.88461467916792 -0.00154236393639 -0.70022041954195
 1  0.48115534613461  1.95221506540654 -0.49532697819782
 1 -1.72153688948895 -4.56669123962396 -1.06281579137914
 1 -2.45439555055505 -3.29868045444544 -2.23754188728873
 1 -0.82994817471747 -4.47811488028803 -2.63800939023902
 1 -2.55109749604961 -3.65908563926393  0.84532719791979
 1  1.34550537983798 -4.96039873817382 -0.48476386628663
 1  2.54109021342134 -5.35875998289829 -1.53569895179518
 1  4.52330756375638 -0.89513067646765  1.12125186128613
 1  5.30742508790879  0.54533057175718  1.82383018611861
 1  4.24239476507651  4.87716813321332 -0.07125849764976
 1  5.69119221092109  3.71491902510251 -0.04119833023302
 1  4.42556958955896  4.25548102020202  1.43319903680368
 1  1.42420319891989  5.04939411681168  0.59387046224622
 1 -7.54163573187319 -2.36450153365337  1.05777704730473
 1 -7.38797286118612 -3.77357373947395  1.88438427882788
 1 -6.76254195119512 -3.92845026112611 -0.09953786538654
 1 -6.78988351065107 -0.57412832133213  0.39715771687169
 1 -4.99392836493649  1.13855867676768 -0.49124638593859
 1 -6.55137351475148  0.82835191019102 -1.41150546664666
 1 -4.93457276927693  0.24767492969297 -1.86020278507851
 1 -3.63870585608561  6.31024542964296  0.88403528002800
 1 -4.21606304450445  4.62797512941294  1.13257928422842
 1  0.02344319981998  6.49483004840484  1.94118395999600
 1 -1.30860697099710  7.27461091579158  1.11972132383238
 1  0.09571873987399  6.82230451615161  0.26798775587559
 1 -3.72402030903090  6.11844947064706 -1.61324552705270
 1 -5.38120082728273  5.62695581168117 -0.66495637283728
 1 -4.29350282718272  4.45959612991299 -1.43461296929693
 1  3.84961336183618 -4.62440865336534  1.73413419581958
 1  7.83987201180118 -1.87198658765877  1.88097548054806

