%nproc=4
%Mem=2GB
# td=(NStates=1) B3LYP/SVP 

TD

0 1
 8 -4.29323083388339 -5.01863623482348  1.73276730513051
 8  3.08648267696770 -4.77076838363836  1.02502663996400
 8  6.83417972227223 -1.58471574127413  1.86096877637764
 8  3.85185024252425 -2.97394541954195 -0.13995733513351
 8  7.52818235483548 -0.52379227432743  0.08255222252225
 8 -3.02185777187719  2.46509456025603 -0.36236779817982
 7 -0.26634362906291 -0.50024421752175 -0.68889590249025
 7  1.41462995569557  1.79873030553055 -0.17654923252325
 7 -3.31802379137914 -3.19192030503050  0.73198951755176
 7 -0.78300679637964  3.00074122352235 -0.12233607940794
 6  0.62609487378738 -2.27703566196620 -1.47938023312331
 6  0.90199310161016 -1.05180241194119 -1.02511136003600
 6 -0.71779590829083 -2.65912427462746 -1.16283834653465
 6 -1.30205062706271 -1.53194350575057 -0.72591172117212
 6  3.73711217201720  1.51181434793479 -0.38124239103910
 6  2.44720682648265  0.85073689918992 -0.57109129412941
 6  2.20998624882488 -0.40815807370737 -1.05873534813481
 6  3.52685332543254  2.79844964716472  0.13077106740674
 6  1.64710611571157 -3.36092779407941 -2.02828017361736
 6 -5.52118102480248 -2.81492710761076  1.36490375467547
 6 -3.49578343764376 -1.83435841174117  0.30447637943794
 6  2.09652396449645  2.96734672887289  0.11614923832383
 6 -4.99583227952795 -1.59689865376538  0.49652369626963
 6  5.02393765566557  0.72753767066707 -0.43996295499550
 6 -2.54379919561956 -1.04977353275328 -0.29161563536354
 6 -1.44756441854185 -3.84057381048105 -1.72852316911691
 6 -4.37092676107611 -3.84611884368437  1.31849697529753
 6  2.07753888758876 -4.47162618631863 -0.96646587338734
 6  5.26130493289329 -0.12202032553255  0.77476002320232
 6  4.45321138243824  3.81127397669767  0.50618281858186
 6  1.30290896929693  4.07657220752075  0.33987570817082
 6 -6.83813846444644 -3.45751053085309  0.90843990609061
 6 -5.69147872847285 -0.63092887688769  0.10750791769177
 6 -0.10717863716372  4.01692994279428  0.30183199509951
 6 -1.08295339393939  5.16867440114011  0.28869733523352
 6 -2.31300077377738  4.70714221562156  0.32451835783578
 6  3.12305888788879 -3.94679734993499 -0.00498280908091
 6 -5.33937764726473  0.58440372897290 -0.71582304710471
 6  6.63442332133213 -0.74976044564456  0.88895979417942
 6 -3.67759530243024  5.27915897439744  0.30330484118412
 6 -2.16198575017502  3.25936089708971 -0.04168993879388
 6 -0.52311290239024  6.60967663766377  0.74311336293629
 6 -4.18282784538454  5.45724168086809 -1.08904799629963
 1 -0.50452203710371  0.39778664446445 -0.22973271297130
 1  2.92626998799880 -1.11907004820482 -1.10311039843984
 1  2.50753063436344 -2.74744634123412 -2.30209675677568
 1  1.29047005320532 -3.94625873677368 -2.80655901600160
 1 -5.71450317761776 -2.15079370407041  2.51627216711671
 1  5.14886739923992  0.14656403780378 -1.21529187648765
 1  5.70949951735174  1.55927545564557 -0.56140971557156
 1 -2.81170738843884  0.11413920422042 -0.31820221772177
 1  0.35430266086609  1.85686553045305 -0.47849529502950
 1 -1.03550828662866 -4.67121169166917 -1.18356786658666
 1 -2.61487159815982 -3.59170975737574 -1.59344747784778
 1 -1.04631981188119 -3.91377844664467 -2.73293888318832
 1 -2.25917830413041 -3.69865959665967  0.65907857305731
 1  1.43253408270827 -5.13595629392939 -0.55353074297430
 1  2.72524862926293 -5.14901900880088 -1.59815519741974
 1  4.59556478947895 -1.05122628602860  0.75954569066907
 1  5.02753709910991  0.69734577327733  1.66758456155616
 1  4.40910143574357  4.64841525792579 -0.34494586638664
 1  5.52074516621662  3.50343787698770  0.55610139973997
 1  4.19245627822782  4.35777124922492  1.43635935283528
 1  1.77101788038804  4.92165134253425  0.74896597179718
 1 -7.64431599989999 -2.82276736023602  1.08246951655165
 1 -7.09976404030403 -4.27927430953095  1.62085792619262
 1 -6.92086778377838 -4.00026744284428 -0.07150506210621
 1 -6.88106262856286 -0.71733264176418  0.30464846594659
 1 -4.90322929502950  1.54904972587259 -0.19507676897690
 1 -6.35158353575358  1.06231530653065 -1.04047836393639
 1 -4.80713002500250  0.44983514571457 -1.55118188298830
 1 -3.52868485398540  6.25009941504150  0.85162203870387
 1 -4.30305174337434  4.81560389228923  0.90114614091409
 1 -0.18310745524552  6.40803136853685  1.92224206580658
 1 -1.40838694899490  7.47869132383238  0.55476482818282
 1  0.34384355235524  6.95024731043104  0.29074003110311
 1 -3.60593850085009  6.04697232293229 -1.55302950545055
 1 -5.21659436663666  6.16125924202420 -1.07544742194219
 1 -4.28173165006501  4.67896806710671 -1.87874738273827
 1  3.82591099159916 -4.58070428292829  1.71394217661766
 1  7.71581960656066 -1.88130751975198  1.86012339533953

