%nproc=4
%Mem=2GB
# td=(NStates=1) B3LYP/SVP 

TD

0 1
 8 -4.31679319011901 -4.89711408260826  1.61578560696070
 8  2.97160118881888 -4.86399770657066  1.15449958725873
 8  6.96912321662166 -1.50867813751375  1.90398307780778
 8  3.82933799129913 -3.05080310531053  0.02021868246825
 8  7.60727026362636 -0.61578147324732 -0.06316234893489
 8 -3.10701628772877  2.37154520532053 -0.54094565596560
 7 -0.27023401810181 -0.51894608770877 -0.58994600750075
 7  1.48223671637164  1.80415084758476 -0.42312388998900
 7 -3.23948593759376 -3.10458157115712  0.73551987058706
 7 -0.79005750145014  2.84951610101010 -0.06474031983198
 6  0.63117538183818 -2.44269222762276 -1.42057435253525
 6  0.93659656195620 -1.02755998769877 -0.96082493139314
 6 -0.70391452015202 -2.59285764796480 -1.22810487318732
 6 -1.30698112011201 -1.44485479687969 -0.72005113511351
 6  3.75138359915992  1.54710787728773 -0.31299556635664
 6  2.50636274207421  0.85119694519452 -0.54701888688869
 6  2.28053330353035 -0.49084634253425 -0.87096657125713
 6  3.51695233533353  2.84160396259626  0.07076506680668
 6  1.63721512661266 -3.32800450175018 -2.05908325392539
 6 -5.44586349304930 -2.81633724862486  1.35440270457046
 6 -3.61043490279028 -1.79069404530453  0.18612454425443
 6  2.05303961606161  3.00172016621662  0.06444406780678
 6 -5.01781447774778 -1.55912487638764  0.61393543744374
 6  5.04187944984499  0.79214413131313 -0.26467542624262
 6 -2.63822863856386 -1.03404195959596 -0.32992946674668
 6 -1.50586024812481 -3.77573732683268 -1.76891720852085
 6 -4.32367203560356 -3.71927615941594  1.34131925752575
 6  2.15027616131613 -4.45076410011001 -1.15829505630563
 6  5.40091889428943 -0.12046016951695  0.79301184838484
 6  4.51039710101010  3.88573142244224  0.58036023632363
 6  1.25894457285729  4.07740229052905  0.31809352995300
 6 -6.76419106970697 -3.53513829362936  0.96409547164716
 6 -5.70485006560656 -0.50332611661166  0.34875204210421
 6 -0.15408332763276  4.03849209900990  0.21394320622062
 6 -1.11079617821782  5.07685521922192  0.52439090459046
 6 -2.32790226392639  4.55422692409241  0.14076998299830
 6  3.01758834083408 -4.00680335053505  0.00484817401740
 6 -5.44300801030103  0.64678996759676 -0.65190665546555
 6  6.77543742274228 -0.65925139473947  0.81974287248725
 6 -3.69878742164216  5.24132519101910  0.29199371007101
 6 -2.14388393999400  3.12606756775678 -0.25837160696070
 6 -0.65067565866587  6.50619628962896  0.79968902050205
 6 -4.32445200780078  5.69935589228923 -1.06377546904691
 1 -0.55078666356636  0.23887075287529 -0.07613735343534
 1  3.12521988298830 -1.16167430863086 -1.09006909430943
 1  2.57158704000400 -2.71674327092709 -2.47457400450045
 1  1.17325833203320 -3.71371548244824 -3.25500386048605
 1 -5.59308103540354 -2.68653727842784  2.37002754265427
 1  5.11409392189219  0.32952233363336 -1.16579692699270
 1  5.89444801220122  1.63665319341934 -0.39057263186319
 1 -2.86269248694870  0.09125691599160 -0.43344374187419
 1  0.52204943554355  1.65326517041704 -0.63182062756276
 1 -1.77909264506451 -4.60137470797080 -0.97077658745875
 1 -2.44573468446845 -3.27339792619262 -2.14640277337734
 1 -1.01528670857086 -4.05104217301730 -2.72065765506551
 1 -2.45734812111211 -3.69312904360436  0.62387505270527
 1  1.38345917521752 -5.22668536683668 -0.75107049694969
 1  2.70145625002500 -5.10703481038104 -1.60765614751475
 1  4.83126835983598 -0.98420958435844  0.93891362746275
 1  5.47470181558156  0.31382742144214  1.74784258735874
 1  4.29032955855586  4.90649106550655  0.22482111031103
 1  5.45342843454345  3.64826235943594  0.39746553615362
 1  4.26638367096710  3.85650112221222  1.68921463836384
 1  2.04887566616662  4.94196337373737  0.46931800700070
 1 -7.55215678397840 -2.68580366386639  1.06183745334533
 1 -6.96087015091509 -4.43289967206721  1.49965580598060
 1 -6.66106180318032 -3.81660907700770 -0.24068197979798
 1 -6.52611713401340 -0.55459636813681  0.83944194529453
 1 -4.90486945904590  1.43948876977698 -0.05406266756676
 1 -6.38928730613061  0.83749282428243 -1.14184850095009
 1 -4.82621193319332  0.37807796999700 -1.48437520232023
 1 -3.61669365486549  6.09714411951195  1.11683856035603
 1 -4.30475191339134  4.65785811771177  0.88326435273527
 1 -0.10736988148815  6.53431399679968  1.77062690429043
 1 -1.47785389568957  7.21646510121012  0.74645399709971
 1  0.18443761176118  6.89595188088809 -0.08667771067107
 1 -3.84226213321332  6.69145677137714 -1.51136533903390
 1 -5.34384709190919  6.02269538563856 -0.94329420662066
 1 -4.25985946284628  4.73932410271027 -1.85377488548855
 1  3.42623102360236 -4.42479869236924  1.90141092349235
 1  7.89427745234523 -1.91750113911391  1.77584496749675

