%nproc=4
%Mem=2GB
# td=(NStates=1) B3LYP/SVP 

TD

0 1
 8 -4.09773128392839 -4.90861523272327  1.80980500890089
 8  2.98240226892689 -4.84352565936594  1.09260339763976
 8  6.87377368166817 -1.53793106280628  2.05629830933093
 8  3.77545260276028 -3.14543256825683 -0.05093843324332
 8  7.53825336193619 -0.82527242234223 -0.01585761846185
 8 -3.16190177627763  2.47137518831883 -0.50683224462446
 7 -0.27763475817582 -0.58765295839584 -0.46326333923392
 7  1.48225671837184  1.91498193069307 -0.41436301390139
 7 -3.22756474547455 -3.14504561756176  0.68579489808981
 7 -0.85255375107511  2.92225337473747 -0.11377522332233
 6  0.68558082238224 -2.35883384178418 -1.47557985308531
 6  0.91953485578558 -0.97640487218722 -1.00842969186919
 6 -0.68289241794179 -2.57569593179318 -1.30545260796080
 6 -1.22979340134013 -1.45218552995300 -0.78641777177718
 6  3.77200566136614  1.58758192469247 -0.42589685648565
 6  2.46332843864386  0.92400422592259 -0.59001318631863
 6  2.08831408160816 -0.40827808570857 -0.92503197779778
 6  3.49798043814381  2.82542234443444  0.08929691999200
 6  1.68945035013501 -3.18586028732873 -2.14765211081108
 6 -5.43854276097610 -2.82699831473147  1.41160842514251
 6 -3.59119297859786 -1.80265524142414  0.22004793659366
 6  2.05205951805180  3.05620561476148  0.14880250365037
 6 -4.91651434773477 -1.57299626352635  0.61835587948795
 6  5.14781004290429  0.76816173307331 -0.39198815751575
 6 -2.54701951765177 -1.07082563796380 -0.34443091689169
 6 -1.41408107020702 -3.82560231333133 -1.80024034083408
 6 -4.29341901030103 -3.76009024082408  1.36404152975298
 6  2.03785491919192 -4.37812683638364 -1.09013824062406
 6  5.28907771017102 -0.17446557005701  0.73012555975598
 6  4.50886694799480  3.83594644394439  0.63891609190919
 6  1.23767244564456  4.15834038433843  0.42179389999000
 6 -6.63404805540554 -3.51917669746975  0.79725878797880
 6 -5.82032161276128 -0.53699948394839  0.37661482838284
 6 -0.17111503080308  3.95388363816382  0.24712652455246
 6 -1.06175127372737  5.11111864556456  0.44921338683868
 6 -2.34037351105111  4.68938043944395  0.28908481448145
 6  3.00272685468547 -4.00516318651865 -0.04373668446845
 6 -5.42093580308031  0.57753304190419 -0.50021148594859
 6  6.67978785778578 -0.90613608320832  0.83978487668767
 6 -3.72066960986099  5.24264532303230  0.15802031273127
 6 -2.22571212281228  3.24934989598960 -0.14602037183718
 6 -0.65796638773877  6.55750142014201  0.73627267886789
 6 -4.17058662126213  5.62189814651465 -1.23482257375738
 1 -0.46310789568957  0.42252911871187 -0.21713145284528
 1  2.93013037403740 -1.01373951515152 -0.96797688508851
 1  2.59337921922192 -2.90735233183318 -2.49982652975297
 1  1.27401840804080 -3.67659177007701 -3.04655301540154
 1 -5.57913964126413 -2.64088271297130  2.41616215611561
 1  5.30418293079308  0.19970935233523 -1.35660600790079
 1  5.89313788118812  1.56614614271427 -0.33457703230323
 1 -2.82123834153415 -0.01068327802780 -0.49446984448445
 1  0.47790502110211  1.90781062496250 -0.46511395689569
 1 -1.35589032483248 -4.59937450795079 -0.97190670047005
 1 -2.52490260126013 -3.43305389178918 -1.92081021412141
 1 -0.96442162206221 -4.29270633943394 -2.79279486878688
 1 -2.24562694899490 -3.46074580528053  0.72074473967397
 1  1.24799562886289 -4.77573027132713 -0.60331572147215
 1  2.43539964436444 -5.28332243914392 -1.62084746664666
 1  4.42499773277328 -0.93423458685869  0.92702243834383
 1  5.26574091949195  0.38054409310931  1.68686648974897
 1  4.46158668426843  4.81455187158716  0.13416204440444
 1  5.48599169086909  3.37614514771477  0.59654544414442
 1  4.15448248084808  4.14907037913791  1.68354407130713
 1  1.46731751035104  4.99914909230923  0.81037211241124
 1 -7.68716028432843 -2.97894297779778  0.92346361596160
 1 -6.63983804770477 -4.49192557465747  1.33898973937394
 1 -6.58744444144414 -3.78157557365737 -0.18657656925693
 1 -6.77158168046805 -0.49509041754175  0.84406240734073
 1 -4.97438641074107  1.50605542644264 -0.01282854415441
 1 -6.24264264166417  0.79614868986899 -0.96674099019902
 1 -4.74549386138614  0.34059422162216 -1.15068183298330
 1 -3.79819180468047  6.23088749384938  0.78728560506051
 1 -4.42890432863286  4.39119145104511  0.65119114541454
 1 -0.06731587608761  6.72601316671667  1.59110895249525
 1 -1.63703981428143  7.05290874557456  0.88713806550655
 1 -0.10640147214721  7.11352363806381 -0.01073011591159
 1 -3.45122302930293  6.38918654435444 -1.69885408790879
 1 -5.29610231743174  5.98853196929693 -1.09839971717172
 1 -4.01853533043304  4.65497566786679 -1.77359686768677
 1  3.78755715621562 -4.35889210171017  1.43501428382838
 1  7.71501952655265 -1.94996438543854  1.95808319131913

