%nproc=4
%Mem=2GB
# td=(NStates=1) B3LYP/SVP 

TD

0 1
 8 -4.32367387818782 -4.78552292349235  1.78091211961196
 8  3.10816484518452 -4.66759806660666  1.23934807210721
 8  6.88212451675168 -1.61621889158916  1.72842552205221
 8  3.86078113561356 -3.06032405740574 -0.09672301170117
 8  7.56199573617362 -0.74925482058206 -0.20741677437744
 8 -3.08182376847685  2.45956400720072 -0.42760432183218
 7 -0.25798279297930 -0.52424661776178 -0.52919993289329
 7  1.48954744744474  1.85573600610061 -0.34550612821282
 7 -3.30713270227023 -3.15299641264126  0.69800611921192
 7 -0.77307580328033  2.91710285968597 -0.05992983878388
 6  0.68151041534153 -2.44009196759676 -1.39674196929693
 6  0.87427032933293 -1.11277850955095 -0.92481133003300
 6 -0.72402653135314 -2.62079044124412 -1.25755781848185
 6 -1.20998142014201 -1.39959027042704 -0.74843397339734
 6  3.76838529932993  1.49914308080808 -0.16983124992499
 6  2.45305741154115  0.90744256975698 -0.51822600760076
 6  2.20990624082408 -0.47846510441044 -0.90769024362436
 6  3.54008464856486  2.82074187638764  0.14846283658366
 6  1.66178758385839 -3.39035073637364 -1.92594994059406
 6 -5.55649455615562 -2.78575419031903  1.31674893919392
 6 -3.58671253055306 -1.90194517041704  0.17742367416742
 6  2.06364067616762  3.03460345454545  0.15832345574557
 6 -5.00681337763776 -1.66377534143414  0.52246629052905
 6  5.11517677957796  0.78917383428343 -0.30817977667767
 6 -2.57130194589459 -1.02317087248725 -0.35588206200620
 6 -1.43542320442044 -3.73541329442944 -1.88324864166417
 6 -4.33816348474847 -3.70864509630963  1.28092321792179
 6  2.12932406610661 -4.48501752545254 -0.91366059285929
 6  5.34107290969097 -0.18621674517452  0.76323887108711
 6  4.62744880618062  3.94548739803980  0.47155935623562
 6  1.24716339473947  4.17547209750975  0.32974469506951
 6 -6.87504215481548 -3.59205398519852  0.96334539663966
 6 -5.75577515811581 -0.63513929792979 -0.08038087118712
 6 -0.09679759905991  4.06168441824182  0.28210002190219
 6 -1.16347144574457  5.23076060976098  0.41216968246825
 6 -2.38496797049705  4.66806830823082  0.19300520652065
 6  3.13959054105411 -3.96696936713671  0.11913960316032
 6 -5.41429513901390  0.54752004060406 -0.77126859165917
 6  6.75606548554855 -0.82656812641264  0.66184708290829
 6 -3.81098864176418  5.33059411791179  0.32331684238424
 6 -2.09930948254825  3.16181114211421 -0.14069983978398
 6 -0.61658224932493  6.59531520152015  0.96540559215922
 6 -4.38768833143314  5.51094705140514 -1.08158725022502
 1 -0.27295888078808  0.28967583338334  0.13091335163516
 1  3.13136049704970 -1.18936707790779 -1.16477656505651
 1  2.53018289958996 -2.87439903650365 -2.37607415451545
 1  1.30738174437444 -3.74519863076308 -2.93887224732473
 1 -5.67817954525453 -2.45777440214021  2.29194973487349
 1  5.15343785628563  0.42412179357936 -1.45621596889689
 1  5.99795836323632  1.61327085518552 -0.19232280688069
 1 -2.89822604030403 -0.00081229092909 -0.59956035353535
 1  0.46628385898590  1.67314715861586  0.02028458295830
 1 -1.31486622242224 -4.57596216671667 -1.12922243204320
 1 -2.47294740574057 -3.61265185158516 -1.95621375447545
 1 -1.20211539143914 -4.31757882668267 -2.68329391869187
 1 -2.32073445974598 -3.48027775847585  0.57184985018502
 1  1.29368019731973 -4.95565826412641 -0.39330472037204
 1  2.62971907630763 -5.34181828872887 -1.41701708360836
 1  4.58745397839784 -1.06126729012901  0.72427216331633
 1  5.47175152055206  0.22583862256226  1.85804360746075
 1  4.19960048564857  4.81043145954595 -0.10650202200220
 1  5.73788688038804  3.66442397559756  0.04633042264226
 1  4.54345137773777  4.24071954405441  1.44453016991699
 1  1.79353013161316  5.08637781518152  0.73614468966897
 1 -7.83710527882788 -2.87518260176018  1.45700697029703
 1 -6.68654271817182 -4.56677305940594  1.61942778317832
 1 -6.95746144314431 -3.70088750485048 -0.08568648024802
 1 -6.65998052035204 -0.57335824432443  0.25743374447445
 1 -4.89914888698870  1.32447726862686 -0.07338459975998
 1 -6.10527890529053  1.24419349434943 -1.36336065216522
 1 -4.65625493749375  0.34707486968697 -1.44203096789679
 1 -3.84365635113511  6.28541294639464  0.87822469896990
 1 -4.44621605980598  4.65886821872187  0.73016904320432
 1 -0.07852699719972  6.45027559295930  2.04773461506151
 1 -1.58912502280228  7.06885033973397  1.06918627032703
 1 -0.20081091309131  7.29522180788079  0.24344530163016
 1 -3.72691059805981  6.12752037773777 -1.75335953845385
 1 -5.19386209340934  6.26761987808781 -0.80389026622662
 1 -4.79974345124512  4.53232340264026 -1.74504401240124
 1  3.91145954645465 -4.36858307080708  1.80086086848685
 1  7.67384540914091 -2.13434282328233  1.42389977297730

