%nproc=4
%Mem=2GB
# td=(NStates=1) B3LYP/SVP 

TD

0 1
 8 -4.31534304510451 -4.87969234043404  1.89171319971997
 8  3.14893892259226 -4.72706401320132  1.07310144744474
 8  7.04108041234123 -1.47496476617662  1.91747442694269
 8  3.76126118361836 -2.90932895789579 -0.15730907030703
 8  7.47509704630463 -0.72123201830183 -0.16006203890389
 8 -2.98534412051205  2.30390844164416 -0.32306386778678
 7 -0.25009200390039 -0.47877207030703 -0.59998701160116
 7  1.51236972967297  1.81274170667067 -0.35746732433243
 7 -3.36249823882388 -3.17631874487449  0.62281860046005
 7 -0.67496599229923  2.85428657805781 -0.02295614141414
 6  0.61084334863486 -2.31987994639464 -1.52202449754975
 6  0.92772567486749 -1.06386361806181 -0.94246309520952
 6 -0.76149027772777 -2.62939130133013 -1.26847891059106
 6 -1.37527794979498 -1.47731804320432 -0.80350948094809
 6  3.72892135293529  1.53901706820682 -0.24729899669967
 6  2.52284439023902  0.88400022552255 -0.43640782578258
 6  2.19575482568257 -0.41281853975398 -0.90183965856586
 6  3.59153979407941  2.77498730093009  0.09532752305231
 6  1.57325873097310 -3.40104180548055 -2.03911125672567
 6 -5.58025693239324 -2.78118373327333  1.36706397069707
 6 -3.65272913221322 -1.86707168306831  0.17627355915592
 6  2.08599291139114  3.04023401760176  0.02593021642164
 6 -4.98475117141714 -1.52397136103610  0.53691773567357
 6  5.12964822672267  0.81467638453845 -0.18038699739974
 6 -2.68859367506751 -1.12218077347735 -0.52931940574057
 6 -1.38504816691669 -3.90890064316432 -1.67139745654565
 6 -4.37341701010101 -3.79317354915492  1.30435556115612
 6  2.04838597229723 -4.44609363306331 -0.97527675447545
 6  5.35665446784678 -0.12720084358436  0.86776932413241
 6  4.64594065536554  3.90546339563956  0.46193839413941
 6  1.30196887528753  4.09643419371937  0.34074579517952
 6 -6.80713536413641 -3.50868564836484  0.90655971807181
 6 -5.82383196379638 -0.52653843784378  0.13002016891689
 6 -0.10949886918692  4.05633388318832  0.22093390529053
 6 -1.07003210181018  5.14818235193519  0.40161862736274
 6 -2.25565503920392  4.61122262366237  0.22528843484348
 6  3.03607018901890 -3.84098676887689  0.01195888508851
 6 -5.50242395189519  0.57084237283728 -0.79727119191919
 6  6.75190506950695 -0.70277574717472  0.80425132333233
 6 -3.64710225312531  5.27353841234123  0.31492600330033
 6 -2.12445199679968  3.18768372937294 -0.13579934973497
 6 -0.73627421852185  6.50214588458846  0.93048209980998
 6 -4.30512007460746  5.51430738743874 -1.06780587208721
 1 -0.51341292619262  0.44069093489349 -0.07027676737674
 1  3.11152851385138 -1.04742288348835 -1.21053114051405
 1  2.42033191449145 -2.85570716731673 -2.42416896399640
 1  0.98893990019002 -4.21626573747375 -2.79923828392839
 1 -5.63168489578958 -2.52932155685569  2.52112265216522
 1  5.26316882938294  0.43150253165316 -1.24943529082908
 1  5.93004157155716  1.59122865096510 -0.21873544814481
 1 -2.94344056175617 -0.03709591929193 -0.93822421992199
 1  0.51537876847685  1.96422626652665 -0.43012045754575
 1 -1.05278001380138 -4.75614018451845 -0.94451396119612
 1 -2.57149726072607 -3.68366895329533 -1.90040817391739
 1 -1.01986716661666 -4.44897196599660 -2.56513210251025
 1 -2.38173055935594 -3.52471220192019  0.72814547974797
 1  1.40705153445345 -5.04673737203720 -0.19469485938594
 1  2.46541264566457 -5.37115122202220 -1.41099648154815
 1  4.66067130013001 -0.86372753615362  0.84383411951195
 1  5.34648899429943  0.37165320402040  1.82014981808181
 1  4.52261278687869  4.75648606500650 -0.04383575537554
 1  5.70209330103010  3.50199773297330  0.15892168176818
 1  4.64291132373237  4.21993746584659  1.52149786668667
 1  1.73323410201020  5.10370954835484  0.73976505170517
 1 -7.83361492979298 -2.87023210671067  1.19025029462946
 1 -6.77622168606861 -4.41225760786079  1.52047788818882
 1 -6.78422411941194 -3.84021143724372 -0.10444835643564
 1 -6.88576309860986 -0.73226413491349  0.35018301940194
 1 -4.67614658675868  1.44487930883088 -0.44472173347335
 1 -6.26912528992899  1.16901597659766 -1.11033534963496
 1 -5.00366967896790 -0.01114095189519 -1.69671643644364
 1 -3.58161014651465  6.15747015211521  0.89842671917192
 1 -4.40963240144014  4.76685901780178  0.99289531583158
 1 -0.52540168466847  6.37869843524352  2.05687552915292
 1 -1.54021013131313  7.38750220492049  0.61823117481748
 1  0.17403657165717  6.93090537623762  0.43968492559256
 1 -3.74312221922192  6.33521114681468 -1.55071927442744
 1 -5.31857456465647  5.92149526562656 -0.90227010421042
 1 -4.58629210611061  4.76566673697370 -1.62835234323432
 1  3.73131153165317 -4.36389260176017  1.60819160156016
 1  7.91507953255326 -2.06819620862086  1.79888727172717

