%nproc=4
%Mem=2GB
# td=(NStates=1) B3LYP/SVP 

TD

0 1
 8 -4.34705621642164 -4.86429080028003  1.78361238963896
 8  2.93206723542354 -4.63108441524152  1.26964110141014
 8  6.89865616991699 -1.55824309400940  1.90811349084909
 8  3.87003206070607 -3.07761578657866 -0.13251659105911
 8  7.49822935953595 -0.56683657875788 -0.02739877257726
 8 -3.04973055915592  2.34250230103010 -0.40190175157516
 7 -0.19508650335034 -0.46144033713371 -0.65014202710271
 7  1.54160265296530  1.87697813031303 -0.45603718131813
 7 -3.30367235623562 -3.21068218121812  0.59484580318032
 7 -0.77101559725973  2.81060220962096 -0.19294314011401
 6  0.66461872617262 -2.38150610901090 -1.50826312141214
 6  0.98409131143114 -1.01958919061906 -0.99095794469447
 6 -0.70334446314631 -2.65058342054205 -1.20689275197520
 6 -1.29630005200520 -1.32813312471247 -0.72489161916192
 6  3.79704816561656  1.61747491399140 -0.33535780258026
 6  2.48626073187319  0.86838866436644 -0.50149433443344
 6  2.27669291949195 -0.44375163306331 -0.87047652225223
 6  3.56432707280728  2.91382118431843  0.16137412771277
 6  1.64271567666767 -3.47042874417442 -2.00010735633563
 6 -5.50383929062906 -2.78575419031903  1.32197946224622
 6 -3.51468532783278 -1.87604258015802  0.23643957575758
 6  2.10873518561856  3.05656565076508 -0.06691906850685
 6 -4.92697539383938 -1.56715567946795  0.58404244814481
 6  5.12575783768377  0.87788270517052 -0.30274923362336
 6 -2.59533434913491 -1.07921647704770 -0.43474994879488
 6 -1.41977163926393 -3.85315506860686 -1.70348066486649
 6 -4.29646931533153 -3.77603183498350  1.27504262986299
 6  2.01740287398740 -4.52262128582858 -0.98695792259226
 6  5.21142994539454 -0.35002312581258  0.78234078127813
 6  4.56531259255926  3.91955480478048  0.42571477177718
 6  1.24217289568957  4.16289083938394  0.27184890549055
 6 -6.82269692029203 -3.43634841464146  0.87406646874687
 6 -5.71871145174517 -0.46523230723072  0.11906907380738
 6 -0.13521144044404  3.94616286608661  0.22412422432243
 6 -1.14267936653665  5.02005953965397  0.54068253375338
 6 -2.31625109880988  4.63376487788779  0.28189409540954
 6  3.02150873287329 -3.89709237943794  0.08491618081808
 6 -5.41877558705871  0.57092238083808 -0.79463092789279
 6  6.68216809580958 -0.79862533213321  0.76037693589359
 6 -3.67243478637864  5.23607466596660  0.43748825952595
 6 -2.14586413801380  3.12438739973997 -0.14603037283728
 6 -0.71394198529853  6.45781145114511  0.86541559315932
 6 -4.31225078767877  5.57147310401040 -0.83490258175818
 1 -0.52752433733373  0.52598946474647 -0.37177691739174
 1  3.19043640464046 -0.93967210841084 -1.08397848524853
 1  2.64977485878588 -2.97388898549855 -2.31380792789279
 1  1.10212121832183 -3.72813692459246 -2.83220158025803
 1 -5.41574330163016 -2.48096672137214  2.49013955385539
 1  5.34408692119212  0.65640502190219 -1.42766311361136
 1  6.08408697609761  1.67993752185219 -0.10842441704170
 1 -2.88234445214521 -0.01147335703570 -0.40017041454145
 1  0.64224145474547  1.81851169506951 -0.65805325082508
 1 -1.22344708050805 -4.83050762126213 -1.05362487228723
 1 -2.44725483648365 -3.48802938933893 -1.79266739983998
 1 -0.97451263116312 -4.07397446624663 -2.65996158545855
 1 -2.51573395969597 -3.76654638533853  0.46322898809881
 1  1.06783761306131 -4.87894059235924 -0.47025241514151
 1  2.54707081148115 -5.32233634053405 -1.39514489638964
 1  4.64110934393439 -1.17210837423742  0.50837057315732
 1  4.89995434083408  0.12327836653665  1.77071487458746
 1  4.42621314691469  4.70750116651665 -0.22817418921892
 1  5.53446653835384  3.58647618081808 -0.10209441984198
 1  4.64087111971197  4.10803627572757  1.38667438433843
 1  1.71889266786679  5.29696887428743  0.15755683088309
 1 -7.61655322362236 -2.67198228172817  1.19848111771177
 1 -6.88470253415342 -4.38638502060206  1.46193203360336
 1 -7.06270196719672 -3.62026944304430 -0.34403231483148
 1 -6.80909543184318 -0.63256416491649  0.35910391149115
 1 -4.53266223832383  1.31991681258126 -0.24196145744574
 1 -6.34601297869787  1.24983405840584 -0.94702901900190
 1 -5.11549086108611  0.16932709490949 -1.78292505730573
 1 -3.41035302080208  6.37224162926293  0.93539041554155
 1 -4.22069350755076  4.59668200010001  1.20019604590459
 1  0.07605846134613  6.45144570997100  1.65248509010901
 1 -1.61395750605061  7.03122657735773  0.93182253395339
 1 -0.46138697069707  7.08696098179818 -0.03932297519752
 1 -3.58434634163416  6.09808743444344 -1.44249845234523
 1 -5.37758046524652  6.00129324542454 -0.73619349654966
 1 -4.44679815671567  4.54073424372437 -1.25783529152915
 1  3.66063446394639 -4.18713492599260  1.91002178457846
 1  7.77226525112511 -1.88477786678668  1.97064444744474

