%nproc=4
%Mem=2GB
# td=(NStates=1) B3LYP/SVP 

TD

0 1
 8 -4.25160667146715 -4.89306367756776  1.92027605600560
 8  2.87123115181518 -4.89113041984198  1.10174431173117
 8  6.58976528082808 -1.78549581928193  1.73144582408241
 8  3.76185124262426 -3.08375640064006  0.00990765136514
 8  7.48026756335634 -0.78531842694269  0.02086605390539
 8 -2.98440402650265  2.40929898069807 -0.34725628702870
 7 -0.30551754645465 -0.43488768186819 -0.52824983788379
 7  1.60969946264626  1.86604703720372 -0.38538011561156
 7 -3.27582957195720 -3.26613772677268  0.67371368996900
 7 -0.74682317801780  2.95120627002700 -0.04441828762876
 6  0.68492075637564 -2.32658061646165 -1.50154244934493
 6  0.93129603190319 -1.01398863056306 -0.99626847574757
 6 -0.68593272197220 -2.61168953115312 -1.20257231993199
 6 -1.29123954595460 -1.41703201460146 -0.60546967696770
 6  3.85633409420942  1.59276244274427 -0.26594086088609
 6  2.53562566836684  0.87357918341834 -0.51595578057806
 6  2.28467371757176 -0.35395265316532 -0.95446492109211
 6  3.54073471357136  2.93299310151015  0.04954294459446
 6  1.73869527462746 -3.21645334663466 -2.08010535613561
 6 -5.49365827252725 -2.93999961486149  1.24366163046305
 6 -3.40171403070307 -1.91745672157216  0.25616154795480
 6  2.12455676777678  3.09863985818582  0.00364798819882
 6 -4.86077877417742 -1.68038700260026  0.56943098699870
 6  5.09202446434643  0.89049396629663 -0.35177413611361
 6 -2.57578239393939 -0.97797635303530 -0.29453592739274
 6 -1.43646330843084 -3.70863061616162 -1.74722503930393
 6 -4.29060872927293 -3.82635686748675  1.38215334093409
 6  2.10328146184618 -4.44784380808081 -1.09744897169717
 6  5.31866066846685 -0.07690581408141  0.85221776897690
 6  4.47398345964597  3.95654850415041  0.47386958725873
 6  1.29144782318232  4.13856840714071  0.27789951055106
 6 -6.73003765436544 -3.64661944174417  0.82183124522452
 6 -5.71946152675268 -0.72519830383038  0.18778594549455
 6 -0.17074499379938  4.07217546734673  0.33908572047205
 6 -1.13281838043804  5.20294782848285  0.45281374687469
 6 -2.31415088878888  4.70338183958396  0.14866077207721
 6  2.98885546754675 -4.02398506870687  0.01122881208121
 6 -5.50755446494649  0.59293458205821 -0.60206167096710
 6  6.59487936693669 -0.86488195779578  0.81130202840284
 6 -3.64787233013301  5.25730678917892  0.21175568626863
 6 -2.09913946554655  3.21968692969297 -0.08706447624762
 6 -0.74296488758876  6.62200787078708  0.81439049064906
 6 -4.25588515111511  5.59534549124912 -1.16824591609161
 1 -0.62655424032403  0.50186705250525 -0.05282502220222
 1  3.09908726972697 -1.16354449564957 -1.20809089648965
 1  2.57545742704270 -2.62308390499050 -2.19911645874587
 1  1.38081908810881 -3.72396650755075 -2.89699805990599
 1 -5.52284401170117 -2.44475310001000  2.28296883678368
 1  5.03582609510951  0.34530391179118 -1.32358270557056
 1  5.83336190359036  1.64721424952495 -0.46795036963696
 1 -2.87268348604860 -0.06983919361936 -0.67321771927193
 1  0.58546577717772  1.80365020892089 -0.59578702420242
 1 -1.27385212101210 -4.78232280278028 -1.19180869066907
 1 -2.38470858185819 -3.49551013741374 -1.96668480158016
 1 -0.67105228512851 -4.07709477827783 -2.57268285758576
 1 -2.43692607890789 -3.68536826752675  0.50533319851985
 1  1.27398822812281 -5.10878357665767 -0.78342373227323
 1  2.81104720912091 -5.10809491639164 -1.71041642354235
 1  4.54066929992999 -0.84703586698670  0.88072780888089
 1  5.07970231563156  0.54826086478648  1.61184898799880
 1  4.32191271687169  4.84076449284929 -0.10624199599960
 1  5.52262535423542  3.79205673887389  0.24530031963196
 1  4.52069910251025  4.08306377847785  1.54402011891189
 1  1.80383116171617  5.06576575397540  0.49091016621662
 1 -7.52101366966697 -2.91033611711171  1.10419168876888
 1 -6.91343540744074 -4.46553293539354  1.51707754815482
 1 -6.57164286128613 -3.99369678577858 -0.25891380298030
 1 -6.75135965826583 -0.83151405990599  0.32461046214622
 1 -4.91269024112411  1.38051287218722 -0.08438569986999
 1 -6.55806418381838  1.08244731973197 -0.80132444854485
 1 -4.91237054905491  0.45990615281528 -1.49440620542054
 1 -3.52375436093609  6.26020042514251  0.76010288678868
 1 -4.26889832803280  4.78183051495150  0.77212323862386
 1  0.01564241974197  6.63828439383938  1.66738658025803
 1 -1.60914702500250  7.21327478217822  1.21656100780078
 1 -0.45188602060206  7.09094137983798 -0.13416245914591
 1 -3.43721162816282  6.42361998769877 -1.47730193269327
 1 -5.15503821102110  6.09770288638864 -1.37789766696670
 1 -4.39922339923992  4.84910508080808 -1.89799930793079
 1  3.26553495399540 -4.38351456395640  1.87807859025903
 1  7.41132915751575 -2.34535392439244  1.58860624362436

