%nproc=4
%Mem=2GB
# td=(NStates=1) B3LYP/SVP 

TD

0 1
 8 -4.12080359115912 -4.93585795699570  1.86212024042404
 8  2.78198222692269 -4.89277058385839  1.07125126242624
 8  7.10834713901390 -1.40434770447045  1.98995167466747
 8  3.81959701720172 -3.09532755775578 -0.08493183258326
 8  7.58791832843284 -0.57910780588059 -0.13211924462446
 8 -3.10112569866987  2.34821287208721 -0.52898445984598
 7 -0.33704069876988 -0.53278747184718 -0.66359337223722
 7  1.55429392209221  1.81216164866487 -0.23721529912991
 7 -3.22581457045705 -3.07369848284828  0.68656497509751
 7 -0.85648414411441  2.88030918031803 -0.09923376917692
 6  0.57786005030503 -2.34655261366137 -1.48969126422642
 6  0.93798670097010 -1.02937016871687 -1.06522537143714
 6 -0.76411053975398 -2.58968733093309 -1.27090915361536
 6 -1.38789921192119 -1.43659397079708 -0.72663179317932
 6  3.76807526832683  1.46666983348335 -0.26082034883488
 6  2.56679878567857  0.86422824832483 -0.51122530753075
 6  2.22418766896690 -0.43710096799680 -0.88353782838284
 6  3.47022766286629  2.87872767496750  0.19448743904390
 6  1.63031443654365 -3.30925262656266 -2.08889623522352
 6 -5.42022092879288 -2.83357897279728  1.50713797809781
 6 -3.59969382868287 -1.80667564346435  0.10018595039504
 6  2.06827113921392  3.00226022022202  0.23468109150915
 6 -5.01904460076008 -1.54594355825583  0.64620866476648
 6  5.13820908280828  0.80149506640664 -0.39632859155916
 6 -2.70502531823182 -0.95381393679368 -0.50170664446445
 6 -1.48685834793479 -3.75755550865086 -1.77643796059606
 6 -4.20997066546655 -3.74271850365036  1.34268939453945
 6  2.07931906560656 -4.41589061276128 -1.18603783058306
 6  5.45021382378238 -0.16985510901090  0.91570411761176
 6  4.53071913321332  3.86713956325633  0.64267646794679
 6  1.26027470587059  4.05620017031703  0.46979870047005
 6 -6.69535418601860 -3.49404418421842  1.05160422252225
 6 -5.83645322592259 -0.53661944594459  0.20003717061706
 6 -0.10580850015002  3.98269651945195  0.31635344724472
 6 -1.09416451505151  5.13807134083408  0.39609807530753
 6 -2.30989046274627  4.68591009240924  0.16562246824682
 6  2.99353593559356 -4.03852652285229 -0.02663497429743
 6 -5.54321803130313  0.52480776937694 -0.73752521732173
 6  6.81769164816482 -0.86030149974997  0.76595749394940
 6 -3.64835237813781  5.26576763526353  0.08556306700670
 6 -2.12398194979498  3.22307726872687 -0.13790956075608
 6 -0.71556214731473  6.50749641964196  0.99904895649565
 6 -4.25154471707171  5.54895085178518 -1.33993308480848
 1 -0.54842642754275  0.27896476227623 -0.15414515421542
 1  3.09674703570357 -1.00863900510051 -1.03416350375037
 1  2.52375225652565 -2.68370996759676 -2.35813236033603
 1  1.17242824902490 -3.61576568746875 -3.02862122222222
 1 -5.48452017931793 -2.58822744744474  2.61855239513951
 1  4.96251876437644  0.11900128152815 -1.26944729202920
 1  6.01253982138214  1.49531906000600 -0.73548712331233
 1 -3.05521173887389  0.14888267856786 -0.59712010951095
 1  0.51716894749475  1.73421326522652 -0.39708715421542
 1 -1.32297703350335 -4.72493706420642 -1.19856936673667
 1 -2.51758186918692 -3.56395698209821 -1.91295942904290
 1 -1.26010119001900 -4.05115218401840 -3.01019660896090
 1 -2.35590797709771 -3.58986871757176  0.41284394959496
 1  1.28792962226223 -4.74234693299330 -0.67352274217422
 1  2.44802090649065 -5.19513362026203 -1.73800918281828
 1  4.74405963896390 -0.97113827722772  1.15169490559056
 1  5.51349569496950  0.57489352805281  1.72349015211521
 1  4.46604713031303  4.75065548194820 -0.22300367216722
 1  5.46655974767477  3.22880041324132  0.79707549714972
 1  4.16969400200020  4.31227669976998  1.49711542844284
 1  1.68298907750775  4.95679485688569  0.87062813801380
 1 -7.58757032533253 -2.74057914141414  0.92988425802580
 1 -6.83611767566757 -4.14245062716272  1.91091693209321
 1 -6.50836653365336 -4.06140355645565  0.11844393279328
 1 -6.96319084138414 -0.61794270277028  0.45590359145915
 1 -4.98536750885089  1.21743656455646 -0.10533779507951
 1 -6.47457583498350  0.88816789178918 -1.08371268736874
 1 -4.77668698069807  0.39191935413541 -1.32898966376638
 1 -3.26397838333833  6.28120252535254  0.75115199169917
 1 -4.57811925012501  4.70508284018402  0.64251027732773
 1 -0.13030217471747  6.30481104650465  1.85552539413941
 1 -1.61562767306731  7.25080853555355  0.95408476017602
 1  0.06495566356636  6.89265155085508  0.30040099719972
 1 -3.71521942894289  6.03529115481548 -1.96904110661066
 1 -5.18058076527653  6.13512662876288 -1.22206208340834
 1 -4.34999847674767  4.46504667496750 -1.86685619361936
 1  3.21385978647865 -4.44817102960296  1.94341512391239
 1  8.00879890449045 -1.70779016801680  1.80933831683168

