%nproc=4
%Mem=2GB
# td=(NStates=1) B3LYP/SVP 

TD

0 1
 8 -4.44611612241224 -5.01810618181818  1.68222225062506
 8  2.95295932463246 -4.83972527932793  1.09009314661466
 8  7.12871917621762 -1.38872614231423  1.99771245074507
 8  3.85293035053505 -3.14262228722872  0.03714037463746
 8  7.59794933153315 -0.51470136523652 -0.01367740044004
 8 -3.03160874697470  2.49211726252625 -0.49140070147015
 7 -0.29408640334033 -0.55313950705071 -0.54945195809581
 7  1.47200569326933  1.85245567806781 -0.42296387398740
 7 -3.39116110511051 -3.16827794079408  0.68159447804780
 7 -0.79252774847485  2.94175532493249 -0.18268211401140
 6  0.69253151745175 -2.43594155255526 -1.32252454755476
 6  0.93034593689369 -1.05805303700370 -0.93212206110611
 6 -0.68155228392839 -2.62141050325032 -1.35729779247925
 6 -1.33989441144114 -1.46468678007801 -0.67116624662466
 6  3.83247170797080  1.59454262076208 -0.32625689248925
 6  2.46101820762076  0.85889771527153 -0.59520370537054
 6  2.20534578477848 -0.54191144904490 -0.93003247784778
 6  3.51400204030403  2.95398520072007  0.02932092239224
 6  1.62804420952095 -3.39581128242824 -2.04615196079608
 6 -5.54738364506451 -2.82662827772777  1.38036530083008
 6 -3.64519837913791 -1.90166514241424  0.21739767156716
 6  2.05123943604360  2.98003799799980  0.01044866826683
 6 -5.01775447174717 -1.61940090399040  0.55985002890289
 6  5.15952121402140  0.88938385528553 -0.35642460116012
 6 -2.65413022872287 -1.09657821322132 -0.30092656645665
 6 -1.52051171327133 -3.82275202830283 -1.95775609240924
 6 -4.39438910731073 -3.81768600040004  1.30243536913691
 6  2.14192532623262 -4.55958498219822 -1.11382060886089
 6  5.36837563996400 -0.12694081758176  0.85607815501550
 6  4.55169123042304  3.92733558285829  0.39964216451645
 6  1.24824350275028  4.04905945624562  0.41022274287429
 6 -6.89081373197320 -3.44822960276028  0.97241630373037
 6 -5.81406098669867 -0.58522430643064  0.19670683758376
 6 -0.15247316661666  4.00922917271727  0.22415422732273
 6 -1.01646674527453  5.12968050175018  0.52550101560156
 6 -2.29504897859786  4.63864536593659  0.27185309130913
 6  3.03250983298330 -4.08034070427043  0.02438012721272
 6 -5.41621533103310  0.64062935153515 -0.64308577337734
 6  6.81093097209721 -0.64875034463446  0.82328322652265
 6 -3.70513805670567  5.28786984548455  0.35250976167617
 6 -2.11300085168517  3.22396735773577 -0.13297906770677
 6 -0.63086367746775  6.57234290429043  0.85574462606261
 6 -4.24388395099510  5.53945990269027 -1.06250534203420
 1 -0.25521710661066  0.56278314411441 -0.01266100580058
 1  3.11735909690969 -1.15297343854385 -0.99321940934093
 1  2.56353623492349 -2.92503410001000 -2.38443499059906
 1  1.18834984118412 -3.85340945184518 -2.95909426952695
 1 -5.49839156645664 -2.45050367506751  2.57028756865687
 1  5.26190870337034  0.50529991139114 -1.31042138943894
 1  5.90208877627763  1.56668619671967 -0.21957553215322
 1 -2.69290550825083 -0.11022323202320 -0.09644004150415
 1  0.46979421002100  2.02560240414041 -0.60367781328133
 1 -1.39504424022402 -4.88856342684268 -1.34434394419442
 1 -2.61373148414842 -3.70777136353635 -1.77579571267127
 1 -1.37876305620562 -3.83621068986899 -3.15560114941494
 1 -2.45021740804080 -3.52532226292629  0.78763142834284
 1  1.35487631693169 -5.21459415771577 -0.79113450335034
 1  2.80645675007501 -5.22048615551555 -1.81343672557256
 1  4.75735096809681 -0.95345650905091  0.82326206230623
 1  5.36364070947095  0.12469850855086  1.81795959905991
 1  4.82908343394339  4.80498091449145 -0.45890726252625
 1  5.46903999569957  3.46677421062106  0.42269805940594
 1  4.58755578817882  4.47539301140114  1.30592630953095
 1  1.62318309690969  5.22093127052705  0.68978005320532
 1 -7.74260582888289 -2.69483456695670  0.95618688828883
 1 -7.14117818171817 -4.27986436853685  1.78112395279528
 1 -6.74494019101910 -3.75198261436144 -0.02632054365437
 1 -6.85296981928193 -0.71702261076108  0.48897689878988
 1 -4.52495146724673  1.29776459735974 -0.27665492679268
 1 -6.26084446184618  1.34867394239424 -0.84632894899490
 1 -4.97497680968097  0.15939610181018 -1.53216998179818
 1 -3.49216120162016  6.35381978707871  0.72158903540354
 1 -4.39500093829383  4.65114744664466  0.95463148944895
 1 -0.26572571707171  6.57113767916792  1.88771861346135
 1 -1.53460957125713  7.17466092079208  0.55555490719072
 1  0.04055322332233  7.09123140884088  0.17904886198620
 1 -3.55381328832883  6.20608823452345 -1.62784698719872
 1 -5.12452515971597  6.09498261436144 -0.86121599879988
 1 -4.29630310721072  4.63348351865187 -1.64727423542354
 1  3.59751815231523 -4.64412062456246  1.65550633303330
 1  8.05500352495249 -1.70190957995800  1.84237162016202

