%nproc=4
%Mem=2GB
# td=(NStates=1) B3LYP/SVP 

TD

0 1
 8 -4.21947345814581 -5.05442981418142  1.68983301170117
 8  2.99731376007601 -4.96684799159916  1.01306544384438
 8  7.20579688398840 -1.63556082578258  1.70834351385139
 8  3.81754681218122 -3.15418344334433 -0.01907524692469
 8  7.69717925452545 -0.38396829192919 -0.04729076177618
 8 -3.08512409850985  2.56575462626263 -0.43732529392939
 7 -0.28775577027703 -0.42159635273527 -0.53466047894789
 7  1.45743423612361  1.87444787728773 -0.34199577717772
 7 -3.24366635563556 -3.06176728972897  0.86815313391339
 7 -0.81175967166717  3.02108325772577 -0.02480632643264
 6  0.62454471877188 -2.40048800720072 -1.38447074217422
 6  0.87714061636164 -1.04166139783978 -0.97663651255126
 6 -0.79733386208621 -2.52247060926093 -1.25221728442844
 6 -1.34550497249725 -1.34756506790679 -0.59860899089909
 6  3.72743120392039  1.33657682418242 -0.20502476927693
 6  2.37881998779878  0.89937176267627 -0.54876906190619
 6  2.15444069426943 -0.42750000790079 -0.97883735833583
 6  3.55777641774177  2.72523232543254  0.20085807610761
 6  1.67632903800380 -3.30066176747675 -2.07265461106111
 6 -5.66262516921692 -2.95463107800780  1.30217748204820
 6 -3.57385124442444 -1.94137911381138  0.33216914871487
 6  2.10976528862886  3.02744273847385  0.19098672207221
 6 -5.06547924422442 -1.74338330223022  0.48678272217222
 6  5.10608587048705  0.82714763166317 -0.30928988768877
 6 -2.66216103180318 -1.09856841224122 -0.27790426422642
 6 -1.53178284038404 -3.88106785988599 -1.60493080988099
 6 -4.34316398479848 -3.83014724652465  1.34204933053305
 6  1.97563869756976 -4.39727875157516 -1.14971419821982
 6  5.42066086848685 -0.13231135463546  0.79434198139814
 6  4.50802686398640  3.88316116541654  0.57374957525753
 6  1.26422510091009  4.17468201850185  0.44101582218222
 6 -6.85195984658466 -3.58382316211621  0.80514957705771
 6 -5.83336291689169 -0.62276806080608  0.07385455235524
 6 -0.05743366266627  4.05632388218822  0.29480129202920
 6 -1.11682678127813  5.23368090179018  0.40348881438144
 6 -2.30699017271727  4.68455995739574  0.18781468746875
 6  3.01944852685269 -4.09769243944394  0.01740943014301
 6 -5.41131484098410  0.53288857745775 -0.60991245604560
 6  6.88414829382938 -0.68632410201020  0.79341023922392
 6 -3.72795033793379  5.47749880838084  0.13897840854085
 6 -2.12775232683268  3.29529449044905 -0.03772954275428
 6 -0.57174776587659  6.63663933393339  0.74579363096310
 6 -4.12093165576558  5.47656361306131 -1.35851494299430
 1 -0.54779636453645  0.63739060486049 -0.45823556325633
 1  2.98443580458046 -1.02750089128913 -1.24525461286129
 1  2.48669855115512 -2.84809640624062 -2.38458500560056
 1  1.36750775697570 -3.61922603350335 -3.02975133523352
 1 -5.51528325562556 -2.73779240394039  2.48203874377438
 1  5.21177368986899  0.11655103650365 -1.11785213251325
 1  5.62803137053705  1.64176370447045 -0.29805337993799
 1 -2.89386560426043 -0.13696590629063 -0.21632202970297
 1  0.37166439703970  1.90640048394839 -0.42190963646365
 1 -1.70978571437144 -4.58227279777978 -0.88934844464446
 1 -2.56385649664966 -3.70496108250825 -1.89874800790079
 1 -0.97480266016602 -4.39953702250225 -2.40257584688469
 1 -2.24646703300330 -3.39880961166117  0.99471213641364
 1  1.20755158445845 -4.96562926122612 -0.44229961986199
 1  2.44457056145615 -5.40483459035904 -1.51174655655566
 1  4.79630486348635 -1.11365252865287  0.58256799289929
 1  4.99959430483048  0.17871391009101  1.79259706280628
 1  4.36954748034803  4.50210062646265 -0.33842521432143
 1  5.51322441414142  3.54699223242324  0.61112690229023
 1  4.21528856145615  4.46940241234123  1.57679339623962
 1  1.71194197279728  5.18728790619062  0.80536161136114
 1 -7.87964953325333 -2.99187427092709  0.76325759535954
 1 -7.08439250315032 -4.44238062016202  1.44328016841684
 1 -6.84089978697870 -3.84753216931693 -0.24997290889089
 1 -6.81863638593859 -0.62737364586459  0.28221622272227
 1 -4.67349632173217  1.31964678557856 -0.08434569586959
 1 -6.37716609400940  1.18219729472947 -0.79463377947795
 1 -4.80346965896590  0.31916207840784 -1.45022178697870
 1 -3.47858984448445  6.40741514661466  0.53842071857186
 1 -4.66229766796680  5.02699503140314  0.82556858315832
 1  0.06726758225823  6.54436500190019  1.73447328892889
 1 -1.59763587388739  7.17934138883888  1.11625097679768
 1 -0.02411324332433  6.95786807250725 -0.19194823772377
 1 -3.48485639263926  6.36790441614161 -1.87482168466847
 1 -5.15316802400240  5.77843095919592 -1.40231010821082
 1 -4.11506498339834  4.53985415571557 -1.71085059305931
 1  3.61528992949295 -4.50693690619062  1.57937872027203
 1  8.08988701330133 -1.80569995899590  1.37368475147515

