%nproc=4
%Mem=2GB
# td=(NStates=1) B3LYP/SVP 

TD

0 1
 8 -4.17778928972897 -4.92479685088509  1.72077610601060
 8  2.91097512621262 -4.81180248704870  1.06626076337634
 8  6.90677698199820 -1.59133640334033  1.94424710421042
 8  3.87696275377538 -3.20907893289329 -0.22675601500150
 8  7.50663019961996 -0.49977987308731  0.03802777007701
 8 -3.14217980408041  2.44112216301630 -0.35095665706571
 7 -0.17650464516452 -0.48909310241024 -0.63211022392239
 7  1.55566405910591  1.83671410391039 -0.30819239683968
 7 -3.25301729072907 -3.09980109310931  0.67972429102910
 7 -0.86392488818882  2.80362151155115 -0.12629647544754
 6  0.62561482578258 -2.32920087848785 -1.48851114621462
 6  0.97570047234723 -1.03561079277928 -0.95126397529753
 6 -0.71976610531053 -2.63140150235024 -1.27169923262326
 6 -1.26339676167617 -1.40165047644764 -0.72400153015302
 6  3.67372583338334  1.46399956645665 -0.22220648744875
 6  2.49771187698770  0.88737056255626 -0.52917710271027
 6  2.18976422662266 -0.41127838573857 -0.85585506010601
 6  3.43693433353335  2.76053585578558  0.11169916021602
 6  1.63838524362436 -3.28620032133213 -2.13141048664867
 6 -5.38739764646465 -2.81626724162416  1.35646291059106
 6 -3.55525938523852 -1.85346032193219  0.31824775657566
 6  2.04409872197220  3.00957095129513 -0.04883726032603
 6 -4.97519021532153 -1.58183714761476  0.59458350225022
 6  5.04615987788779  0.79478439533953 -0.26172513121312
 6 -2.56905172087209 -1.01416997239724 -0.29398587238724
 6 -1.50124978707871 -3.84749450255025 -1.72964328112811
 6 -4.18081775017502 -3.76295052685269  1.33772889848985
 6  2.06654778847885 -4.45911493519352 -1.17558678547855
 6  5.35693449584959 -0.17158528202820  0.98155070227023
 6  4.49090515181518  3.90550339963996  0.49407160746075
 6  1.30189886828683  4.13768831913191  0.33387510811081
 6 -6.66615126572657 -3.48711349114911  1.01691075317532
 6 -5.68047762836284 -0.57794357835784  0.27288445534553
 6 -0.16974489378938  3.99671792159216  0.21876368826883
 6 -1.14042914151415  5.09991752545255  0.42672113761376
 6 -2.29261873557356  4.65380688208821  0.13902980898090
 6  2.96604318631863 -4.09232190239024 -0.14976728752875
 6 -5.42297600710071  0.66077136573657 -0.60590205500550
 6  6.65122500150015 -0.78461393099310  0.93560445864586
 6 -3.71229877277728  5.22477353585359  0.19889440014001
 6 -2.13333288488849  3.19243420442044 -0.14542031183118
 6 -0.76697728882888  6.49793546354636  0.73753280488049
 6 -4.14301386398640  5.75167112381238 -1.24940403190319
 1 -0.14991657655766  0.47879474527453 -0.10434017371737
 1  3.19752711371137 -1.07220536173617 -1.21906199359936
 1  2.36247612891289 -2.56865846244624 -2.43350989808981
 1  1.43778478467847 -3.78500261116112 -3.08243660376038
 1 -5.25645737303730 -2.50194881958196  2.52097263716372
 1  5.13779629212921  0.23913329472947 -1.12917326462646
 1  5.95766433383338  1.43859338743874 -0.29048262286229
 1 -2.79494571227123  0.16493428372837 -0.38928932643264
 1  0.34643187378738  1.73758360226022 -0.50026747224723
 1 -1.52824756055606 -4.85199977047705 -1.15490500030003
 1 -2.52048215921592 -3.71554214061406 -2.00430856395640
 1 -1.29812499239924 -4.21265833463346 -2.74612020132013
 1 -2.31725411171117 -3.70912064276428  0.64828749394940
 1  1.02861369066907 -4.95861856015602 -0.82330772067207
 1  2.68065416981698 -5.22386649354936 -1.60800618251825
 1  4.74991022402240 -0.92109327272727  1.02256199229923
 1  5.09899424482448  0.26278231693169  1.96865466856686
 1  4.26320684628463  4.92865328172817 -0.09328069986999
 1  5.50192328402840  3.57162469566957  0.37184297389739
 1  4.38983601620162  4.10956642874288  1.46132184908491
 1  1.78217899649965  5.06165534293429  0.69804087928793
 1 -7.60903247154715 -2.69558464196420  1.01061233083308
 1 -6.91761582548255 -4.17295367746775  1.71771761216122
 1 -6.73153885088509 -3.89252666876688 -0.09315722732273
 1 -6.71521604390439 -0.44852576107611  0.71211921302130
 1 -5.23556252835284  1.48006282718272  0.23185592429243
 1 -6.38182656005601  0.95908498349835 -0.98181249734974
 1 -4.45993530553055  0.66813697589759 -1.21267803260326
 1 -3.84309629512951  5.98155256035604  1.01214809130913
 1 -4.33630506870687  4.40297262916292  0.51353738003800
 1 -0.24705384988499  6.50358092349235  1.73385322692269
 1 -1.61056716701670  7.22181563626363  1.25400475217522
 1  0.06513568156816  6.96038832453245 -0.01027006990699
 1 -3.54693260026003  6.62857048274828 -1.46897109960996
 1 -5.33680638783878  6.06458957505751 -1.08467834503450
 1 -4.17263073997400  5.11999216951695 -2.11310081808181
 1  3.51372977347735 -4.57355356785679  1.71092187458746
 1  7.93330135473547 -1.78797818681868  1.74104148714872

