%nproc=4
%Mem=2GB
# td=(NStates=1) B3LYP/SVP 

TD

0 1
 8 -4.25586709750975 -4.94322869406941  1.68147217561756
 8  3.22146617531753 -4.91562286908691  0.99383352065206
 8  6.79357566186619 -1.99583685338534  1.57642032153215
 8  3.81792685018502 -2.96637466246625 -0.05025836523652
 8  7.56249578617862 -0.54235413051305 -0.13600963366337
 8 -2.94417000310031  2.29686773757376 -0.68483004440444
 7 -0.22652964766477 -0.45651984508451 -0.48745575847585
 7  1.45320381308131  1.84106453895390 -0.12344392199220
 7 -3.23566555555556 -3.15280639363936  0.67414373297330
 7 -0.77043553925393  2.91058220762076 -0.13560740654065
 6  0.71217348164816 -2.36334429282928 -1.34773706880688
 6  0.94024692699270 -1.02735996769677 -0.82919176807681
 6 -0.65264939363936 -2.54763312551255 -1.20082214491449
 6 -1.29274969696970 -1.34894520592059 -0.75633476347635
 6  3.68790725152515  1.53113628012801 -0.16962122892289
 6  2.48450055585559  0.95013683918392 -0.40054423942394
 6  2.21120637083708 -0.39129638753875 -0.75923539813981
 6  3.53370401050105  2.79162896509651  0.25929391969197
 6  1.64884628972897 -3.31226292759276 -2.02667001260126
 6 -5.48383729042904 -2.76981259615962  1.38525578987899
 6 -3.48477233653365 -1.89770474637464  0.27921385318532
 6  2.13104741684168  3.06322631683168  0.14150177357736
 6 -4.93738643494349 -1.59914887878788  0.59706375027503
 6  5.09805506740674  0.94217913481348 -0.27488644734473
 6 -2.62124694039404 -1.09064762016202 -0.44021049484948
 6 -1.56802646474647 -3.78210796389639 -1.70780109690969
 6 -4.27476714511451 -3.81000523232323  1.25924104970497
 6  2.13524465816582 -4.50568959265927 -1.09297852465247
 6  5.35932473487349 -0.11150927442744  0.85814836203620
 6  4.35675173647365  3.85559840914091  0.75969817011701
 6  1.32459113751375  4.16108065836584  0.40606232683268
 6 -6.88669331993199 -3.45280005980598  1.10514957705771
 6 -5.82610219081908 -0.60964674867487  0.34696186308631
 6 -0.14795271457146  4.07182543234323  0.15334714661466
 6 -1.11723682228223  5.13946147984799  0.40309877537754
 6 -2.33616309000900  4.65144664606461 -0.00842493649365
 6  3.13466004800480 -4.01251392159216 -0.02794510531053
 6 -5.55291900140014  0.59171446004600 -0.59982144694469
 6  6.66478635763576 -0.94008947854785  0.60700159835984
 6 -3.70689823272327  5.27156821532153  0.09258376907691
 6 -2.05787533913391  3.16929189018902 -0.16461223102310
 6 -0.88068865996600  6.67062273227323  0.68695774737474
 6 -4.24550411301130  5.74014997169717 -1.28147723922392
 1 -0.24904648954895  0.51123798959896 -0.18234797449745
 1  3.04425178617862 -1.22470061126113 -0.94050413781378
 1  2.56097597889789 -2.79517111371137 -2.30112665976598
 1  1.27272827902790 -3.74607871877188 -2.97099545964596
 1 -5.38846057335734 -2.63416204090409  2.53885442534253
 1  5.26045855835584  0.37765714711471 -1.29794014131413
 1  5.96403497089709  1.65429495759576 -0.08996257085709
 1 -2.66243246094609  0.01551934223422 -0.84978537603760
 1  0.29656688728873  1.84153399729973 -0.22473991949195
 1 -1.46692142794279 -4.56110068056806 -0.91960146994699
 1 -2.44477458845885 -3.34354494089409 -2.11275940904090
 1 -0.94515969586959 -4.07659472827283 -2.49632522182218
 1 -2.26193858015802 -3.37020675137514  0.62136480168017
 1  1.23523435273527 -4.95869856815682 -0.57531292119212
 1  2.62031813621362 -5.41073518041804 -1.65880126202620
 1  4.56345157815782 -0.75980714411441  1.17906764286429
 1  5.58606295169517  0.62155819451945  1.91595939903990
 1  4.30548107370737  4.84236465286529  0.29794842304230
 1  5.35774886658666  3.72835036823682  0.48716450605060
 1  4.08730576317632  3.87960343244324  2.05068078497850
 1  1.81736251485148  5.18603778117812  0.57133820902090
 1 -7.70169173747375 -2.90422550605061  1.21675294489449
 1 -6.95117918181818 -4.32285866796680  1.66693253365337
 1 -6.78690438743874 -3.87815523162316  0.12906499489949
 1 -6.85807032933293 -0.72013292179218  0.55246324742474
 1 -5.14354332643264  1.45372019291929 -0.08256551785179
 1 -6.47641601900190  1.03516259125913 -1.19375369146915
 1 -4.73995330733073  0.30884104630463 -1.31609837463746
 1 -3.53727571307131  6.16659106420642  0.76530340684068
 1 -4.47970940914091  4.74789712161216  0.59340536683668
 1 -0.27665681018102  6.80774133953395  1.72700254185419
 1 -1.75351146144614  7.15876933163316  1.02246159785979
 1 -0.49331016301630  7.02166445214521 -0.17194623752375
 1 -3.67228513551355  6.78795642134214 -1.53184738723872
 1 -5.35794850205020  5.97871098719872 -1.00397027422742
 1 -4.11581505840584  4.75210538083808 -1.92788229622962
 1  3.72017041754175 -4.62765897839784  1.81349213161316
 1  7.79004702930293 -2.50973036203620  1.65645302830283

