%nproc=4
%Mem=2GB
# td=(NStates=1) B3LYP/SVP 

TD

0 1
 8 -4.48479999079908 -4.89497386858686  1.91752578097810
 8  3.16236026472647 -4.82172347914791  1.05369950725073
 8  6.93445975027503 -1.52030930063006  1.84122680218022
 8  4.00741579907991 -3.14303232823282 -0.19681302070207
 8  7.70767030363036 -0.27682757785779  0.13676764406441
 8 -2.97011259735974  2.33956200700070 -0.33340490189019
 7 -0.32321931663166 -0.49570376347635 -0.59935694859486
 7  1.53357184988499  1.87653808630863 -0.55238681628163
 7 -3.45587757675768 -3.22504361736174  0.63432975157516
 7 -0.75172366806681  2.84774592399240  0.13810996519652
 6  0.64037630193019 -2.37043500190019 -1.36129842494249
 6  0.87613051535154 -1.03810104180418 -0.97430627952795
 6 -0.75460958965897 -2.73351171337134 -1.18652071477148
 6 -1.31330175217522 -1.43207351875188 -0.62184131413141
 6  3.78463692449245  1.48518168466847 -0.28057232403240
 6  2.47176928272827  0.86917874337434 -0.56413059805981
 6  2.16025127532753 -0.44522178007801 -0.93114258885889
 6  3.45993663376338  2.76132593479348  0.03533152345235
 6  1.63579498459846 -3.42189389068907 -2.01303864946495
 6 -5.52903180988099 -2.69646526142614  1.36513377767777
 6 -3.65600946024602 -1.89985496139614  0.11016694849485
 6  2.01879619171917  3.07605759996000  0.00397802120212
 6 -5.11076377267727 -1.61447041094109  0.39437348124812
 6  5.13014827672767  0.87558247514751 -0.38438739743974
 6 -2.71091590729073 -1.10586914231423 -0.38153462726273
 6 -1.42960262236224 -3.93619337243724 -1.66055637243724
 6 -4.38872854125413 -3.74987921972197  1.35073019861986
 6  2.15152628632863 -4.49689871357136 -1.04865409220922
 6  5.39007781018102  0.00079195569557  0.78849139633963
 6  4.53596965826583  3.80644349364936  0.44961716201620
 6  1.22647132553255  4.09899444974497  0.43584530513051
 6 -6.93281793239324 -3.37580236003600  0.87579664176418
 6 -5.78747832843284 -0.56440222422242  0.01259842674267
 6 -0.14722264156416  3.98490674047405  0.38046985888589
 6 -1.04820991959196  5.08089562326233  0.49611807730773
 6 -2.27006648034803  4.59932143354335  0.30001590759076
 6  3.17852443444344 -4.10231290149015 -0.07105941674167
 6 -5.40816452595260  0.68079336793679 -0.82674413921392
 6  6.75189506850685 -0.66216168576858  0.73970486868687
 6 -3.69371691459146  5.29263032153215  0.37074158485849
 6 -2.09358891049105  3.15148010901090 -0.02114788458846
 6 -0.64664525562556  6.59166483648365  0.74389344094409
 6 -4.20316987958796  5.67262321902190 -1.09040813231323
 1 -0.57196878177818  0.40694756055606 -0.00743048274827
 1  3.26925428642864 -1.14884302550255 -1.04129421682168
 1  2.49115899719972 -2.99058065466547 -2.35467201430143
 1  1.20253125932593 -3.96365047594759 -2.84910327042704
 1 -5.56122785008501 -2.23299192389239  2.46356689658966
 1  5.20091260376038 -0.07515813441344 -1.26464681198120
 1  5.86419498689869  1.60913044114411 -0.64214778937894
 1 -2.96971318901890  0.05201299159916 -0.22296269376938
 1  0.47662489308931  1.70099994389439 -0.49068651415142
 1 -1.27546228202820 -4.80368493899390 -1.06645615541554
 1 -2.52815292629263 -3.94223480988099 -1.78666679977998
 1 -0.90963614351435 -4.41564863366337 -2.55352094139414
 1 -2.39636202250225 -3.63189291999200  0.39634229942994
 1  1.52998382768277 -5.09683238153815 -0.25347073697370
 1  2.48090419481948 -5.48249235613561 -1.82397777967797
 1  4.66585181818182 -0.64227539093909  0.68674841094109
 1  5.35100944634463  0.30264630333033  1.88023582668267
 1  4.74722524812481  4.59236965336534 -0.35024639643964
 1  5.52473556525653  3.44121165436544  0.75537132673267
 1  4.17363439603960  4.35990146224622  1.29719543644364
 1  1.68627940654065  4.96955613301330  0.68329940514051
 1 -7.75902747104710 -2.55078016151615  0.97560883048305
 1 -7.19648371227123 -4.06000238233823  1.94355019541954
 1 -7.05933163016302 -3.81680909700970 -0.19137704930493
 1 -6.80952547484748 -0.39833074157416  0.42404040514051
 1 -5.04926389848985  1.55813063396340 -0.18370563186319
 1 -6.37867624502450  0.78981805680568 -1.39535385148515
 1 -4.47732704470447  0.55273543574357 -1.57923468826883
 1 -3.53271525702570  6.11826623172317  1.08479535603560
 1 -4.61272271047105  4.50844317621762  0.64526055235524
 1  0.04564542004200  6.45063562896290  1.74216405800580
 1 -1.41988809910991  7.19280273497350  1.03695304700470
 1  0.08870803880388  6.89672195789579  0.02697365446545
 1 -3.42974088108811  6.53899152485249 -1.68792299479948
 1 -5.32039474667467  5.93876699279928 -1.07340721792179
 1 -4.32333581048105  4.71082125242524 -1.86535604360436
 1  4.02775117561756 -4.58462467496750  1.62626340874087
 1  7.78070609520952 -1.78448783778378  1.74166154915492

