%nproc=4
%Mem=2GB
# td=(NStates=1) B3LYP/SVP 

TD

0 1
 8 -4.37474898569857 -4.84393876507651  1.95548957735774
 8  3.22564659335934 -4.68955026182618  1.17267140444044
 8  6.94325062936294 -1.73347061676168  1.77411009050905
 8  4.03870892839284 -3.11132915791579 -0.17156049544954
 8  7.60546008260826 -0.53844373947395  0.01432539983998
 8 -3.02557814391439  2.43802185298530 -0.37757931933193
 7 -0.24272126682668 -0.52565675877588 -0.65146215911591
 7  1.55494398709871  1.82878331083108 -0.41249282688269
 7 -3.28048003700370 -3.04101521452145  0.80695701430143
 7 -0.82343083878388  2.94412556195620 -0.17439128492849
 6  0.61563382768277 -2.43020097849785 -1.53475577067707
 6  0.97742064436444 -1.00285751745175 -1.11182003090309
 6 -0.75544967366737 -2.59735809800980 -1.27373943664366
 6 -1.31392181418142 -1.44521483288329 -0.69897902790279
 6  3.77334579537954  1.51004417091709 -0.27634190099010
 6  2.52600470627063  0.84109593509351 -0.55924010901090
 6  2.23294854505451 -0.48572583048305 -1.00613008760876
 6  3.50597123722372  2.84319412161216  0.04383237353735
 6  1.57254865996600 -3.51103280458046 -1.97754510011001
 6 -5.55643455015502 -2.76972258715872  1.24516178047805
 6 -3.61051491079108 -1.83105808170817  0.22811874367437
 6  2.05717002910291  2.98500849504951  0.02325994939494
 6 -5.02541523782378 -1.63067203110311  0.46931097499750
 6  5.14291955385539  0.78271318821882 -0.26812577127713
 6 -2.66238105380538 -0.95703425882588 -0.30495696949695
 6 -1.52959262136214 -3.72764251735174 -1.79405972277228
 6 -4.35715538393839 -3.73061729352935  1.47775290089009
 6  2.21907304100410 -4.47405642934293 -0.92071129792979
 6  5.32573137553755 -0.21161928542854  0.82978552575258
 6  4.45505156645665  3.95265811511151  0.57402960326033
 6  1.30843952235224  4.06869141944194  0.28890061066107
 6 -6.91484613521352 -3.46990176997700  0.70822988508851
 6 -5.85158473907391 -0.60029581358136  0.09651681858186
 6 -0.08972689198920  4.05494374417442  0.20769258115812
 6 -1.05477057565757  5.11452898659866  0.46619508500850
 6 -2.31936140984098  4.64680618201820  0.25352125812581
 6  3.23636021802180 -3.96551922212221  0.02156984618462
 6 -5.49206291579158  0.62980826942694 -0.75262672747275
 6  6.74471435043504 -0.82901837143714  0.83314421262126
 6 -3.71647919081908  5.28149920842084  0.32452696339634
 6 -2.14937448904890  3.24493945494549 -0.06219198899890
 6 -0.74354494559456  6.55173084308431  0.88050710231023
 6 -4.36942650525053  5.46238219491949 -0.95257434893489
 1 -0.34533611851185  0.20380724652465 -0.19658939863986
 1  3.08803616461646 -0.89333747494749 -1.31990207760776
 1  2.40074995629563 -2.82974457105711 -2.42734928202820
 1  1.12834384058406 -4.20118422932293 -2.72830119021902
 1 -5.68935066236624 -2.48255688038804  2.29148968886889
 1  5.20415292779278  0.38081746314631 -1.23460380768077
 1  5.76589515691569  1.73683321142114 -0.23846742134213
 1 -2.83425964366437  0.11489928022802 -0.30971136863686
 1  0.48878610921092  1.85516536043604 -0.26054349984998
 1 -1.49139387518752 -4.73017758825883 -1.30005951575158
 1 -2.73337344834483 -3.53675426182618 -1.86394452755276
 1 -1.05889106900690 -4.01343841264126 -2.75344093339334
 1 -2.19568195449545 -3.37879761046105  0.77925059025903
 1  1.26699752905291 -5.02585528382838 -0.24212960286029
 1  2.60447655205521 -5.41873598049805 -1.46977235913591
 1  4.50048528152815 -0.90945210861086  0.75545528162816
 1  5.17439178457846  0.16975301400140  1.73321112421242
 1  4.35646617221722  4.67925834223422 -0.15076644844484
 1  5.41608470017002  3.38780631383138  0.67974376397640
 1  4.24012104470447  4.49133460556056  1.68403412031203
 1  1.79550032863286  4.86104528192819  0.70648172337234
 1 -7.90601216951695 -2.87061214471447  0.78797006660666
 1 -7.09713377727773 -4.48183456555656  1.29573541394139
 1 -6.73402909990999 -3.69865728182818 -0.34864277587759
 1 -6.97262178447845 -0.64560546904690  0.28529653075307
 1 -4.75819479157916  1.40645546644664 -0.14917217851785
 1 -6.46922529992999  1.04088316331633 -1.05747006310631
 1 -4.85158447044704  0.43430359255926 -1.51358812361236
 1 -3.83125511101110  6.17828223332333  0.94833170967097
 1 -4.35164660286029  4.64501683358336  0.99149517581758
 1 -0.24302344684468  6.44660522592259  1.75241508310831
 1 -1.68442455275528  7.12208566326633  0.95043439513951
 1 -0.08859969196920  7.13185547124713  0.03550450755076
 1 -3.86381428842884  6.08425605130513 -1.69109331183118
 1 -5.56407911511151  5.70973408950895 -0.75066494369437
 1 -4.46404988188819  4.51964213451345 -1.50398990699070
 1  4.15384378487849 -4.31196740924092  1.67354813721372
 1  7.86971499609961 -1.98042743174317  1.67858524152415

