%nproc=4
%Mem=2GB
# td=(NStates=1) B3LYP/SVP 

TD

0 1
 8 -4.27736924772477 -4.83811818301830  1.81642567096710
 8  2.92764679337934 -4.99735104190419  1.08350248754875
 8  6.89775607990799 -1.43592086178618  1.96413909340934
 8  3.72682774027403 -3.13797182218222 -0.00133347274727
 8  7.60482001860186 -0.65271516661666 -0.10448648134813
 8 -3.01046663276328  2.40294834563456 -0.39776133753375
 7 -0.23795078977898 -0.56421061416142 -0.51214822772277
 7  1.52038053075307  1.86410684318432 -0.39106068366837
 7 -3.28636062506251 -3.13328444144414  0.73135945454545
 7 -0.79978847454745  2.88905005440544  0.00927708190819
 6  0.72302456675668 -2.40340829922992 -1.38741103620362
 6  0.89951285358536 -1.07022425412541 -0.95706455535554
 6 -0.65500962966297 -2.67419578177818 -1.27705976867687
 6 -1.28015843784378 -1.49599991139114 -0.64614374437444
 6  3.82605106590659  1.58733189968997 -0.41072533933393
 6  2.50057216301630  0.93272509800980 -0.64037822282228
 6  2.17827307750775 -0.47093435133513 -0.87538701330133
 6  3.44120476057606  2.84198400060006  0.15724371467147
 6  1.70971237633763 -3.26732843414341 -2.02282962856286
 6 -5.49896880358036 -2.80320593549355  1.30165743004300
 6 -3.55951981128113 -1.83552852875288  0.24595052685269
 6  1.99153346544654  2.99935993019302  0.11666929032903
 6 -4.99101179747975 -1.56015497939794  0.45867991189119
 6  5.13053831573157  0.93033795069507 -0.39753871257126
 6 -2.59017383308331 -1.03782233763376 -0.34824129792979
 6 -1.44474413651365 -3.88321807490749 -1.75925624242424
 6 -4.25604527292729 -3.77974220602060  1.40084521012101
 6  2.16340747444744 -4.56371539523952 -1.27343657045705
 6  5.35742454485449 -0.03899202270227  0.78889143634363
 6  4.43568963026303  3.96017886718672  0.50045224552455
 6  1.20552923132313  4.05113966426643  0.36653837443744
 6 -6.82581723232323 -3.41232601240124  0.86300536263626
 6 -5.83804338493849 -0.54433021702170  0.19371653855386
 6 -0.08107602690269  3.99697794759476  0.24009582148215
 6 -1.04422952155215  5.18071560526053  0.48695716121612
 6 -2.36743621732173  4.58723022442244  0.23801970797080
 6  2.98585516751675 -4.07343001320132  0.04548223742374
 6 -5.38635234473447  0.66647193579358 -0.73349481428143
 6  6.76663654265427 -0.77559302890289  0.79475037323732
 6 -3.64435197809781  5.30699175767577  0.21081559225923
 6 -2.15886543814381  3.22319728072807 -0.03696946674667
 6 -0.69971056215622  6.55567123712371  0.84054310591059
 6 -4.27749731233123  5.49693565026503 -1.12624171567157
 1 -0.34090567546755  0.34178104390439 -0.05309504920492
 1  3.02223958495850 -1.00859900110011 -1.14863495089509
 1  2.63147302860286 -2.78844044064406 -2.40874742184218
 1  1.32715372157216 -3.68570268116812 -3.02813117321732
 1 -5.55853758105811 -2.21745036973697  2.35304584448445
 1  5.31193370587059  0.49750913231323 -1.46739708700870
 1  5.92585115251525  1.59880940904090 -0.46985055965597
 1 -2.79243546124613  0.08839662996300 -0.38836923442344
 1  0.32508973957396  1.73894373827383 -0.39496694219422
 1 -1.22589732553255 -4.63425799629963 -1.12926243604360
 1 -2.42857296829683 -3.75791637803780 -1.96170430353035
 1 -0.97252243214321 -4.06400346914691 -2.69079466876688
 1 -2.45836822312231 -3.55166489718972  0.52405507070707
 1  1.35861669096910 -5.29038173647365 -0.94573996389639
 1  3.05120122452245 -5.17905201210121 -1.95789117101710
 1  4.55841107410741 -0.80726188958896  0.95422515861586
 1  5.16597094249425  0.52057809650965  1.71660946404641
 1  4.08065859145915  4.54940535693569 -0.41305267706771
 1  5.54367745944595  3.59652718591859  0.33123891349135
 1  4.29626665926593  4.27324279637964  1.54846056295630
 1  1.62754353295330  5.08648782618262  0.43725480068007
 1 -7.59780134843484 -2.59680476397640  0.82419368896890
 1 -7.08142220612061 -4.26327270937094  1.63530937133713
 1 -6.63112880988099 -3.77649506560656 -0.23576148774877
 1 -6.78643316561656 -0.44058496699670  0.81078908000800
 1 -4.87406637873787  1.46238105900590 -0.17497475877588
 1 -6.40070844824482  1.07282635763576 -1.28816313241324
 1 -4.80234954695470  0.22089225142514 -1.52106887168717
 1 -3.64902688818882  6.22367677277728  0.98429530603060
 1 -4.23672511071107  4.61492382428243  0.72979900620062
 1 -0.01367051155116  6.75050561596160  1.74513435503550
 1 -1.59030514081408  7.01330478517852  1.07082643434343
 1 -0.08695952795280  6.92414470017002  0.15762671977198
 1 -3.74392229922992  6.19030665636564 -1.82083628612861
 1 -5.17857056425643  6.13034615071507 -1.08499837703770
 1 -4.42034551145115  4.65671584188419 -1.57975748374837
 1  3.71458985948595 -4.66502271477148  1.62471325372537
 1  7.49032705730573 -2.34487387638764  1.82169955295530

