%nproc=4
%Mem=2GB
# td=(NStates=1) B3LYP/SVP 

TD

0 1
 8 -4.32002351315132 -4.90029440064006  1.74793882228223
 8  3.27275130383038 -4.98285959275928  1.05398953625363
 8  6.89405570987099 -1.56141341104110  1.91674435393539
 8  3.87566262376238 -3.04868289328933 -0.06529986938694
 8  7.42007154375438 -1.00846074117412 -0.17023305600560
 8 -3.05526111221122  2.49392744354435 -0.43956551795180
 7 -0.23419041374137 -0.50598479157916 -0.64275128802880
 7  1.50905939863986  1.91963239573957 -0.49760133773377
 7 -3.31150313931393 -3.20579169216922  0.55092141074107
 7 -0.74434292999300  2.91919306870687 -0.11340518631863
 6  0.60623288758876 -2.37644560296030 -1.32859515461546
 6  0.95063796609661 -1.03799103080308 -0.99426827572757
 6 -0.69848397709771 -2.67472583478348 -1.14683674637464
 6 -1.26541696369637 -1.42476278767877 -0.64372350235024
 6  3.76271473227323  1.53930709720972 -0.25957022382238
 6  2.46996910271027  0.89443126862686 -0.52540672567257
 6  2.23068831903190 -0.44103136103610 -0.93843331793179
 6  3.44546518661866  2.83598340054005  0.06046403670367
 6  1.71234263936394 -3.33021472277228 -1.88587593319332
 6 -5.44001290799080 -2.69071468636864  1.29105636993699
 6 -3.58985284458446 -1.86795177107711  0.13543947574757
 6  2.08173248534853  3.11697169136914 -0.06599897649765
 6 -4.94030672697270 -1.57230619451945  0.56253029692969
 6  5.08818408030803  0.81232614951495 -0.25286424512451
 6 -2.61325614131413 -1.06796535193519 -0.36194266806681
 6 -1.45262492459246 -3.81886163926393 -1.76328664546455
 6 -4.31720138853885 -3.81549578137814  1.24301942754275
 6  2.14878601230123 -4.43894291799180 -0.97324655145515
 6  5.44246304870487 -0.04943306680668  0.95388793599360
 6  4.33666972827283  3.97157000630063  0.47351955225523
 6  1.24604328272827  4.14742929322932  0.30808252885289
 6 -6.73769842044204 -3.26310108990899  0.83668273037304
 6 -5.83527310791079 -0.55874165816582  0.24724189108911
 6 -0.17049496879688  4.05776402620262  0.26021783368337
 6 -1.03062816141614  5.20079761346135  0.46104456995700
 6 -2.35981545524552  4.71023252465247  0.23954986098610
 6  3.24956153815382 -4.08465113531353  0.05928361756176
 6 -5.49081279077908  0.61213650225022 -0.64119558435844
 6  6.70281016001600 -0.92166763636364  0.77948884708471
 6 -3.72593013591359  5.27105816431643  0.32533704440444
 6 -2.12766231783178  3.23417837883788 -0.07803357315732
 6 -0.59355994709471  6.57895356535654  0.78499755135514
 6 -4.53263282588259  5.37403336003600 -0.99263835533553
 1 -0.31982356725673  0.13754061986199  0.12090235053505
 1  3.04654201520152 -1.11277941914191 -1.21556164356436
 1  2.62812269356936 -2.63702529912991 -2.15369191629163
 1  1.39647065326533 -3.75049916081608 -2.88382674277428
 1 -5.52017374467447 -2.64560318501850  2.33354389428943
 1  5.38463097559756  0.34785416681668 -1.19769011631163
 1  5.92768133553355  1.63312284038404 -0.20164373897390
 1 -2.86864308200820 -0.07423963366337 -0.36285668316832
 1  0.44398162876288  1.90616045994599 -0.39528697419742
 1 -1.20186492229223 -4.79986455695570 -1.14212372217222
 1 -2.50283039403940 -3.42514310071007 -1.58777691079108
 1 -1.05163034293429 -3.86738380718072 -2.64592018131813
 1 -2.41903428972897 -3.41544127482748  0.37518018321832
 1  1.19720054935494 -4.78698139643964 -0.55531092099210
 1  2.77850395479548 -5.11721582848285 -1.72235761766177
 1  4.52988822182218 -0.70598176157616  0.97373710981098
 1  5.42612695809581  0.52333837253725  1.78452625572557
 1  4.21016154175418  4.89048946534654 -0.31979335113511
 1  5.48931202290229  3.62159969316932  0.51980777037704
 1  4.23943097569757  4.22172764486449  1.41559727662766
 1  1.69366014461446  5.00186936433643  0.85699677487749
 1 -7.67638920722072 -2.62731781528153  1.09575084468447
 1 -7.08627269116912 -4.18676505860586  1.26217205760576
 1 -7.00977667466747 -3.61865928202820 -0.32679059065907
 1 -6.89664418671867 -0.58284919341934  0.70329833093309
 1 -5.07387635973597  1.52590741164116 -0.28153541484148
 1 -6.38768714611461  1.05777485248525 -0.91789610571057
 1 -4.99878919091909  0.26346650885088 -1.53335009980998
 1 -3.70340232573257  6.33031743684368  0.73896077257726
 1 -4.35236667486749  4.72593492539254  1.17380340664066
 1 -0.25259440394039  6.46887745314532  1.66585642724272
 1 -1.53410952125212  7.26879033373337  0.89144849654965
 1  0.03961312931293  6.93966625232523  0.01243220032003
 1 -4.15996390339034  6.11591921762176 -1.68198240074007
 1 -5.57940064726473  5.63898701480148 -0.84148402560256
 1 -4.65071854875488  4.51542171247125 -1.36811631963196
 1  4.02571097159716 -4.57286349884988  1.53297407980798
 1  7.75703372797280 -1.89971936093609  1.96874425742574

