%nproc=4
%Mem=2GB
# td=(NStates=1) B3LYP/SVP 

TD

0 1
 8 -4.39192070287029 -4.95481985318532  1.67949197759776
 8  2.95801983068307 -4.83119442624262  1.14444858215822
 8  7.05269157345735 -1.53610087978798  1.84629730923092
 8  3.70401545904590 -2.99513753875388  0.17680434103410
 8  7.66363590019002 -0.43493338843884 -0.06716274897490
 8 -3.00921650775078  2.43008105890589 -0.42372393379338
 7 -0.27693468816882 -0.49346353945395 -0.51483849674967
 7  1.56561505420542  1.81582201470147 -0.46702828042804
 7 -3.36385837483748 -3.07950906390639  0.60855717431743
 7 -0.77179567526753  2.89957110651065 -0.08669251505151
 6  0.67425969026903 -2.43236119451945 -1.36509880498050
 6  0.98522142444244 -1.05955318701870 -0.91793064196420
 6 -0.68672280098010 -2.61200956315632 -1.27689975267527
 6 -1.27462788478848 -1.42596290769077 -0.61090022002200
 6  3.82178063886389  1.51172433893389 -0.40330459725973
 6  2.58281038683868  0.89787161266127 -0.66538072307231
 6  2.24054930513051 -0.41483874177418 -0.87162663726373
 6  3.59748038813881  2.86396619881988 -0.07079908960896
 6  1.61872327742774 -3.32361406270627 -1.98099544514451
 6 -5.59956886358636 -2.78464407930793  1.27552481678168
 6 -3.64665852515251 -1.83399837573757  0.20709664146415
 6  2.11371568366837  2.98747874207421 -0.08518089468947
 6 -5.08882157845785 -1.62875183908391  0.48931297519752
 6  5.16381164306431  0.81991690859086 -0.42721167986799
 6 -2.61090590629063 -1.09631818721872 -0.34668114191419
 6 -1.42096175827583 -3.91884163726373 -1.74448476527653
 6 -4.46773644204420 -3.81716594839484  1.30577570317032
 6  2.11333246694669 -4.48115713941394 -1.05767499429943
 6  5.46229503190319 -0.03428155165517  0.83681622882288
 6  4.49768582988299  3.87345019431943  0.43578577887789
 6  1.32459113751375  4.03374792509251  0.29002072267227
 6 -6.94980963156316 -3.46965174497450  0.84556361846185
 6 -5.80497007760776 -0.55072085608561  0.07039420632063
 6 -0.04536245554555  3.98594684448445  0.27578939083908
 6 -1.03700879947995  5.12695022872287  0.50031849734974
 6 -2.29446892059206  4.61211271267127  0.27882378837884
 6  2.95553213521352 -4.00282295249525  0.16255394459446
 6 -5.48885259475948  0.61891718031803 -0.70848231303130
 6  6.81847172617262 -0.65366083568357  0.78222912111211
 6 -3.72545008790879  5.22863392189219  0.43022753345335
 6 -2.13887343894389  3.18589355035504 -0.07649341914191
 6 -0.61254184528453  6.50796646664667  0.90663971557156
 6 -4.42608217081708  5.35404136083608 -0.90451954345435
 1 -0.30054163906391  0.47160402620262 -0.08494823452345
 1  3.22324968596860 -1.05971411261126 -1.06469655705571
 1  2.52731261256126 -2.67805940254025 -2.41419796689669
 1  1.20201120732073 -3.84518862976298 -2.86337469756976
 1 -5.74321604890489 -2.44993361806181  2.25083562346235
 1  5.26889940244024  0.31789117051705 -1.41922226952695
 1  5.76700526792679  1.66879640774077 -0.61634520912091
 1 -2.83631984968497  0.04505229552955 -0.53209360686069
 1  0.59303653425343  1.83869371327133 -0.67613505900590
 1 -1.24560929672967 -4.74099867036704 -0.95054456425642
 1 -2.52253236423642 -3.84277486388639 -1.92054018711871
 1 -1.01849702960296 -3.91267833663366 -2.69613520282028
 1 -2.34078646494649 -3.35696542724272  0.89222188738874
 1  1.25223605290529 -5.12153485178518 -0.61006639653965
 1  2.56273237763776 -5.11575568246825 -1.75886126802680
 1  4.44254948794879 -0.81993315671567  1.14518425452545
 1  5.33561790719072  0.86525256395640  1.70483828692869
 1  4.77124765036504  4.64657507390739 -0.43736510831083
 1  5.50487357905791  3.39670720392039  0.78326411601160
 1  4.14224125672567  4.16798227032703  1.31321703860386
 1  1.87734851345134  4.91156033343334  0.60275135033503
 1 -7.82204377267727 -2.72416750025003  0.77645891549155
 1 -7.08714277817782 -4.35253163526353  1.42398823922392
 1 -6.97573327032703 -3.65793320942094 -0.22685059665967
 1 -6.86676119841984 -0.31368227672767  0.68355635673567
 1 -5.00047902000200  1.36948176907691 -0.00603786508651
 1 -6.36417479487949  0.92511158615862 -1.36465078117812
 1 -4.69158847084708  0.50419058125813 -1.46542330713071
 1 -3.50494247974797  6.16739114421442  1.00986786328633
 1 -4.28109954815482  4.67796012791279  1.20316634293429
 1 -0.05190433493349  6.73018358375838  1.91144098569857
 1 -1.49845595589559  7.21029448414841  1.02728207990799
 1  0.09038820682068  6.90364264996500  0.06525748284828
 1 -3.69939784678468  6.09999762546255 -1.84444864736474
 1 -5.42387509470947  5.83856697279728 -0.86342621982198
 1 -4.56544002090209  4.21849201950195 -1.27032654065407
 1  3.60838923942394 -4.61937815031503  1.78760954335434
 1  7.83702172677268 -1.88842823182318  1.64197158015802

