%nproc=4
%Mem=2GB
# td=(NStates=1) B3LYP/SVP 

TD

0 1
 8 -4.32834434523452 -4.87858222942294  1.75575960436044
 8  3.16304033273327 -4.73450475727573  1.14593873117312
 8  6.97123342764276 -1.48212548224823  1.91037371687169
 8  3.90265532303230 -3.05587361236124 -0.13340668006801
 8  7.55233477007701 -0.52531242634263 -0.12360839353935
 8 -3.04906049214922  2.38547659845985 -0.47129869126913
 7 -0.22604959965997 -0.49920411351135 -0.56383339623962
 7  1.53795228792879  1.80053048554855 -0.38743032063206
 7 -3.32914490349035 -3.15335644864486  0.61300761936194
 7 -0.78158665436544  2.95485663506351 -0.11222506830683
 6  0.65746801110111 -2.36356431483148 -1.50630292539254
 6  0.97396029832983 -1.07316454815482 -1.00711956085609
 6 -0.77098122682268 -2.64565292749275 -1.22722478517852
 6 -1.28727914991499 -1.40146045744574 -0.70815994599460
 6  3.80784924572457  1.45863903040304 -0.25127939473947
 6  2.46849895569557  0.84614644014401 -0.56551073607361
 6  2.19499474967497 -0.50378763666367 -0.94014348894889
 6  3.51726236633663  2.74400420262026  0.05937392769277
 6  1.55120652575258 -3.42353405470547 -2.03096044164416
 6 -5.50757966466647 -2.70515613051305  1.39415667996800
 6 -3.64062792209221 -1.88051302720272  0.24371030283028
 6  2.09012332443244  2.97549754395440  0.05662328572857
 6 -4.97712040834083 -1.51475043894389  0.60633467736774
 6  5.07535279717972  0.73169808670867 -0.36432539123912
 6 -2.66681149684969 -1.03875243064306 -0.32974944874487
 6 -1.52337199929993 -3.76626637973797 -1.80047036383638
 6 -4.31062073047305 -3.75324955675568  1.30418554415442
 6  2.15239637333733 -4.43613263696370 -1.00908013481348
 6  5.34613341574157 -0.13307143064306  0.89855240244024
 6  4.46855291659166  3.71670451975198  0.57264946524652
 6  1.27619629802980  4.13938848914892  0.29553127372737
 6 -6.78067271787179 -3.33678845864586  0.94775383748375
 6 -5.78134771537154 -0.52044782878288  0.18019518641864
 6 -0.16122404170417  4.08268651845184  0.25778759065907
 6 -1.15312041064106  5.14733226692669  0.48407687318732
 6 -2.36239571327133  4.62613411481148  0.23116902290229
 6  3.16074265626563 -4.00679334953495  0.11972966216622
 6 -5.39484319381938  0.48739402800280 -0.84772623742374
 6  6.74044392339234 -0.76773224282428  0.72935383358336
 6 -3.64074161706171  5.23149420792079  0.21491600230023
 6 -2.12215176677668  3.17606256725673 -0.15753152295230
 6 -0.77187777887789  6.48113378337834  1.05910496209621
 6 -4.29895945854585  5.55792174887489 -1.09495858735874
 1 -0.50158174307431  0.35092195799580  0.07447770807081
 1  3.09682704370437 -1.03454159535954 -0.94272435983598
 1  2.39047892919292 -2.96689828642864 -2.54491103820382
 1  0.90064107030703 -4.11160527142714 -2.77437579767977
 1 -5.61834356165617 -2.60413903860386  2.50045058495850
 1  5.05104761726173  0.10486986838684 -1.38885923322332
 1  5.93058162556256  1.50679020712071 -0.57352092669267
 1 -2.72242846054606  0.13985177547755 -0.44716511401140
 1  0.57200443104310  1.66306615051505 -0.48794624012401
 1 -1.34788952475248 -4.52043661416142 -1.15001451125113
 1 -2.58376848784878 -3.43817440384038 -1.80332846594659
 1 -0.97612279217922 -4.10686775557556 -2.71679726902690
 1 -2.45784817111711 -3.48683841454145  0.53480614581458
 1  1.29443027232723 -4.84705740404040 -0.39099448934893
 1  2.72927903230323 -5.16963107000700 -1.58639402130213
 1  4.33906913991399 -0.88615977937794  1.26764650075008
 1  5.37509185458546  0.64646068476848  1.68943674677468
 1  4.41839236483648  4.85366578297830  0.32577120532053
 1  5.50416350805081  3.45338287148715  0.41014680428043
 1  4.28220525312531  3.68183365546555  1.68921463836384
 1  1.77103788238824  5.22031120852085  0.48601967716772
 1 -7.62867443574357 -2.72602768626863  1.27520879047905
 1 -6.67801186508651 -4.49312569466947  1.35293113351335
 1 -7.03309900690069 -3.68773618971897 -0.17457536913691
 1 -6.74978950125012 -0.45979688818882  0.60813881498150
 1 -4.86798577067707  1.27708252915292 -0.32290955225523
 1 -6.42082045944594  1.04131320632063 -1.31544586068607
 1 -4.71206051805181  0.19063922612261 -1.60192695749575
 1 -3.55805779127913  6.22789719481948  0.78068494499450
 1 -4.43912535073507  4.62521485338534  0.86377240354035
 1 -0.33299244374437  6.29429999539954  2.16596643824382
 1 -1.66057216751675  7.27272072677268  0.98852820452045
 1  0.11996116411641  6.85302758845885  0.53594455155516
 1 -3.69454736173617  6.08932655835584 -1.82081628412841
 1 -5.32357506470647  6.21908502460246 -1.16084596179618
 1 -4.63537701460146  4.52301247154715 -1.56102561056106
 1  3.80790919141914 -4.39067528002800  1.94044482688269
 1  7.86743476807681 -1.84586397539754  1.72972035503550

