%nproc=4
%Mem=2GB
# td=(NStates=1) B3LYP/SVP 

TD

0 1
 8 -4.48319983078308 -4.95936030723072  1.57768179657966
 8  3.25554958365837 -5.13617492429243  0.87341147844784
 8  7.04457076137614 -1.41686895659566  1.87673035253525
 8  3.85786084358436 -3.12843086808681 -0.04357769716972
 8  7.62434197079708 -0.43696359145915  0.00006397369737
 8 -3.07618320442044  2.27842589338934 -0.03029459085909
 7 -0.24895188988899 -0.52528672177218 -0.55761277417742
 7  1.51902039473947  1.86010644314431 -0.35300687828783
 7 -3.40585257425743 -3.17872898589859  0.69419573817382
 7 -0.82700119581958  2.95851700110011 -0.04389823562356
 6  0.64131639593959 -2.42568052645264 -1.35751804690469
 6  0.87813071537154 -1.09991722342234 -0.94109295819582
 6 -0.74850897959796 -2.64736309850985 -1.05363742644264
 6 -1.27778820082008 -1.38309862126213 -0.58096722672267
 6  3.81383984478448  1.45269843634363 -0.31301556835684
 6  2.50685279107911  0.87322914841484 -0.52945713071307
 6  2.16004125432543 -0.48003526142614 -0.84703417801780
 6  3.56299693979398  2.82208201040104 -0.01179318901890
 6  1.69538094319432 -3.36859856115612 -1.96088343394339
 6 -5.68955786248625 -2.85682129702970  1.23361062536254
 6 -3.65246910621062 -1.83964894079408  0.32763869566957
 6  2.02185649774977  3.03747374157416 -0.05663804040404
 6 -5.04735743204320 -1.62482144604460  0.46327037093709
 6  5.08897415931593  0.75966088298830 -0.41017997669767
 6 -2.72459727542754 -1.03665222062206 -0.33323979777978
 6 -1.35767542964296 -3.83921367446745 -1.60792110891089
 6 -4.46427609600960 -3.85359959175918  1.19686481208121
 6  2.11101223492349 -4.61406042974297 -1.09957918471847
 6  5.42529133153315 -0.05098322182218  0.91624417161716
 6  4.48926498779878  3.96255910521052  0.35091729202920
 6  1.32379105750575  4.19567411771177  0.28200992159216
 6 -7.01861651225123 -3.27226200600060  0.76995605770577
 6 -5.78769835043504 -0.54151993599360  0.16552371927193
 6 -0.09786770607061  4.08741699149915  0.20696250815082
 6 -1.01668676727673  5.15772330603060  0.39237770327033
 6 -2.30980045374537  4.67414891629163  0.32720862686269
 6  3.14538112011201 -4.09589225942594 -0.01743405420542
 6 -5.45962967246725  0.55590087868787 -0.72847431223122
 6  6.81732161116112 -0.57528299789979  0.85341623982398
 6 -3.62620016291629  5.38355941444144  0.34091860256026
 6 -2.19012856445645  3.23448840984098  0.12333656385639
 6 -0.57512810391039  6.69119478947895  0.58982803440344
 6 -4.35716527912791  5.42504846154615 -1.01369046054605
 1 -0.65964754965497  0.42295916171617 -0.36032577227723
 1  3.05724308530853 -1.16479462066207 -0.82656274367437
 1  2.58832871417142 -2.76631822842284 -2.22664921202120
 1  1.24448545474547 -3.70565467636764 -2.91382974307431
 1 -5.73531525882588 -2.55685431013101  2.36381692159216
 1  5.07482999549955 -0.00240085868587 -1.21746209350935
 1  5.80065863326333  1.62996252435243 -0.60703427802780
 1 -2.90463668136814  0.03175096539654 -0.31786218371837
 1  0.58968619921992  1.75313515741574 -0.42836028152815
 1 -1.11371610741074 -4.68188275877588 -0.82034154395439
 1 -2.37405751675168 -3.68480906730673 -1.95129326242624
 1 -0.92668784868487 -4.25683275207521 -2.69403499279928
 1 -2.57953033933393 -3.63703343404340  0.85728839403940
 1  1.26197702700270 -5.39505220352035 -0.76070146004600
 1  2.73032913731373 -5.18194230113011 -1.97735311721172
 1  4.88418365136514 -0.98028919231923  1.02553228932893
 1  5.19731407680768  0.53454949364937  1.83945174827483
 1  4.62860338593859  4.60764118051805 -0.63853522532253
 1  5.58752184388439  3.49696722992299  0.57731352095210
 1  3.97104413701370  4.67448292039204  1.29785550245025
 1  1.81736251485149  5.20036921432143  0.35688676387639
 1 -7.78174974327433 -2.57715279877988  0.71394266386639
 1 -7.13591765566557 -4.21049743184318  1.13419926032603
 1 -6.80923662066207 -3.39580699679968 -0.37372528412841
 1 -6.76464098639864 -0.52775368386839  0.52126012711271
 1 -4.80794976707671  1.46433125402540 -0.26627388868887
 1 -6.23212158955896  1.20914998999900 -1.36067038313831
 1 -4.74902421442144 -0.03861369916992 -1.60594735953595
 1 -3.46351833733373  6.43876828192819  0.77873474997500
 1 -4.30497193539354  4.88944127602760  1.07929395569557
 1  0.25156601210121  6.82054261966197  1.36465630723072
 1 -1.35502161246125  7.36923037773777  0.97227657935794
 1 -0.16656748874887  7.40796308200820 -0.34957400030003
 1 -3.75800370737074  5.90134776047605 -1.75438964146415
 1 -5.34176688388839  5.93439655575558 -1.07680755795580
 1 -4.24322779967997  4.29768993929393 -1.28490799879988
 1  3.94546294679468 -4.95090130263026  1.61513229562956
 1  8.05180320492049 -1.78453784278428  2.00132751575158

