%nproc=4
%Mem=2GB
# td=(NStates=1) B3LYP/SVP 

TD

0 1
 8 -4.37306881768177 -4.99031340254025  1.72185621402140
 8  3.17885191389139 -4.95866717351735  0.93237737503750
 8  6.99239554385439 -1.65502277197720  1.79569224872487
 8  3.77379243674367 -3.10607863286329 -0.11854519391939
 8  7.54739427602760 -0.25237513261326  0.14139810711071
 8 -3.09257484358436  2.53489153995400 -0.54854641604160
 7 -0.14139113381338 -0.58678287138714 -0.53289030193019
 7  1.47687618031803  1.77957839033903 -0.30189176677668
 7 -3.32095408440844 -3.17033814681468  0.68607492609261
 7 -0.87900639633963  2.89875102450245 -0.06243008880888
 6  0.64476674097410 -2.43230118851885 -1.31801409650965
 6  0.98768167046705 -1.12321955365537 -0.96788563746375
 6 -0.72946707540754 -2.61299966216622 -1.27528959165917
 6 -1.27356777877788 -1.38784909630963 -0.65799492949295
 6  3.76032449324932  1.42858602510251 -0.14960922772277
 6  2.48211031683168  0.82982480798080 -0.55596978197820
 6  2.27793304350435 -0.45628288618862 -0.91513098769877
 6  3.50944158425843  2.73932373457346  0.17922591289129
 6  1.55853725882588 -3.36424812611261 -2.03892123772377
 6 -5.44888379507951 -2.75627124202420  1.37455471977198
 6 -3.51605546484649 -1.80332530843084  0.26787271907191
 6  2.08054236633663  3.02462245644564  0.03874149754975
 6 -4.97631032733273 -1.58066703060306  0.55031907580758
 6  5.08191345324532  0.71352626952695 -0.30160911961196
 6 -2.55623043874387 -0.96560511591159 -0.22670914471447
 6 -1.45710537263726 -3.76837659075908 -1.82490280708071
 6 -4.29669933833383 -3.83113734553455  1.32352747834783
 6  2.07007814151415 -4.51721074477448 -1.11291051785179
 6  5.44770357275728 -0.21594971847185  0.90189273647365
 6  4.50783684498450  3.85567841714171  0.40809300960096
 6  1.21270994939494  4.15520007030703  0.22219393999400
 6 -6.65753040364036 -3.47297207700770  0.87545660776078
 6 -5.75810539113911 -0.52476826082608  0.25109227612761
 6 -0.13060097939794  4.02985123492349  0.26946875877588
 6 -1.10949604820482  5.18458599229923  0.37486595209521
 6 -2.41288076177618  4.75214671607161  0.18198410441044
 6  3.03887046904691 -4.10326299649965 -0.08084039483948
 6 -5.41875558505851  0.81898718731873 -0.42151361616162
 6  6.68845872487249 -0.76918238783878  0.93502440064006
 6 -3.77492503540354  5.25041610011001  0.23794830553055
 6 -2.16452600420042  3.32881784278428 -0.22452822262226
 6 -0.76723731483148  6.52555822582258  0.78099715131513
 6 -4.29529909250925  5.47618357505751 -1.22748183968397
 1 -0.29776136103610  0.33102996879688 -0.11703144284428
 1  3.18627598859886 -1.07019516071607 -1.21203129052905
 1  2.48827870917092 -2.89424102070207 -2.37162370947095
 1  1.07907891409141 -4.01601571247125 -2.90207856795680
 1 -5.48326005330533 -2.51738036273627  2.52769330923092
 1  5.13244575707571  0.24760414181418 -1.27845819311931
 1  5.92003057045704  1.33277280538054 -0.57875144974497
 1 -2.69236545424542  0.15069285958596 -0.48573897139714
 1  0.45021225182518  1.95506535043504 -0.37931537703770
 1 -1.60773550935094 -4.60991556205621 -1.20079958975898
 1 -2.46110622162216 -3.52458304470447 -2.30164829792979
 1 -0.86629180908091 -4.27148421722172 -2.60533612291229
 1 -2.36867925422542 -3.63999373007301  0.57471013621362
 1  1.13677450675068 -4.96047874617462 -0.60574596449645
 1  2.60451655605561 -5.23139724662466 -1.70662604450445
 1  4.70001523452345 -1.09995115851585  1.08372810891089
 1  5.13973831923192  0.25478151685168  1.90504830793079
 1  4.31927245284528  4.77136755315532 -0.37546891869187
 1  5.54027711941194  3.25711324452445  0.46132192179218
 1  4.41718875147515  4.15805127722772  1.39964568146815
 1  1.67624840344034  5.06506568396840  0.49152022722272
 1 -7.56683825212521 -2.61924700820082  0.89691096069607
 1 -7.12060612451245 -4.28413479557956  1.53864970537054
 1 -6.30146584358436 -3.80780819691969 -0.14542245384538
 1 -6.96444096639664 -0.43595450395039  0.42854085518552
 1 -4.89732870497050  1.54925974687469  0.36164890359036
 1 -6.40371874927493  1.39795887088709 -0.65055937203720
 1 -4.70247955995599  0.70249041124112 -1.29087585238524
 1 -3.62982496799680  6.21966637173717  0.73437031353135
 1 -4.39518095629563  4.59639197109711  0.91387741404140
 1  0.13989484498450  6.59885045044504  1.62764260586059
 1 -1.51697780808081  7.18783223792379  1.17185653735374
 1 -0.26805763776378  7.30035232093209  0.06396735383538
 1 -3.69036694369437  6.21363898959896 -1.71909611211121
 1 -5.24646735393539  5.93601671777178 -1.15574545174517
 1 -4.41727520442044  4.39831000130013 -1.62190169816982
 1  3.85628402890289 -4.38374458695870  1.47497828022802
 1  7.92060008460846 -1.85462485148515  1.59374675767577

