%nproc=4
%Mem=2GB
# td=(NStates=1) B3LYP/SVP 

TD

0 1
 8 -4.10052156295630 -4.85117948914892  1.82571660006001
 8  2.78982301100110 -4.93236454325432  1.07862199949995
 8  6.97663396769677 -1.53427069676968  1.91148382788279
 8  3.82389744724472 -3.15105313031303  0.02808946954695
 8  7.53092262886289 -0.66511640674067 -0.08428446114611
 8 -3.04407999409941  2.35998404920492 -0.53049461086109
 7 -0.26613360806081 -0.41410560366037 -0.55675268816882
 7  1.57659615231523  1.81471190369037 -0.38582015961596
 7 -3.22419440844084 -3.10286139913991  0.64982130073007
 7 -0.85569406510651  2.86478762816282 -0.10604445024502
 6  0.69212147644764 -2.31127908630863 -1.52441473657366
 6  0.94632753505351 -0.99985721742174 -0.97342619151915
 6 -0.71867599629963 -2.60918928112811 -1.20433249594959
 6 -1.24738516051605 -1.37336764816482 -0.59376850685068
 6  3.76431489228923  1.51958512501250 -0.31370563736374
 6  2.51424353015302  0.90331215671567 -0.62832701770177
 6  2.18350360056006 -0.41952921082108 -1.00953042764276
 6  3.59212985308531  2.79235903810381  0.24733272357236
 6  1.63368477357736 -3.27586928822882 -2.13955130073007
 6 -5.46444535123512 -2.84823043794379  1.45787305160516
 6 -3.59794365366537 -1.80777575347535  0.17053298509851
 6  2.12132644474447  2.99665966016602  0.16794441784178
 6 -5.04557725402540 -1.62578154205421  0.62059610351035
 6  5.07777303920392  0.87785270217022 -0.31640059875988
 6 -2.62095691139114 -0.92858141354135 -0.33506998079808
 6 -1.41874153625363 -3.82191194429443 -1.67398771557156
 6 -4.28877854625463 -3.75295952775277  1.28961408700870
 6  2.16969810351035 -4.45825484918492 -1.24395362216222
 6  5.46486528892889 -0.02781090459046  0.87896044324432
 6  4.48691475277528  3.79532238153815  0.60433263356336
 6  1.26383506190619  4.02600715101510  0.31637335793579
 6 -6.79571422202220 -3.42014679447945  0.93254231633163
 6 -5.77211679227923 -0.62954873887389  0.14272143904390
 6 -0.17778569786979  3.98071632143214  0.20295210711071
 6 -1.13223832243224  5.14014154785479  0.53342180768077
 6 -2.34873434713471  4.64228572997300  0.21183708970897
 6  2.94790137213721 -4.01390406060606 -0.00835314611461
 6 -5.54748845834583  0.59357464606461 -0.66019748454845
 6  6.78233811281128 -0.79484495409541  0.79147004520452
 6 -3.75232277517752  5.23385444394439  0.25632014271427
 6 -2.15986553815382  3.18992395339534 -0.19272504230423
 6 -0.79366995809581  6.56205187518752  0.82229128072807
 6 -4.20900046264626  5.54883083978398 -1.16904599609961
 1 -0.23613519841984  0.46054292009201 -0.00753049274928
 1  3.01093845484549 -1.12658079927993 -1.17565765316532
 1  2.78261814311431 -2.74456605320532 -2.43785033213321
 1  1.23119412561256 -3.81650576147615 -3.06439479957996
 1 -5.65218694599460 -2.61136976167617  2.54211475137514
 1  5.31062357485749  0.06840622202220 -1.09560990829083
 1  5.90651921932193  1.57366689478948 -0.63446702130213
 1 -3.04854107180718  0.06988477877788 -0.33164356185618
 1  0.55595282588259  2.03809365326533 -0.66452389788979
 1 -1.38022275807581 -4.73155772627263 -0.80379988978898
 1 -2.47990810181018 -3.68334892129213 -1.88936706980698
 1 -1.10607578747875 -4.33799086788679 -2.44300989028903
 1 -2.31809419571957 -3.35910564126413  0.82998566376638
 1  1.31799262856286 -5.11150384868487 -0.89590498039804
 1  2.83288939333933 -5.02197630453045 -1.94205958785879
 1  4.43944917791779 -0.66947811121112  1.20315005110511
 1  5.59924426982698  0.63844988368837  1.67085488858886
 1  4.48708923452345  4.82437285368537  0.17286591479148
 1  5.45704879657966  3.53123065626563  0.20803659325933
 1  4.57854488708871  3.88032350445045  1.70053577047705
 1  1.81915269386939  4.96975615301530  0.66034710991099
 1 -7.58568013631363 -2.82302738623862  1.00998226782678
 1 -6.84208827272727 -4.43601998409841  1.54467030743074
 1 -6.75956165316532 -3.61262867896790 -0.21464937653765
 1 -6.86449097139714 -0.81547245574557  0.44849285038504
 1 -4.92234120622062  1.43097791869187 -0.10835809710971
 1 -6.40478885628563  1.10645972097210 -0.96993130923092
 1 -4.96961627362736  0.38322848504851 -1.61802856765677
 1 -3.64489647514751  6.12660706580658  0.79855673217322
 1 -4.46091752995300  4.65161749364936  0.69383540984098
 1  0.03314416991699  6.45271583698370  1.66469631123112
 1 -1.78321443174317  7.00851430613061  0.96406575827583
 1 -0.34542537453745  7.10494277997800 -0.19700874377438
 1 -3.45217312431243  6.33635126082608 -1.58286248874887
 1 -5.16424913211321  5.97948106420642 -1.15107498469847
 1 -4.01052452935294  4.59296946724672 -1.77205671367137
 1  3.38355675617562 -4.50589680218022  1.68991977437744
 1  7.89704772937294 -1.76907629662966  2.02047943094309

