%nproc=4
%Mem=2GB
# td=(NStates=1) B3LYP/SVP 

TD

0 1
 8 -4.23517502830283 -4.99754412561256  1.53281731013101
 8  2.96887091579158 -4.96448775557556  1.06245038233823
 8  6.93363966826683 -1.38571584128413  2.01017369686969
 8  3.72218727622762 -3.09382740774077  0.04043070367037
 8  7.64008354495450 -0.61455135023502 -0.00191622432243
 8 -3.02489807590759  2.38018606940694 -0.25628719011901
 7 -0.25694268896890 -0.52053624672467 -0.54614162706271
 7  1.60407890059006  1.80729116161616 -0.43321489908991
 7 -3.34326631563156 -3.20201131413141  0.50133645224522
 7 -0.73116161186119  2.90325147454745 -0.09376322212221
 6  0.62770503480348 -2.35975393379338 -1.40134242934293
 6  1.00099300160016 -1.13207043874387 -0.86480532943294
 6 -0.68549267796780 -2.64655301750175 -1.24244630733073
 6 -1.29686010801080 -1.46934724612461 -0.65503463346335
 6  3.82407086788679  1.48906207270727 -0.35964023082308
 6  2.55612771857186  0.89158098359836 -0.57074125912591
 6  2.22493774397440 -0.51698895679568 -0.84263373797380
 6  3.56701734183418  2.91698150035004 -0.07642965266527
 6  1.59996140124012 -3.36483818511851 -1.94270161576158
 6 -5.44522342904290 -2.84450006490649  1.29966723102310
 6 -3.61417527682768 -1.87595257115712  0.10962689448945
 6  2.15788010011001  3.05530552475247 -0.00405278187819
 6 -5.01405410171017 -1.62747171107111  0.48599264316432
 6  5.17085234713471  0.78033295019502 -0.35939489818982
 6 -2.67606242194219 -1.10138869426943 -0.36793326712671
 6 -1.51248091019102 -3.79976973007301 -1.83649396619662
 6 -4.39779944834484 -3.84051828362836  1.16730185578558
 6  2.11945307900790 -4.42235125882588 -1.05223445024502
 6  5.42058086048605 -0.08383650715072  0.79982252945295
 6  4.49868592989299  4.01567441674167  0.29497169746975
 6  1.28510718911891  4.16161071137114  0.24057577817782
 6 -6.91132578317832 -3.34342912271227  1.02647170927093
 6 -5.79663924452445 -0.61628741274127  0.18095526242624
 6 -0.09366728602860  3.96822507230723  0.34643645554555
 6 -1.07457255585559  5.18650618431843  0.55349381488149
 6 -2.36778625232523  4.66200770217022  0.23040894689469
 6  2.98611519351935 -4.07292996319632  0.06537422662266
 6 -5.49326303580358  0.67276256485649 -0.52827429222922
 6  6.77063694269427 -0.67487295689569  0.88054895309531
 6 -3.73362090499050  5.27836889538954  0.44984949564956
 6 -2.14087363896390  3.18565352635264 -0.05646141594159
 6 -0.59992058315832  6.62388805880588  0.64192324392439
 6 -4.41430099269927  5.57048300500050 -1.03460255175518
 1 -0.16857844274427  0.44261112691269 -0.20401014071407
 1  3.11157851885188 -1.07582572377238 -1.21443153055306
 1  2.64098397969797 -2.90044164076408 -2.14694124122412
 1  1.21312231843184 -3.75461957285728 -2.89640800090009
 1 -5.36644837213721 -2.35866449114912  2.47897843774377
 1  5.11729424192419  0.15382476387639 -1.40832117941794
 1  5.91386995439544  1.64490401850185 -0.28947252185219
 1 -2.78511472917292  0.15135292559256 -0.20036043354335
 1  0.56675390599060  1.72244208810881 -0.67369481498150
 1 -1.79617435323532 -4.53796836733673 -1.11915142494249
 1 -2.47755786678668 -3.42510309670967 -2.09476760986099
 1 -0.83441862176218 -4.38882595139514 -2.59193478277828
 1 -2.36957934423442 -3.59795952665267  0.60097276247625
 1  1.28053888318832 -5.04539723802380 -0.51030642054205
 1  2.48816492089209 -5.36083018991899 -1.58803418531853
 1  4.70407564056406 -0.85221638503850  0.97791752785279
 1  5.11224556995700  0.34274031273127  1.78526632973297
 1  4.32561308690869  4.79392980938094 -0.39124049584959
 1  5.61606469816982  3.86412394559456  0.25974176377638
 1  4.13780081268127  4.39197466956696  1.36235195209521
 1  1.73588436703670  5.11878105550555  0.56268734393439
 1 -7.72624419271927 -2.64440952445244  1.34115538513851
 1 -7.24349841374137 -4.25296167826783  1.54711055145514
 1 -7.16871256825683 -3.80518793489349 -0.10724863646365
 1 -6.77267178947895 -0.73263417191719  0.70101810291029
 1 -4.93262223432343  1.41296611751175 -0.02721998329833
 1 -6.45556393379338  1.14463353835384 -0.74539885598560
 1 -4.98343765576558  0.57070723292329 -1.43859062386239
 1 -3.41855384088409  6.30219462456246  0.96504338083808
 1 -4.39116055425543  4.56115844774477  0.92786881318132
 1  0.03953480898090  6.77859842524252  1.42563240484048
 1 -1.46211232153215  7.20504395909591  0.88440779247925
 1 -0.17309814181418  7.20072235793579 -0.36681572447245
 1 -3.88520642764276  6.25889351505151 -1.63210741324132
 1 -5.49950265746575  5.95412852895290 -0.67145702290229
 1 -4.33489696659666  4.58097826812681 -1.46993650165016
 1  3.32308070857086 -4.54588080058006  1.92553333573357
 1  7.68007603220322 -1.84041343034303  1.87100448344835

