%nproc=4
%Mem=2GB
# td=(NStates=1) B3LYP/SVP 

TD

0 1
 8 -4.36710822162216 -4.89240361156116  1.86179020742074
 8  3.05583961266127 -4.97267857465746  1.02621675897590
 8  7.11018732303230 -1.49149641934193  1.89637231673167
 8  3.78937399489949 -3.20059808480848 -0.06833017241724
 8  7.62304184078408 -0.60887078217822 -0.17032306500650
 8 -3.14448003410341  2.51128917971797 -0.46486804820482
 7 -0.25268226292629 -0.50934512761276 -0.55989300220022
 7  1.55866435913591  1.88407884038404 -0.44445602320232
 7 -3.34861685068507 -3.12172328532853  0.67412373097310
 7 -0.78971746744674  2.88824997439744 -0.10017386318632
 6  0.73199546384638 -2.36848480688069 -1.30146244134413
 6  1.02605550785078 -1.05851308300830 -0.99549839873987
 6 -0.61291542024202 -2.56908527072707 -1.19445150785079
 6 -1.27899832183218 -1.40030034143414 -0.67399652965297
 6  3.75836429722972  1.59254242074207 -0.17312157895790
 6  2.53921602740274  0.93140496599660 -0.56790097509751
 6  2.23933918411841 -0.40158741664166 -0.78241771637164
 6  3.49021966206621  2.85655545774577  0.11520951125113
 6  1.65732713781378 -3.31127282858286 -2.05824316991699
 6 -5.49016792349235 -2.78321393629363  1.40153741804180
 6 -3.56989084838484 -1.83361833773377  0.22576850865087
 6  2.07767207930793  3.04706470067007  0.02245986938694
 6 -5.00038273457346 -1.61354031793179  0.44870891479148
 6  5.16154141604160  0.83605852275228 -0.31182014071407
 6 -2.67091190689069 -0.98515707110711 -0.40347682148215
 6 -1.42544220632063 -3.91850160326033 -1.66396671347135
 6 -4.30815048344834 -3.76378060986099  1.36194131973197
 6  2.05647678137814 -4.46808583228323 -1.17565679247925
 6  5.34252305470547 -0.20884900840084  0.79828237543754
 6  4.43379944124412  3.97149999929993  0.57556975727573
 6  1.29286796519652  4.07167171747175  0.36154787538754
 6 -6.88217286788679 -3.35908068786879  0.96408547064706
 6 -5.86222580318032 -0.59335511951195  0.12820998789879
 6 -0.13802172147215  4.05084333413341  0.32899471137114
 6 -1.20867596619662  5.08644617831783  0.54778324382438
 6 -2.42040151385139  4.66603810521052  0.18728463446345
 6  3.02778936093609 -4.16256892709271  0.00190787998800
 6 -5.42522623212321  0.54970025862586 -0.74021548634863
 6  6.79707958695870 -0.81357682728273  0.74743564176418
 6 -3.70775831873187  5.33640469896990  0.18920343104310
 6 -2.16799635123512  3.16846180718072 -0.09191496129613
 6 -0.73877446854685  6.53589925992599  0.98519757135714
 6 -4.22441200380038  5.46898285498550 -1.24841393289329
 1 -0.28855043994399  0.43635050085008 -0.06569630933093
 1  3.09780714171417 -0.98017615881588 -1.00346043344334
 1  2.64964484578458 -2.69297089368937 -2.29817636473647
 1  1.15703670987099 -3.57969208010801 -2.86852521262126
 1 -5.36532826012601 -2.47578620332033  2.40198073797380
 1  5.16598911141114  0.36660604200420 -1.38938928622862
 1  5.89157772517252  1.54565409350935 -0.47196077067707
 1 -2.74889110681068  0.12966075637564 -0.48852925042504
 1  0.55731296189619  1.86250609450945 -0.45400284578458
 1 -1.08635337113711 -4.65859042954295 -1.07461697149715
 1 -2.52753286428643 -3.91374196059606 -1.54635276837684
 1 -1.33367854775478 -4.02908997779778 -2.93091868116812
 1 -2.43545593189319 -3.50135986668667  0.84782744794479
 1  1.26405723502350 -5.04112681098110 -0.77226261616162
 1  2.59208531293129 -5.34414852175218 -1.75254063596360
 1  4.64801003400340 -1.02533369676968  0.64021375747575
 1  5.03367771317132  0.31150718941894  1.58775657875788
 1  4.50851137673768  4.82264268066807 -0.28734010581058
 1  5.48074116581658  3.52991052425243  0.72183797339734
 1  4.16281331393139  4.49826529862986  1.53823954085409
 1  1.81334211281128  5.09057823522352  0.77858893409341
 1 -7.76007757605761 -2.58843392689269  0.87157842744274
 1 -7.15549961386139 -4.20056643874387  1.38238407880788
 1 -6.66570226722672 -3.60528794489449 -0.15402331393139
 1 -6.89047356965697 -0.61551245974597  0.48461646274628
 1 -4.94042301440144  1.39592441334133 -0.35824308560856
 1 -6.41465984338434  0.86270534553455 -1.08199251535153
 1 -4.81475078707871  0.16172633483348 -1.62382914771477
 1 -3.85405739123912  6.40047445254525  0.67871474797480
 1 -4.27255869406941  4.74644697659766  1.00325635193519
 1 -0.09017816231623  6.43363392879288  1.89322916451645
 1 -1.41652776307631  6.99113256795680  1.30410976267627
 1 -0.22681351335133  7.04170645634564  0.11921287838784
 1 -3.65276318331833  6.08891651735174 -1.99375357785779
 1 -5.10722342954295  6.05910902700270 -1.14776465366537
 1 -4.48166164306431  4.35185535583558 -1.70767027502750
 1  3.76864526502650 -4.80045625812581  1.71850263266327
 1  7.94525254985499 -2.03384277327733  1.65174255725573

