%nproc=4
%Mem=2GB
# td=(NStates=1) B3LYP/SVP 

TD

0 1
 8 -4.26098760956096 -4.79734410561056  1.86281030943094
 8  2.99032306100610 -4.84830613741374  1.02437657495750
 8  6.97513381768177 -1.71941921162116  1.73017569706971
 8  3.91125618311831 -3.19603762876288 -0.24811815121512
 8  7.71587112371237 -0.18059795489549  0.22770673797380
 8 -2.95847143324332  2.34841289208921 -0.49290085148515
 7 -0.26977397209721 -0.55500969406941 -0.43328034093409
 7  1.59979847254725  1.75682611511151 -0.35112669026903
 7 -3.28996098509851 -3.06980809380938  0.70673699229923
 7 -0.78020651635164  2.86239738913891 -0.15930977677768
 6  0.58403066736674 -2.44419237763776 -1.29922221732173
 6  0.96640954325433 -1.03265049674968 -0.87995684458446
 6 -0.74990911961196 -2.72407076927693 -1.22240430313031
 6 -1.28466888888889 -1.49529984138414 -0.65315444544454
 6  3.78930739153915  1.48476164266427 -0.16162042884288
 6  2.41620372617262  0.80614243974397 -0.47246143114311
 6  2.17882313251325 -0.48931618951895 -0.89602907750775
 6  3.44782542264226  2.86473627582758  0.18196618691869
 6  1.62678408350835 -3.28977067836784 -1.99996734233423
 6 -5.48082698939894 -2.82770838573857  1.37521478577858
 6 -3.58405226452645 -1.84535951185118  0.05729166096610
 6  2.14037834993499  2.98254824902490  0.05136275967597
 6 -5.03216591289129 -1.56625558945895  0.46324036793679
 6  5.09054431633163  0.88389330623062 -0.26622558125813
 6 -2.61177599329933 -1.07036559195920 -0.44143061686169
 6 -1.56649631173117 -3.84322407550755 -1.71866218301830
 6 -4.34867453585359 -3.75173940574057  1.38107323292329
 6  2.05744687838784 -4.59129815351535 -1.23580280708071
 6  5.35585438783878 -0.16534465796580  0.94376692389239
 6  4.48073413471347  3.96094894419442  0.37959015931593
 6  1.30904958335834  4.08470302060206  0.14723644424442
 6 -6.86291094169417 -3.45528030783078  1.07734679677968
 6 -5.79890947154716 -0.60326611061106  0.07189435633563
 6 -0.13066098539854  4.09182743254325  0.16658847074707
 6 -1.07431252985298  5.19038657235724  0.47106557205721
 6 -2.29209868356836  4.69548104950495  0.15102100810081
 6  3.08360494249425 -4.07534020422042 -0.16788909970997
 6 -5.57554126362636  0.61434672327233 -0.85972743754375
 6  6.81090096909691 -0.65351082068207  0.90550144834483
 6 -3.60540808370837  5.32421347984798  0.29575408610861
 6 -2.12956250785079  3.13883884488449 -0.11795756555656
 6 -0.73167375847585  6.50460613061306  0.95816486808681
 6 -4.38006756935694  5.54356031273127 -1.01412050355036
 1 -0.42621420632063  0.43277014281428  0.15461572187219
 1  3.04608196919692 -1.17389553075308 -0.98025811321132
 1  2.43390327162716 -2.67777937453745 -2.53093964106411
 1  1.19243024922492 -3.78442255315532 -2.92928128822882
 1 -5.61948367566757 -2.44150277497750  2.46195673557356
 1  5.03078559105911  0.21115049644965 -1.12529287658766
 1  5.82560112751275  1.67965749384939 -0.29264283888389
 1 -2.97438365606561  0.13743153345335 -0.47495789328933
 1  0.59572680328033  1.81028087198720 -0.44846229172917
 1 -1.52369710551055 -4.67723229372937 -1.16776628642864
 1 -2.57252736373637 -3.49495008140814 -1.90884901800180
 1 -1.19772495239524 -4.12320938973897 -2.63597918721872
 1 -2.27861024732473 -3.52040177087709  0.51111377657766
 1  1.29600042934293 -5.26332903120312 -0.74501989188919
 1  2.88321442584258 -5.24359846674667 -1.82433781568157
 1  4.65791102410241 -0.93215437883788  0.83848358445845
 1  5.32094644004400  0.33251929062906  1.88998680178018
 1  4.29988051365137  4.68182859925993 -0.54997636943694
 1  5.47290038173817  3.63515104830483 -0.00599480988099
 1  4.49463649624962  4.52061753385339  1.41294701160116
 1  1.80027080568057  5.10561973937394  0.39505058025803
 1 -7.59562113041304 -2.73218830233023  1.49843111271127
 1 -6.83332739663966 -4.18846522862286  1.71184702510251
 1 -7.26965266226623 -3.65997341344134 -0.08172608420842
 1 -6.80668519081908 -0.50361126962696  0.31900990209021
 1 -5.18922789488949  1.30110493139314 -0.09430669196920
 1 -6.51889026642664  1.03701277627763 -1.25468978507851
 1 -4.87748706070607  0.26675683788379 -1.58739550435043
 1 -3.55867785328533  6.38201260636064  0.81901877837784
 1 -4.18237967616762  4.60839317121712  0.91937796409641
 1 -0.46690583508351  6.34412497789779  2.13494333593359
 1 -1.40797690799080  7.31480493519352  0.85757510921092
 1  0.38078724672467  7.29257154285429  0.48819977707771
 1 -3.79925783278328  6.37564519021902 -1.39348355085509
 1 -5.52900560776078  5.91980509660966 -1.03061293849385
 1 -4.45756923382338  4.63609377967797 -1.75707521552155
 1  3.67994639513951 -4.31746795929593  1.57846862926293
 1  7.91622964756476 -1.99497888688869  1.65184256725673

