%nproc=4
%Mem=2GB
# td=(NStates=1) B3LYP/SVP 

TD

0 1
 8 -4.16610812161216 -4.91815618681868  1.81411543994399
 8  3.14465849454945 -4.90639194599460  0.86329046634663
 8  6.79193549784979 -1.63649091879188  1.97505018451845
 8  3.77957301480148 -2.99698772377238 -0.20858419781978
 8  7.35994553115312 -1.17288718381838 -0.20880691339134
 8 -2.98977456355636  2.31144919571957 -0.13038459985999
 7 -0.22323931863186 -0.48362255535554 -0.50407742064206
 7  1.56595508820882  1.78760919341934 -0.19541111871187
 7 -3.24937692669267 -3.15517663066307  0.68120443904390
 7 -0.77899639533953  2.92345349474947 -0.04261810761076
 6  0.65686795109511 -2.29264722312231 -1.29304159925993
 6  0.98642154445445 -1.02304953665367 -0.84474332323232
 6 -0.65949007770777 -2.53137149934994 -1.21978404110411
 6 -1.27120754275428 -1.33484379577958 -0.62933206320632
 6  3.80692915371537  1.51629479597960 -0.06972123892389
 6  2.48603070887089  0.91629345484548 -0.52523670867087
 6  2.19984523472347 -0.38887614551455 -0.96226570117012
 6  3.44560520062006  2.90403020522052  0.09810780108011
 6  1.69025043014301 -3.25816751805181 -2.01994934053405
 6 -5.47988689538954 -2.87268288318832  1.30663792809281
 6 -3.61362522182218 -1.75451042694269  0.36151208300830
 6  2.14970928302830  3.11334132833283  0.06723434683468
 6 -4.97392008830883 -1.67788675257526  0.52881692559256
 6  5.12275753765377  0.86089100600060 -0.28152711141114
 6 -2.60106492219222 -0.95106366176618 -0.16337281108111
 6 -1.37061672377238 -3.76464621772177 -1.77341765856586
 6 -4.28912858125813 -3.84335856765677  1.30567569316932
 6  2.08147928162816 -4.40377940164016 -1.13854308110811
 6  5.39989879227923 -0.12272039553955  0.91820436763676
 6  4.43365942724272  4.02931578087809  0.40206240654065
 6  1.25664434283428  4.20727527782778  0.27113883448345
 6 -6.78803345394539 -3.45425020482048  0.73122218431843
 6 -5.82895247584758 -0.62760854485449  0.18504567146715
 6 -0.18340625992599  4.01178942874287  0.25268708060806
 6 -1.16938203680368  5.24355188888889  0.32960142564256
 6 -2.39418889258926  4.65564706610661  0.25205111111111
 6  3.12174875687569 -4.02234490469047 -0.07542985378538
 6 -5.36830053955396  0.58197348594859 -0.64094555935594
 6  6.66545642464247 -0.92733820342034  0.81060195839584
 6 -3.74278182108211  5.40501155965597  0.16586109680968
 6 -2.11568111971197  3.20780574157416  0.00275450565057
 6 -0.70724131523152  6.64572024202420  0.64786383798380
 6 -4.35352491509151  5.37535349204920 -1.33906299779978
 1 -0.42192377727773  0.67439430523052 -0.24118385808581
 1  3.02912027302730 -1.01869001020102 -1.04735482288229
 1  2.67937781908191 -2.67605920252025 -2.37203375047505
 1  1.07757876407641 -3.61876598749875 -2.81284964506451
 1 -5.68087981528153 -2.65789441414141  2.27894843474347
 1  5.12526503900390  0.18579796119612 -1.30069041634163
 1  6.04692325972597  1.63038256635664 -0.57711128572857
 1 -2.75326154385439  0.20578836913691 -0.31261165866587
 1  0.43033026362636  1.69633947784778 -0.51232867836784
 1 -1.42034677047705 -4.61676624712471 -1.01832134193419
 1 -2.34253436443644 -3.60496108250825 -2.12308044114411
 1 -0.67818299819982 -4.05378244704471 -2.73733932323232
 1 -2.45633802010201 -3.51453118381838  0.69098176337634
 1  1.20995182448245 -4.88405110341034 -0.60462585248525
 1  2.64778088248825 -5.23131723862386 -1.71511689358936
 1  4.64094932793279 -0.85958712211221  0.74857459355936
 1  5.27881222662266  0.47512355105511  2.05345314841484
 1  4.57324785038504  4.71967238363836 -0.81201257305731
 1  5.42921601330133  3.62288982218222  0.70620641024102
 1  3.79280631323132  4.80256572867287  1.15725144204420
 1  1.83044382298230  5.25028420582058  0.49588066326633
 1 -7.60904247254725 -2.88324340784078  1.03199446904691
 1 -6.87541160506051 -4.44811119321932  1.24936077647765
 1 -6.57429312631263 -3.61151856795680 -0.31682959455946
 1 -6.95736025832583 -0.49593050155015  0.46190419151915
 1 -4.55091406350635  1.15370019091909 -0.06478373967397
 1 -6.27702608000800  1.19945902090209 -0.96092040814081
 1 -4.75279459145915  0.13012317451745 -1.49186595139514
 1 -3.56496848234824  6.39835424052405  0.88710558705871
 1 -4.42705414361436  4.90285261716172  0.76747277357736
 1 -0.33113225772577  6.51526209160916  1.68184802640264
 1 -1.64512062236224  7.14958841354135  0.56773612531253
 1 -0.23305413741374  7.09811209690969 -0.28715775867587
 1 -3.76193410041004  6.10915854155416 -1.77332153465346
 1 -5.36018872607261  5.86171928802880 -1.20908078527853
 1 -4.22857633453345  4.23585375567557 -1.75339484748475
 1  3.80085848634864 -4.78225443794379  1.66335711811181
 1  7.69565759035904 -2.23038242724272  1.94870225322532

