%nproc=4
%Mem=2GB
# td=(NStates=1) B3LYP/SVP 

TD

0 1
 8 -4.20324183498350 -4.76403077427743  1.88042207060706
 8  2.92909693839384 -4.98042934973497  1.16738087538754
 8  7.00307661196120 -1.34207147684768  1.87351003050305
 8  3.64462952045205 -3.11590961596160  0.01526818741874
 8  7.47320685728573 -0.71749164426443 -0.28803483618362
 8 -3.08145373147315  2.41523957475748 -0.41012257365737
 7 -0.21013800850085 -0.48379257235724 -0.64731174407441
 7  1.52990148284828  1.83268370087009 -0.17616919451945
 7 -3.21600358935894 -3.08788990199020  0.66839315791579
 7 -0.86551504720472  2.89875102450245 -0.13000684648465
 6  0.66089835413541 -2.45926388478848 -1.37761005610561
 6  1.03456635893589 -1.14221145284528 -1.05182403130313
 6 -0.72594672337234 -2.60121848404841 -1.17428949164917
 6 -1.21976239823982 -1.45150546194619 -0.68514764476448
 6  3.80057851865187  1.60193335983598 -0.27227149394940
 6  2.50115222102210  0.89493131863186 -0.49525371037104
 6  2.25348059825983 -0.43935119301930 -0.93484295889589
 6  3.47736837693769  2.92418222042204  0.04563255355536
 6  1.65569697479748 -3.37182888418842 -1.98230557615762
 6 -5.44789369606961 -2.82423803870387  1.24475173947395
 6 -3.59164302360236 -1.83721869776978  0.20613654545455
 6  2.09987429952995  2.99039903410341  0.10398802220222
 6 -4.94870756705671 -1.57882684658466  0.55771981588159
 6  5.08499376127613  0.85960087698770 -0.31085004370437
 6 -2.60017483318332 -0.96933548894889 -0.40751722552255
 6 -1.42924258635864 -3.90654040714071 -1.65651596839684
 6 -4.26142581098110 -3.71877610941094  1.30436556215622
 6  1.98341947564756 -4.48212723642364 -0.96533576037604
 6  5.34980378277828 -0.20159828332833  0.81286383358336
 6  4.47112317361736  4.01482433173317  0.40026222652265
 6  1.21727040544054  4.05495004530453  0.36733845444544
 6 -6.73764841544154 -3.47686246604660  0.68326738883888
 6 -5.73288286888689 -0.49503528752875  0.00865803270327
 6 -0.15109302860286  4.05852410221022  0.20276208810881
 6 -1.04021912051205  5.09819735343534  0.44780324582458
 6 -2.32749222292229  4.70121162256226  0.31811771777178
 6  2.98022460446045 -4.02517518771877  0.03551124032403
 6 -5.35327903740374  0.63427871647165 -0.86000746554655
 6  6.69833971297130 -0.79294476407641  0.70592149034903
 6 -3.73895143804380  5.21198225672567  0.45997050775078
 6 -2.10074962656266  3.12530749174917 -0.11736750655065
 6 -0.70128071917192  6.57273294329433  0.88499755135514
 6 -4.30614017661766  5.49683564026403 -0.95907499899990
 1 -0.32098368326833  0.26955382118212  0.00258051835183
 1  3.00673803480348 -1.06330447164716 -0.81448153555356
 1  2.51583146444644 -2.86316791339134 -2.16922346944694
 1  1.24244525072507 -3.95119923082308 -2.76132449254925
 1 -5.61563329062906 -2.62634125882588  2.24117465736574
 1  5.25603811631163  0.41388076947695 -1.21202154945495
 1  5.86872543994399  1.54844437253725 -0.32301587618762
 1 -2.79936615431543 -0.01888409810981 -0.44185458295830
 1  0.60123735433543  1.70127997189719 -0.49143658915892
 1 -1.69420415621562 -4.49434400490049 -0.72488199799980
 1 -2.51833194419442 -3.72296288268827 -1.98541667476748
 1 -1.04137931783178 -4.63879094789479 -2.58441403070307
 1 -2.16700908720872 -3.29654938563856  0.72061472667267
 1  1.03767459675968 -4.90008270657066 -0.62947833773377
 1  2.47018312271227 -5.30036414331433 -1.36801218311831
 1  4.60065529852985 -1.03991515491549  0.64164390049005
 1  5.28927327272727  0.29728576727673  1.81816962006201
 1  4.28503902950295  4.74049446584659 -0.36202757455746
 1  5.55736882858286  3.89082661586159  0.11042683228323
 1  4.36564359695970  4.52403787588759  1.39590530743074
 1  1.70085086368637  4.95817499489949  0.80072114731473
 1 -7.54103567186719 -2.73840892439244  0.56431770137014
 1 -7.05235929982998 -4.32886926902690  1.23656949734974
 1 -6.51308700570057 -3.91662907900790 -0.38277618921892
 1 -6.73596811911191 -0.75283619211921  0.47983598469847
 1 -4.62989196129613  1.29262408330833 -0.54444170547055
 1 -6.29742812021202  1.07994706970697 -1.36727104320432
 1 -4.71597090909091  0.17252741494149 -1.73744050885089
 1 -3.77486947244724  6.25291969706971  1.01769864636464
 1 -4.32486392459246  4.42304463636364  1.02621864816482
 1 -0.43216236073607  6.62802336773677  2.03190303190319
 1 -1.59257536783678  7.22854630933093  0.72593194489449
 1  0.06096526452645  7.00198248394840  0.16057701480148
 1 -3.55802370937094  5.94881250695069 -1.56148035053505
 1 -5.36890959815982  6.28649176527653 -0.60125000220022
 1 -4.52233571047105  4.43700387068707 -1.23959346734674
 1  3.66817521802180 -4.64847105960596  1.60386116851685
 1  7.91113913851385 -1.99912930193019  1.71087847084708

