%nproc=4
%Mem=2GB
# td=(NStates=1) B3LYP/SVP 

TD

0 1
 8 -4.33045455625563 -5.00414478567857  1.71392542094209
 8  2.96261028972897 -4.80054136093609  1.10745488278828
 8  6.83538984328433 -1.53458072777278  1.81782446194619
 8  3.87213227072707 -3.20665869086909 -0.12116545594559
 8  7.56700623722372 -0.60321021612161 -0.03198923162316
 8 -3.02680826692669  2.36186423722372 -0.27428899029903
 7 -0.19903689838984 -0.41712590569057 -0.59817683058306
 7  1.48942743544354  1.85813624612461 -0.31770334793479
 7 -3.29012100110011 -3.28392950595059  0.50226654525453
 7 -0.86133462916292  2.91933308270827  0.05920207440744
 6  0.64727699199920 -2.38158611701170 -1.42843513861386
 6  0.95836873917392 -1.09953718541854 -0.91013986288629
 6 -0.75390951965197 -2.54289265146515 -1.34513657635764
 6 -1.30493091509151 -1.30984129552955 -0.76333546354635
 6  3.77780624142414  1.60450361686169 -0.24376864366437
 6  2.42621472727273  0.88232005750575 -0.49562374737474
 6  2.26209145934593 -0.44581183908391 -0.76564603920392
 6  3.53043368346835  2.83268307050705  0.03655164546455
 6  1.55584698979898 -3.31575327662766 -1.98390573617362
 6 -5.50565947264726 -2.84601021592159  1.38918618291829
 6 -3.59973383268327 -1.89899487538754  0.20794672647265
 6  2.07703201530153  3.09800979517952 -0.09771214781478
 6 -5.00158285458546 -1.77725668956896  0.53326737063706
 6  5.18762402430243  0.85798071497150 -0.29055801450145
 6 -2.65726054175418 -0.97797635303530 -0.21100757455746
 6 -1.49509917201720 -3.69419917301730 -1.89594991179118
 6 -4.34861452985299 -3.87479171097110  1.28346347194719
 6  1.95106624032403 -4.49142816651665 -1.08755798259826
 6  5.40267907030703  0.12157403390339  0.99922246944694
 6  4.52214827612761  3.84622747204720  0.48112031233123
 6  1.30518919731973  4.15469001930193  0.21285300590059
 6 -6.75633028362836 -3.43790857065707  1.07377643974397
 6 -5.80833041364136 -0.71064684868487  0.16874404130413
 6 -0.09414733403340  4.03102135193519  0.23550536243624
 6 -1.02244734333433  5.22920045374538  0.40358882438244
 6 -2.28643811751175  4.72195369676968  0.20181608760876
 6  3.03908049004900 -4.10439310951095 -0.01737404820482
 6 -5.52236594609461  0.45435072367237 -0.62133359815982
 6  6.76929680868087 -0.72649811941194  0.83640453865387
 6 -3.65444298719872  5.34243530203020  0.22968747944794
 6 -2.20615016661666  3.22490745174517 -0.02143791359136
 6 -0.56016660776078  6.47110278027803  0.82788183978398
 6 -4.15161472407241  5.49187514421442 -1.26763585508551
 1 -0.23211479637964  0.46922378817882 -0.12689242894289
 1  2.89717707870787 -1.26790493169317 -0.87635772317232
 1  2.51643152445245 -2.87567916451645 -2.36067261436144
 1  0.93223422962296 -3.49072318321832 -2.84697305740574
 1 -5.58324005130513 -2.52624124882488  2.28339887978798
 1  4.81521403390339  0.05205458685869 -1.10037038433843
 1  5.92552111951195  1.48119764786479 -0.74628820342034
 1 -2.96147236493649  0.11196898719872 -0.10143054055406
 1  0.57903513411341  1.90272011591159 -0.48879632513251
 1 -1.49765450125013 -4.50685525602560 -1.19010852065206
 1 -2.51912202320232 -3.48299888628863 -2.15623375647565
 1 -0.93284846474647 -4.00569763856386 -2.73038862816282
 1 -2.40114250055005 -3.61320105080508  0.44530719591959
 1  1.06817764706471 -4.83912661096110 -0.51627701760176
 1  2.43441954635464 -5.39031313821382 -1.54945032693269
 1  4.61226645964596 -0.56124728812881  1.22908264436444
 1  5.67744208960896  0.79612565126513  2.00672847594759
 1  4.28161868746875  4.96376679307931  0.01243987218722
 1  5.59294238593859  3.58246577977798  0.09887567716772
 1  4.78986601920192  3.83565903800380  1.65082079897990
 1  1.96594737333733  5.18508768616862  0.58652972817282
 1 -7.59480104840484 -2.89197428092809  1.38756002560256
 1 -6.82370643454345 -4.49001538363836  1.50728656905691
 1 -6.80400609760976 -3.60296771287129 -0.03908181978198
 1 -6.97594211651165 -0.99311021952195  0.69405740684068
 1 -4.86533550565057  1.18513333423342 -0.11129839113911
 1 -6.36321469886989  0.87735681068107 -1.12200651675167
 1 -5.03295260726073  0.06779694189419 -1.41187795259526
 1 -3.40169215471547  6.32764716981698  0.65311218771877
 1 -4.43412485068507  4.67983031493149  0.65182120842084
 1 -0.11675081958196  6.71393195859586  1.92525236683668
 1 -1.20100621092109  7.52469592429243  0.51029038073807
 1  0.49477864586459  6.72849513521352  0.22470342744274
 1 -3.61816972397240  6.03477110281028 -1.80111431393139
 1 -5.14514722192219  5.80598371447145 -1.21858173537354
 1 -4.14624810171017  4.62201237153715 -1.60370987898790
 1  3.61147954845485 -4.49744595709571  1.85644642704270
 1  7.74307233183318 -1.89647903690369  1.70117750075007

