%nproc=4
%Mem=2GB
# td=(NStates=1) B3LYP/SVP 

TD

0 1
 8 -4.24775628642864 -4.82460683188319  1.79902393079308
 8  2.94875890459046 -4.84088539533953  1.04474861216122
 8  6.99302560686069 -1.49788705840584  1.80736341584158
 8  3.80865592309231 -3.18559658465847 -0.16510985038504
 8  7.67307684428443 -0.42051194629463  0.00766473377338
 8 -2.98633421952195  2.36369442024202 -0.38650021142114
 7 -0.29590658535854 -0.59770396349635 -0.52074908780878
 7  1.54249274197420  1.80859129162916 -0.29115069266927
 7 -3.31451344034403 -3.15045615861586  0.67763408200820
 7 -0.79646814251425  2.87908905830583 -0.10928477427743
 6  0.69000126442644 -2.40619857825783 -1.46882917801780
 6  0.93333623592359 -1.10217744944494 -0.85394424332433
 6 -0.76439056775678 -2.53145150735074 -1.37473953665367
 6 -1.31721214321432 -1.36375668706871 -0.80172930293029
 6  3.84432289308931  1.48236140264026 -0.25550981778178
 6  2.49632173797380  0.80622244774477 -0.51496568156816
 6  2.19784503470347 -0.49432669056906 -0.91231070567057
 6  3.56621726182618  2.83496329852985  0.11316930723072
 6  1.61370277537754 -3.34551625292529 -2.02548989458946
 6 -5.43354226092609 -2.70669628452845  1.29387665196520
 6 -3.63124698399840 -1.88533350925092  0.25120105190519
 6  2.09683399549955  3.00463045724572  0.06365398879888
 6 -5.04203689999000 -1.57725668956896  0.55031907580758
 6  5.08376363826383  0.83432834973497 -0.33349230793079
 6 -2.69318413411341 -1.02878143354335 -0.27899437323732
 6 -1.47964762686269 -3.77693744684468 -1.93838415521552
 6 -4.35374504290429 -3.72647687948795  1.39505463106311
 6  2.04058519221922 -4.47387641134113 -1.10604983178318
 6  5.36926572897290 -0.10573869736974  0.91673422062206
 6  4.48854491579158  3.90616346564656  0.63220542084208
 6  1.29754843324332  4.14623917421742  0.31353307390739
 6 -6.80587523812381 -3.51127590739074  0.94211327342734
 6 -5.81465104570457 -0.55641142514251  0.22738990589059
 6 -0.18679659895990  3.98367661746175  0.18252006390639
 6 -1.08808390699070  5.11435896959696  0.36831529702970
 6 -2.36058553225323  4.67587908930893  0.16707261326133
 6  3.08284486648665 -4.10372304250425 -0.00140245104510
 6 -5.46612032153215  0.57915320392039 -0.67537900270027
 6  6.78718859785979 -0.67197266686669  0.89041994019402
 6 -3.71984952785279  5.27983904240424  0.21948645934593
 6 -2.16011556315632  3.14282924392439 -0.05211098089809
 6 -0.66007659875988  6.58805447544754  0.66960601220122
 6 -4.31772133473347  5.53907986468647 -1.00493958545855
 1 -0.26604818971897  0.40887775357536 -0.09447918761876
 1  3.12033939493949 -1.18313645484548 -0.91189127652765
 1  2.43879376067607 -2.96948854545455 -2.57912445954595
 1  1.01243224942494 -3.86635074597460 -2.90370873097310
 1 -5.38412013931393 -2.35587421212121  2.29542008190819
 1  5.13484599709971  0.32478185958596 -1.40680102740274
 1  5.96864543194319  1.65756528462846 -0.23865744034403
 1 -2.86616283398340  0.13631142144214 -0.17588798629863
 1  0.36445367596760  1.80892073597360 -0.32893033853385
 1 -1.37492222802280 -4.72633720422042 -1.19906941674167
 1 -2.52406251725173 -3.78836942334233 -2.15235336843684
 1 -1.14184936483648 -3.99164623342334 -2.73045863516352
 1 -2.20824321062106 -3.28315804650465  0.65346801200120
 1  1.27690852015202 -4.88029072737274 -0.72396778667867
 1  2.61088719311931 -5.31829593649365 -1.50009539143914
 1  4.76165139813981 -1.09572073547355  0.93473320942094
 1  5.19648399379938  0.31017705640564  1.73058086118612
 1  4.47411793739374  4.82260267666767  0.06970559875988
 1  5.59121221292129  3.42568010121012  0.35758154775478
 1  4.32528956155616  4.15871134323432  1.66789250615061
 1  1.97044782338234  4.92693187058706  0.75256633183318
 1 -7.52401396969697 -2.63816890039004  0.96970824042404
 1 -6.83206727062706 -4.37846422852285  1.62710855125513
 1 -6.60960665766577 -3.96019343544354 -0.10283819541954
 1 -6.88430295259526 -0.43525443394339  0.87277527862786
 1 -4.75431440354035  1.15184000490049 -0.13170043134313
 1 -6.39252763016302  1.03463253825383 -1.10238455455546
 1 -4.93505281728173  0.31405156735674 -1.52014877967797
 1 -3.68557054255426  6.13928833393339  0.84185106160616
 1 -4.24020545874587  4.40482281418142  0.82446847314731
 1 -0.11459060356036  6.70082064746475  1.68675851745174
 1 -1.56785289558956  7.22563601830183  0.75693504520452
 1  0.13304247224722  6.65801808750875 -0.12404144704471
 1 -3.88746665366537  6.39410703640364 -1.54137834033403
 1 -5.21463417061706  6.02353546964696 -0.97690756795680
 1 -4.30944442134213  4.62287245754575 -1.63671317931793
 1  3.65986438693869 -4.51927814031403  1.66549733213321
 1  7.88336636123612 -2.05331472047205  2.00236761976198

