%nproc=4
%Mem=2GB
# td=(NStates=1) B3LYP/SVP 

TD

0 1
 8 -4.02258376917692 -4.84718909010901  1.89701372977298
 8  2.70116414511451 -4.65769707650765  1.12112624992499
 8  6.89594589888989 -1.60807807750775  1.80510318981898
 8  3.76618167566757 -3.09298732373237 -0.17230056945695
 8  7.53704324092409 -0.79040893599360 -0.02988902160216
 8 -3.07084267036704  2.40873892469247 -0.51706326772677
 7 -0.21734872957296 -0.29560375347535 -0.84932194509451
 7  1.51644013671367  1.87027746024602 -0.29165074267427
 7 -3.09042103110311 -3.02662377537754  0.75589190779078
 7 -0.82787128282828  2.93459460886089 -0.07518136393639
 6  0.65077734203420 -2.39224718311831 -1.49177147224722
 6  0.93793669596960 -1.02929016071607 -1.21178002690269
 6 -0.67955208390839 -2.56491485368537 -1.25814787748775
 6 -1.28945936793679 -1.35916622802280 -0.77287641764176
 6  3.70287874867487  1.52296546304630 -0.21680594739474
 6  2.52772487828783  0.83869569506951 -0.54663884888489
 6  2.26456170637064 -0.38275553345335 -1.07468694329433
 6  3.47161780188019  2.82466226842684  0.28815680598060
 6  1.55897730283028 -3.40401210251025 -2.11039838543854
 6 -5.30996990369037 -2.85765138003800  1.45001226552655
 6 -3.47048090739074 -1.85173014891489  0.29974590639064
 6  2.12995730783078  3.01923191739174  0.20817844124412
 6 -4.95299799609961 -1.63376234013401  0.71919596349635
 6  4.98822408430843  0.71874679157916 -0.28303726242624
 6 -2.65138995469547 -0.99637819321932 -0.48315478927893
 6 -1.49894955705571 -3.79475922902290 -1.66831714851485
 6 -4.11349101750175 -3.68710294209421  1.44059918551855
 6  2.04893602730273 -4.51049007270727 -1.17957718451845
 6  5.29082788518852 -0.16913503700370  0.86702925012501
 6  4.46319238053805  3.84283713301330  0.77729993029303
 6  1.25163384178418  4.08438298859886  0.51948366896690
 6 -6.59622427302730 -3.48506328612861  1.01771083318332
 6 -5.74327390799080 -0.67975375937594  0.19737690459046
 6 -0.15437335663566  4.01451970177018  0.31014282618262
 6 -1.12769786838684  5.20757829152915  0.43623208870887
 6 -2.36300577427743  4.69504100550055  0.19606551255126
 6  2.93812039403940 -3.96255892609261 -0.05105741654165
 6 -5.40449415891589  0.40278556715672 -0.78839030383038
 6  6.64819469846985 -0.80480595019502  0.78965986418642
 6 -3.69872741564156  5.29738079657966  0.06055056575658
 6 -2.20122967456746  3.21757671867187 -0.18672444224422
 6 -0.75899649074907  6.53345901590159  0.99775882748275
 6 -4.21922148474848  5.53101905860586 -1.38090718221822
 1 -0.33637522242224  0.63813067886789 -0.42600233993399
 1  3.02361972297230 -1.15704384558456 -1.20359044644464
 1  2.51601148244824 -3.12396399299930 -2.54496104320432
 1  1.23574458065807 -4.01448555945595 -2.94144250435043
 1 -5.22634436173617 -2.54131275597560  2.57533807370737
 1  5.11369388188819  0.08931831323132 -1.28044839213921
 1  5.79464803220322  1.44773430153015 -0.35053862846285
 1 -2.99104532223222  0.15094288458846 -0.69483988148815
 1  0.56105333593359  1.91133097699770 -0.41710915641564
 1 -1.46700143594359 -4.66635120562056 -1.11327083688369
 1 -2.46804691569157 -3.38105869226923 -1.71627976107611
 1 -1.23185836573657 -4.26923399219922 -2.71888747804780
 1 -2.09764215051505 -3.33033276397640  0.62514517971797
 1  1.18400923022302 -4.93993669196920 -0.75966135603560
 1  2.61504760916092 -5.45315942284228 -1.61644702660266
 1  4.53467870087009 -0.95762692609261  0.98637837393739
 1  5.29443378877888  0.19764580328033  1.97293509660966
 1  4.38069859545955  4.69965038143814 -0.05269664146415
 1  5.50098319001900  3.41270880408041  0.64829061866187
 1  4.41978901150115  4.15617108920892  1.77250296719672
 1  1.66812759135914  5.08803798119812  0.92486356155616
 1 -7.39586115441544 -2.92592767626763  1.46147741734173
 1 -6.80573463736374 -4.48666504860486  1.47218305870587
 1 -6.38549424642464 -3.35640305640564 -0.20065797739774
 1 -6.75628015031503 -0.42989389788979  0.66367436853685
 1 -4.81500047214722  1.18410323122312 -0.17708496979698
 1 -6.25713409080908  0.67228630363036 -1.18098241434143
 1 -4.78202751475148 -0.01558139593959 -1.63661042584258
 1 -3.72002398789879  6.12654705980598  0.83548042454245
 1 -4.43635507370737  4.48502083398340  0.58273429972997
 1 -0.35543468796880  6.42918348374837  2.08178802040204
 1 -1.65701181148115  7.29663311801180  1.18231758345835
 1  0.05813498149815  7.23658594429443  0.57009796689669
 1 -3.66617452445245  6.23662128782878 -1.86429063156316
 1 -5.11190389758976  6.06160927702770 -1.59544942214221
 1 -4.29591306820682  4.63339350965097 -1.78911841984198
 1  3.22962136263626 -4.28784499699970  1.90181096349635
 1  7.66509453405340 -1.95054444344434  1.63226060906091

