%nproc=4
%Mem=2GB
# td=(NStates=1) B3LYP/SVP 

TD

0 1
 8 -4.24015552635263 -4.92022639383938  1.80313434183418
 8  2.78379240794079 -4.79130043684368  1.31381551885189
 8  7.04096040034003 -1.33761103080308  1.96175885538554
 8  3.74429948744874 -3.14137216221622  0.16392305290529
 8  7.56542607920792 -0.72271216631663 -0.14820085278528
 8 -3.00643622972297  2.46679473027303 -0.46030759215922
 7 -0.24345133983398 -0.50418461156116 -0.66420343324332
 7  1.49584807750775  1.82813324582458 -0.40376195379538
 7 -3.37540952995300 -3.21424253725373  0.50043636223622
 7 -0.77989648534853  2.91354250365036  0.02089824402440
 6  0.65145741004100 -2.33688164656466 -1.40186248134813
 6  0.93757665996600 -0.98756598829883 -1.03509235813581
 6 -0.68702283098310 -2.64762312451245 -1.29136119881988
 6 -1.28564898689869 -1.46896720812081 -0.82696182618262
 6  3.78402686348635  1.51490465696570 -0.38152241904190
 6  2.43305541134113  0.93925575107511 -0.55920010501050
 6  2.28354360456046 -0.36095335323532 -1.00771024562456
 6  3.51714235433543  2.80983078527853 -0.00603261296130
 6  1.71351275637564 -3.25042674397440 -1.94085143074307
 6 -5.50343925062506 -2.77756337123712  1.35164242854285
 6 -3.58344220352035 -1.93183815971597  0.16415234703470
 6  2.09733404550455  2.98408840304030  0.03821144454445
 6 -4.91471416771677 -1.58724768866887  0.51778582248225
 6  5.10299556145615  0.82618753565357 -0.52932189088909
 6 -2.61102591829183 -1.03125168056806 -0.42068854265427
 6 -1.48287794989499 -3.75592534563456 -1.89677999479948
 6 -4.31988165656566 -3.80894512631263  1.36886201180118
 6  2.00020115381538 -4.39199822352235 -0.88227745454545
 6  5.30584938733873 -0.04958308180818  0.75142768996900
 6  4.48309437073707  3.77565041434143  0.35391759205921
 6  1.31993067146715  4.08968351865187  0.28537025762576
 6 -6.76690134073407 -3.48631341114111  0.78311737383738
 6 -5.78908848944894 -0.59433521752175  0.07899506640664
 6 -0.07403532283228  4.04562281208121  0.17416922882288
 6 -1.09687478607861  5.09133666736674  0.53848231373137
 6 -2.27851732543254  4.64945644704471  0.37010291629163
 6  2.91482806480648 -4.01908457865787  0.26250393959396
 6 -5.36976068556856  0.59696498509851 -0.64237570237024
 6  6.78637851685169 -0.73215868546855  0.73801469966997
 6 -3.70917846074607  5.27968902740274  0.37000151085108
 6 -2.13684323592359  3.14292925392539 -0.01675744554455
 6 -0.66054664576458  6.45734140414041  0.97759681128113
 6 -4.30610017261726  5.40835679237924 -0.91982107360736
 1 -0.32365395029503  0.18611547734774 -0.14922466216622
 1  3.18288564956496 -0.90085822702270 -1.16876696409641
 1  2.68831871317132 -2.57708930553055 -2.13922046914692
 1  1.46335734193419 -3.90910502140214 -2.74958331843184
 1 -5.71068279557956 -2.46383500820082  2.36412695259526
 1  5.16228874137414  0.07139652105211 -1.41644199149915
 1  5.94176274367437  1.49125865396540 -0.52505608020802
 1 -2.67652387008701  0.13431122142214 -0.71688208570857
 1  0.43495072567257  1.89623946784678 -0.43147059255926
 1 -1.32398713451345 -4.67725229572957 -1.16616612641264
 1 -2.38539865086509 -3.43464405080508 -2.17037517061706
 1 -1.01432661256126 -4.02463953275328 -3.00835642494249
 1 -2.43918630493049 -3.63919365006501  0.62863552875288
 1  0.98650948024802 -4.90000269856986 -0.73659904980498
 1  2.63098920332033 -5.21786589348935 -1.40964634653465
 1  4.65231046404640 -1.03212437583758  0.90262999909991
 1  5.41371571697170  0.53203924262426  1.59567737083708
 1  4.36265679127913  4.74940535693569 -0.16188756055606
 1  5.49242233393339  3.50855838903890  0.14310009960996
 1  4.43203023562356  4.04287976007601  1.24307002390239
 1  1.95189596819682  5.04842401980198  0.81378245344534
 1 -7.61468303660366 -2.82149723322332  1.24779604920492
 1 -6.95133919781978 -4.35781216331633  1.12783862426243
 1 -6.65552124912491 -3.61611902800280 -0.39031694329433
 1 -6.77205172747275 -0.55130603910391  0.25708370947095
 1 -4.86083505560556  1.28660348124812 -0.02346960826083
 1 -6.18579695709571  1.20145922092209 -1.09193350945095
 1 -4.68003731573157  0.49554971717172 -1.23780054485449
 1 -3.74433641914191  6.33689809490949  0.88520539703970
 1 -4.36836827502750  4.74388672057206  0.99832585888589
 1  0.14742559805981  6.42933349874987  1.66386622822282
 1 -1.56114222452245  7.32179563426343  1.44506385808581
 1 -0.28140897289729  6.91464375007501  0.04524548164816
 1 -3.75336324332433  6.05913353905391 -1.75954015651565
 1 -5.38072077927793  5.86813993009301 -0.94107398459846
 1 -4.36913038993900  4.46655682598260 -1.40960046804680
 1  3.47337573807381 -4.45948216071607  2.04389517191719
 1  8.08228625322532 -1.71757114611461  1.82046942994299

