%nproc=4
%Mem=2GB
# td=(NStates=1) B3LYP/SVP 

TD

0 1
 8 -4.23287479827983 -4.75709008020802  1.95911994039404
 8  2.97010103880388 -4.91692299909991  0.96544068136814
 8  6.79960626492649 -1.59170644034403  1.92176485598560
 8  3.71703676117612 -3.19260728572857 -0.13843718311831
 8  7.57389692629263 -0.52740263536354  0.15670963826383
 8 -2.85423100920092  2.19651770257026 -0.40580214161416
 7 -0.25752274697470 -0.49558375147515 -0.66073308620862
 7  1.59037753045305  1.82158259075908 -0.41813339093909
 7 -3.24910689968997 -3.03372448544854  0.66125244384438
 7 -0.84352284798480  2.88470962036204 -0.06067991379138
 6  0.72741500580058 -2.41575953435344 -1.41540383548355
 6  0.97298020032003 -1.03702093379338 -1.05734458335834
 6 -0.69019314801480 -2.61702006420642 -1.10278234093409
 6 -1.21686210821082 -1.39626993839384 -0.59457858785879
 6  3.79468792959296  1.61984515101510 -0.30269453625363
 6  2.49657176297630  0.88113993949395 -0.51376556155616
 6  2.23016826702670 -0.39789704760476 -0.97911738633863
 6  3.49449008910891  2.90926072827283  0.06451444174417
 6  1.57488889398940 -3.41915361666167 -2.11021836743674
 6 -5.45252415911591 -2.70418603350335  1.30808807310731
 6 -3.51594545384538 -1.76197117301730  0.24678060986099
 6  2.11345565766577  3.02794278847885 -0.08354073067307
 6 -4.91933462976298 -1.55006397029703  0.43907795169517
 6  5.12772803470347  0.85666058295830 -0.23269222792279
 6 -2.58378319401940 -1.05696425182518 -0.33462993679368
 6 -1.43585324742474 -3.78093784688469 -1.67954827162716
 6 -4.25667533593359 -3.65158939073907  1.32138726432643
 6  2.01495262896290 -4.63221224492449 -1.14727395419542
 6  5.25117391979198 -0.05833395689569  0.86126867406741
 6  4.45849191049105  4.01885473477348  0.31777397769777
 6  1.23213189158916  4.14811936223622  0.20901262186219
 6 -6.73802845344534 -3.40889566936694  0.74255331743174
 6 -5.66286586718672 -0.51717750175018  0.08894606150615
 6 -0.13628154745475  3.96331458125813  0.25199701160116
 6 -1.09657475607561  5.10360789448945  0.48714718021802
 6 -2.34003347704770  4.51500300170017  0.28674458045805
 6  2.95460204220422 -4.16844951515152 -0.09382169296930
 6 -5.34181789128913  0.75137042564256 -0.63776524132413
 6  6.65054493349335 -0.74237970757076  0.91784268246825
 6 -3.71281882478248  5.08002906140614  0.46010052075208
 6 -2.09200875247525  3.13262822382238 -0.06607237703770
 6 -0.83895448654866  6.52690836083608  0.67082613421342
 6 -4.37082664526453  5.48335429212921 -0.88082717421742
 1 -0.34468605350535  0.33360022582258  0.17699796009601
 1  3.21336869786979 -0.98758689988999 -0.96708679607961
 1  2.67843772507251 -2.95319691629163 -2.60074662176218
 1  0.90167117331733 -3.99724383528353 -2.87569592969297
 1 -5.51080280758076 -2.35367399209921  2.33314385428543
 1  5.20164267676768  0.38039742114211 -1.21254160146015
 1  5.88535710311031  1.66635616371637 -0.14137771237124
 1 -2.75780199789979  0.04624241454145 -0.49112951045105
 1  0.50543777437744  1.82921276517652 -0.46493393889389
 1 -1.54386912271227 -4.55640021052105 -1.02806231603160
 1 -2.30527063806381 -3.59499008540854 -2.03673180628063
 1 -1.15078025792579 -4.25359242804281 -2.51884747404740
 1 -2.27306969326933 -3.41720145084508  0.72469513471347
 1  1.01567239653965 -4.95263796209621 -0.62623801370137
 1  2.58704480888089 -5.22643675057506 -1.72194757665767
 1  4.51165639863986 -0.95406657005701  0.91845158125813
 1  5.25088943434343  0.46723276197620  1.95931373447345
 1  4.54497502310231  4.79947036343634 -0.55423679547955
 1  5.61706479817982  3.70352788598860  0.44840062966297
 1  4.36847387998800  4.47784325642564  1.33918963586359
 1  1.71892267086709  4.93144232163216  0.77016809200920
 1 -7.76766833513351 -2.62112719621962  0.71663293289329
 1 -7.02850691459146 -4.36418280038004  1.32426826722672
 1 -6.57995369236924 -3.76724414051405 -0.33188109970997
 1 -6.92834735703570 -0.67399830833083  0.32375037613761
 1 -4.97499647174717  1.43066788768877  0.10459319801980
 1 -6.40402878027803  0.99878895389539 -1.16809112521252
 1 -4.45661497349735  0.53552371457146 -1.32251901670167
 1 -3.78367035253525  5.89266367146715  1.10755763226323
 1 -4.35420685888589  4.17667999989999  0.86896292259226
 1 -0.06411555605561  6.67154772017202  1.37044688628863
 1 -1.71765787608761  7.10163361806181  1.11003035473547
 1 -0.39503033503350  7.19434171987199 -0.19781882478248
 1 -3.64713262026203  5.98714634033403 -1.81164536703670
 1 -5.39311201840184  6.07583069916992 -0.79429930713071
 1 -4.61087456435644  4.59947011731173 -1.33982349034904
 1  3.85520392089209 -4.44113032553255  1.44257503990399
 1  7.65507353195320 -2.01278066706671  1.90442782578258

