%nproc=4
%Mem=2GB
# td=(NStates=1) B3LYP/SVP 

TD

0 1
 8 -4.11801331213121 -4.84431880308031  2.04205823422342
 8  3.13347737643764 -4.96048735553555  0.92629676697670
 8  6.72334863916392 -1.80106737643764  1.74249692919292
 8  3.76559161666167 -3.04961298629863 -0.13015635503550
 8  7.66710624722472 -0.24486438153815  0.19250321762176
 8 -2.88938452455246  2.40626867766777 -0.57842940434043
 7 -0.26377337203720 -0.52654684778478 -0.62363937683768
 7  1.57052554525453  1.92062249474947 -0.37772935053505
 7 -3.29119110811081 -3.18289940294029  0.70609692829283
 7 -0.69560805650565  2.94208535793579 -0.07777162296230
 6  0.63324558885889 -2.39422738113811 -1.49518181328133
 6  0.96216911921192 -1.03069030073007 -1.01470031893189
 6 -0.72675680438044 -2.66628499069907 -1.22158422112211
 6 -1.31530195219522 -1.35781609300930 -0.73289241924192
 6  3.69244770557056  1.49529269576958 -0.36930119691969
 6  2.43526563236324  0.86176800230023 -0.59055324032403
 6  2.20907615781578 -0.52621987988799 -0.78472794739474
 6  3.56785742584258  2.80435023722372  0.05396338663866
 6  1.55695710081008 -3.37069877117712 -2.04922226782678
 6 -5.47812671937194 -2.93189880478048  1.50241750605061
 6 -3.58566242554255 -1.87501247714771  0.22300823262326
 6  2.09661397349735  3.06420641484148  0.11193881728173
 6 -5.06205890219022 -1.65997496139614  0.52549659355936
 6  5.06871213311331  0.71998691559156 -0.26001496019602
 6 -2.63335815151515 -1.09376793219322 -0.32132860666067
 6 -1.47319698179818 -3.68513826692669 -1.97253757055706
 6 -4.17822749114912 -3.80921515331533  1.56220134573457
 6  1.96356749044904 -4.50153917761776 -1.06296552335234
 6  5.26965576797680 -0.16211433493349  0.89751229842984
 6  4.47150321162116  3.90501335063506  0.44360656095610
 6  1.27641632003200  4.24159871017102  0.34870659125913
 6 -6.79458410901090 -3.52917769756976  0.97330639273927
 6 -5.77133671427143 -0.59595537953795  0.10554772167217
 6 -0.08327624692469  4.13298154795480  0.32118393029303
 6 -1.13508860746075  5.25806334003400  0.62120058555856
 6 -2.36298577227723  4.62778427982798  0.26975288128813
 6  3.04653123512351 -4.00365303550355 -0.08280059085909
 6 -5.47721143064306  0.51216650525053 -0.74611607640764
 6  6.64747462646265 -0.73363883348335  0.94696559475948
 6 -3.67984552745275  5.25506656515652  0.13992850355035
 6 -2.14330388198820  3.20979594059406 -0.15678144794479
 6 -0.74234482558256  6.66915258525853  0.95994504610461
 6 -4.12600216281628  5.63557951465146 -1.30143923542354
 1 -0.24620620552055  0.27173403920392 -0.10861060076008
 1  3.03795115611561 -1.32567070827083 -0.87332742014201
 1  2.35414529582958 -3.05282687928793 -2.46220276737674
 1  0.92131313751375 -3.87290140104010 -2.94729308940894
 1 -5.49933166046605 -2.44164278897890  2.50703124302430
 1  5.04275678817882  0.04713409480948 -1.20976132343234
 1  5.94844341174117  1.44976450455046 -0.35483905850585
 1 -2.82657887558756 -0.03794600430043 -0.41092148964896
 1  0.54525175577558  1.93116296019602 -0.60664811031103
 1 -1.77583231903190 -4.53231780228023 -1.37160667046705
 1 -2.40981109210921 -3.38038862526253 -2.00643877697770
 1 -0.97541272117212 -3.85655272407241 -3.10860644994499
 1 -2.32347473377338 -3.43068279897990  0.60343300850085
 1  0.93435426472647 -4.83650634893489 -0.53579896979698
 1  2.41789789418942 -5.49661376827683 -1.51365674757476
 1  4.76191142414241 -1.30243140654065  0.62937267336734
 1  4.92260660606061  0.39414545324532  1.86177398049805
 1  4.32881340694069  4.66687710411041  0.01518014621462
 1  5.49833292499250  3.45562309550955  0.34608039763976
 1  4.27022405500550  4.21753722582258  1.59438515541554
 1  1.86412719131913  5.10182936033603  0.41590266546655
 1 -7.58393996229623 -2.98211329482948  1.38287955755576
 1 -6.77315137903790 -4.61149753185318  1.45922176257626
 1 -6.65315101210121 -3.76235365146515 -0.19687759935994
 1 -6.73639816211621 -0.53692460096010  0.63738173927393
 1 -4.70484945704571  1.23128794969497 -0.43593085438544
 1 -6.34770314771477  0.97128620362036 -1.01042535863586
 1 -5.01249056105611  0.30474063626363 -1.86983374817482
 1 -3.82837482298230  6.20728513361336  0.72466934343434
 1 -4.31960339853985  4.59164149604961  0.64552057835784
 1 -0.35974511901190  6.43525409080908  1.93832367396740
 1 -1.60454656495650  7.37161061576158  0.84787413911391
 1  0.25982515051505  6.97999028472847  0.41217217431743
 1 -3.50111801880188  6.27242486818682 -1.84525872837284
 1 -5.05737844504450  6.09141225732573 -1.26465634283428
 1 -4.38158163506351  4.84202437273727 -1.85371487948795
 1  3.74807320782078 -4.60880709320932  1.42418320072007
 1  7.53911193579358 -2.26896628562856  1.71715909890989

