%nproc=4
%Mem=2GB
# td=(NStates=1) B3LYP/SVP 

TD

0 1
 8 -4.08226973777378 -4.86959133033303  1.79926395479548
 8  3.02355638433843 -4.72654396119612  1.06653079037904
 8  6.79385568986899 -1.61252852255226  2.04780746024602
 8  3.92528758625863 -3.12914093909391 -0.30527386678668
 8  7.52928246484649 -0.84686458155816  0.04776874417442
 8 -3.07149273537354  2.34980303110311 -0.40251181258126
 7 -0.18626562126213 -0.53639783288329 -0.53543055595560
 7  1.53372186488649  1.86343677617762 -0.44563614121412
 7 -3.21488347734773 -3.04082519551955  0.68293461206121
 7 -0.85642413811381  2.90176132553255 -0.12425627142714
 6  0.65912817711771 -2.40097805620562 -1.42286458155816
 6  1.03641654395440 -1.15251248294829 -0.92565141404140
 6 -0.72390651935194 -2.62131049324932 -1.26609867256726
 6 -1.21753217521752 -1.43197350875088 -0.64638376837684
 6  3.79546800760076  1.54329749624962 -0.26555082188219
 6  2.49003110891089  0.89562138763876 -0.70502468746875
 6  2.27677292749275 -0.48294555245525 -0.86109558415842
 6  3.51415205530553  2.84734453665367  0.07310530083008
 6  1.66936834193419 -3.33613531483148 -2.14082142774277
 6 -5.47475638233823 -2.80830644554455  1.43011027532753
 6 -3.58652251155116 -1.84044902080208  0.16632256405641
 6  2.09713402550255  2.98202819701970 -0.01137351395139
 6 -4.91895459175918 -1.54082304620462  0.52256630053005
 6  5.10128539043904  0.82675759265927 -0.24165312401240
 6 -2.61803661936194 -0.93293184858486 -0.37877435123512
 6 -1.54963462556256 -3.80805055815582 -1.65933625042504
 6 -4.22095176357636 -3.73139737153715  1.37741286688669
 6  2.06641777547755 -4.48955797949795 -1.18017724452445
 6  5.35453425582558 -0.13142126562656  0.86567911511151
 6  4.39140520182018  4.01365421472147  0.41770397069707
 6  1.24263294169417  4.10978552885289  0.34270599119912
 6 -6.80335498609861 -3.52440722052205  0.94006306840684
 6 -5.75019460006001 -0.52352813681368  0.12309947684768
 6 -0.15472339163916  3.94239248904890  0.19012082398240
 6 -1.09634473307331  5.18083561726173  0.49920838633863
 6 -2.34989446314631  4.61968346974697  0.28167407340734
 6  3.11186776877688 -4.00854352455246 -0.09488179897990
 6 -5.53642735223522  0.67004229282928 -0.69089055385539
 6  6.60695057405741 -0.84428989858986  0.96402730093009
 6 -3.62097964086409  5.34139519801980  0.27027153785379
 6 -2.24644419601960  3.21797675867587 -0.18895466526653
 6 -0.75889648074807  6.53414908490849  0.83649270087009
 6 -4.31586114871487  5.49009496619662 -0.98210730223022
 1 -0.32093367826783  0.43249011481148 -0.26454619431943
 1  3.03159052005201 -1.26792493369337 -1.09201928932893
 1  2.64942482378238 -2.85722731933193 -2.23073962106211
 1  1.19918092429243 -3.85268937983798 -2.99412777287729
 1 -5.70083181048105 -2.26854547924792  2.50954149404940
 1  5.31009352185219  0.34465384678468 -1.11171151845184
 1  5.77837640504050  1.63012254035404 -0.20636421102110
 1 -2.60684690239024  0.21922971327133 -0.64431482898290
 1  0.53409063966397  1.96226607050705 -0.55881332683268
 1 -1.52637737353735 -4.74377894839484 -0.93016252605261
 1 -2.56940705170517 -3.60487107350735 -1.76583471657166
 1 -1.02870805070507 -4.11544861366137 -2.77746333563356
 1 -2.40920330663066 -3.52205193589359  0.49361202640264
 1  1.12979380868087 -4.91723442174217 -0.63632902280228
 1  2.75478158255826 -5.36514062096210 -1.73833921582158
 1  4.58445367836784 -0.71341250465047  0.77101683778378
 1  5.02234658005801  0.60782682138214  1.70679848294829
 1  4.56536706230623  4.82532294869487 -0.54494586638664
 1  5.29560265196520  3.51291882508251  0.59538532813281
 1  4.40649768236824  4.44239971207121  1.41308702560256
 1  1.91443222182218  4.95187436483648  0.63974504970497
 1 -7.63733530183018 -2.75425050855085  0.90318158775878
 1 -7.00669473337334 -4.27973435553555  1.68949478987899
 1 -6.62289798679868 -4.01705912201220 -0.24782269386939
 1 -6.82949747204720 -0.41700260876088  0.40793879497950
 1 -4.71282025412541  1.26724154505451 -0.07545480678068
 1 -6.38799717711771  1.25979505450545 -0.89003331943194
 1 -5.09986929892989  0.28280844304430 -1.73171993679368
 1 -3.58759074457446  6.45012941804181  0.87696457295730
 1 -4.06301773997400  4.71987431933193  1.11337736403640
 1 -0.00267941244124  6.65780634603460  1.58049789138914
 1 -1.85791190149015  6.98199165386539  1.10879023072307
 1 -0.44020485248525  7.13791607730773 -0.05239428232823
 1 -3.87389529652965  6.33493111881188 -1.53656785928593
 1 -5.38964167136714  5.60853396949695 -0.89438931613161
 1 -4.29586306320632  4.57662783308331 -1.57372688068807
 1  3.63228162866287 -4.37207341984198  1.72519330173017
 1  7.64697272187219 -2.11710109910991  1.95080246324632

