%nproc=4
%Mem=2GB
# td=(NStates=1) B3LYP/SVP 

TD

0 1
 8 -4.38605011581158 -4.82136650785079  1.92433646204620
 8  3.03028705740574 -5.01969327612761  0.91483562086209
 8  6.92803910821082 -1.69906717641764  1.69671235073507
 8  3.73941899939994 -3.12468049304930 -0.09978331773177
 8  7.69013855045505 -0.31732162726273  0.16029999729973
 8 -2.99366495259526  2.35696374717472 -0.44245580698070
 7 -0.23623061776178 -0.53032722582258 -0.36482349524953
 7  1.50667916061606  1.88464889738974 -0.46470804840484
 7 -3.29704169316932 -3.16995810881088  0.65190150875088
 7 -0.71216971267127  2.86904805420542 -0.03365721152115
 6  0.66107837213721 -2.33455141354135 -1.32294458955896
 6  0.97885078737874 -1.06207343904390 -0.83149199809981
 6 -0.66273040174017 -2.58850721292129 -1.11286334903490
 6 -1.33669409140914 -1.47950826222622 -0.48642777277728
 6  3.81728018881888  1.49444261076108 -0.38412267906791
 6  2.48067017281728  0.88496032153215 -0.64077826282628
 6  2.23662891309131 -0.42545980388039 -0.89609908450845
 6  3.52037267736774  2.81173097529753  0.07236522682268
 6  1.60854225932593 -3.32892459375938 -1.95171251685169
 6 -5.56754566126613 -2.79064467936794  1.30255752005201
 6 -3.61737559685969 -1.89118409430943  0.12489842164216
 6  2.13294760686069  3.01021101530153  0.01862948634863
 6 -5.07710040634063 -1.58696766066607  0.32659670357036
 6  5.23402866476648  0.92878779567957 -0.36332529122912
 6 -2.68301311701170 -1.05466402180218 -0.36904337813781
 6 -1.35594525662566 -3.75139489258926 -1.72472278907891
 6 -4.42434210261026 -3.73078731053105  1.40519564516452
 6  2.02357349104911 -4.46846587028703 -1.15891511831183
 6  5.40374917731773 -0.02388051155116  0.84487703490349
 6  4.52498856015602  3.84333718301830  0.33557575787579
 6  1.31729040744074  4.11953650395039  0.43360508110811
 6 -6.90732538313831 -3.50009478927893  0.87417647974797
 6 -5.82617219781978 -0.57242302630263  0.04521168806881
 6 -0.06220413971397  4.06042429222922  0.32989480138014
 6 -1.05476057465747  5.19106664036404  0.49620808630863
 6 -2.29513898759876  4.61041254265427  0.22227813381338
 6  3.10873745574557 -4.10374304450445 -0.02652496329633
 6 -5.40738444794479  0.52997828642864 -0.75669713451345
 6  6.68670854985499 -0.62422789238924  0.84060495869587
 6 -3.69240678357836  5.30676173467347  0.31603611431143
 6 -2.06345589718972  3.17179214021402 -0.10862663246325
 6 -0.80000059115912  6.60979664966497  0.85588464006401
 6 -4.29753931653165  5.40044600130013 -1.13148223972397
 1 -0.41808339323932  0.35675254105411  0.03010327062706
 1  2.94048140914091 -0.96697483868387 -1.05018510591059
 1  2.45203508480848 -2.86153775037504 -2.38597514461446
 1  1.06862786898690 -3.76272038293829 -2.81988034813481
 1 -5.79268099539954 -2.34978360306031  2.34255479537954
 1  5.21231374387439 -0.00439105770577 -1.23231357865787
 1  5.93504207160716  1.52867239533953 -0.56741031563156
 1 -2.67020323802380  0.11144893519352 -0.32272266976698
 1  0.38601583218322  1.84770461436144 -0.54041148664867
 1 -1.31783651945195 -4.78035260576058 -1.04221373117312
 1 -2.45211532253225 -3.49025961236124 -1.76519465256526
 1 -0.77772295219522 -3.93837090589059 -2.63052864216422
 1 -2.29141152745275 -3.37469720042004  0.66086875207521
 1  1.12866369566957 -4.85413811211121 -0.57896328622862
 1  2.58392449684968 -5.26155026192619 -1.58852423432343
 1  4.47846307930793 -0.73374453785379  0.73842357845785
 1  5.23545789118912  0.28783482218222  1.87875567866787
 1  4.67014754035404  4.72879329572957 -0.56103747554755
 1  5.49737282898290  3.33861139433943  0.35690147974797
 1  4.48677571017102  4.49063453555356  1.34783049994999
 1  1.83094387298730  4.97451662906291  0.87255833103310
 1 -7.77169873817382 -2.91012609610961  1.25469673927393
 1 -7.01702576647665 -4.64759114121412  1.15608144854485
 1 -6.92032772977298 -3.53751116721672 -0.09909782138214
 1 -6.87759228152815 -0.65529643814381  0.55218321942194
 1 -4.78216718881888  1.18605342624262  0.01524426312631
 1 -6.28694707210721  1.18978805380538 -1.08283259935994
 1 -4.89787909990999  0.35235539773977 -1.59802656745675
 1 -3.54057604310431  6.42043644874487  0.52072894939494
 1 -4.62579401760176  4.70343267516752  0.76177220352035
 1 -0.03461260576058  6.43525409080908  1.76142598419842
 1 -1.72775888618862  7.24629808450845  1.12983233493349
 1 -0.41213204520452  7.02063434913491  0.07880883798380
 1 -3.85665357235724  6.09629725542554 -1.80795499799980
 1 -5.44784749194919  5.64186730283028 -0.89693957115712
 1 -4.07765124202420  4.39764993529353 -1.51139064706471
 1  3.50568896939694 -4.78179439193919  1.65311609400940
 1  7.90352837743774 -1.89522891189119  1.53647103010301

