%nproc=4
%Mem=2GB
# td=(NStates=1) B3LYP/SVP 

TD

0 1
 8 -4.20095160596060 -4.81274564576458  2.13937796619662
 8  2.81908593729373 -4.93120442724272  1.03138727602760
 8  7.15609191349135 -1.39617688738874  1.86700938043804
 8  3.70627568506851 -3.06773479847985  0.10522718331833
 8  7.50100963756376 -0.33369326442644 -0.10904693739374
 8 -3.04151973807381  2.43134118491849 -0.50067162856286
 7 -0.35647264196420 -0.59326351945195 -0.56185319821982
 7  1.51168966166617  1.77085751825182 -0.28857043464346
 7 -3.34092608160816 -2.98922003500350  0.77129344794479
 7 -0.79100759645965  2.93470461986199 -0.05182902870287
 6  0.61300356465647 -2.45784374277428 -1.52323461856186
 6  0.87515041734173 -1.16596382808281 -1.01384023292329
 6 -0.74066819551955 -2.61998036023602 -1.34934699739974
 6 -1.38204862686269 -1.44642495389539 -0.68478760876088
 6  3.79804826562656  1.51203436993699 -0.35916018281828
 6  2.42884499029903  0.85909773527353 -0.56742092709271
 6  2.17649289948995 -0.45940319821982 -0.88087756235624
 6  3.45127576767677  2.84690449264926 -0.02147415711571
 6  1.78611001610161 -3.35001670297030 -2.08839618521852
 6 -5.51346025272527 -2.72003761866187  1.20330759505951
 6 -3.66005986528653 -1.87818279417942  0.19018495029503
 6  2.09529384148415  2.93142313651365  0.06116373977398
 6 -5.00965366166617 -1.63376234013401  0.42823686758676
 6  5.07230249214922  0.69493441034103 -0.21930088878888
 6 -2.64399921562156 -1.11112966836684 -0.36217269106911
 6 -1.35514517661766 -3.94581433453345 -1.67853817061706
 6 -4.24362403080308 -3.62788702050205  1.56054117971797
 6  2.20230136383638 -4.46549557325733 -1.28641786858686
 6  5.35987478987899 -0.19950807430743  0.95334788198820
 6  4.47378343964396  3.93194604390439  0.31428362866287
 6  1.28377705610561  4.04651920222022  0.41664338493849
 6 -6.77689233983398 -3.48788356815682  0.70263932603260
 6 -5.79005858645865 -0.59175495949595  0.01939910681068
 6 -0.11290921022102  4.07701595139514  0.31727353925393
 6 -1.08770386898690  5.11387892159216  0.62530099559956
 6 -2.32087156085609  4.65759726112611  0.36657256325633
 6  3.01436801880188 -4.08666133633363 -0.00374268506851
 6 -5.30549425892589  0.64026931553155 -0.72790425522552
 6  6.71548142714271 -0.67509297889789  0.72413331153115
 6 -3.82486002890289  5.25386644514451  0.38158266896690
 6 -2.16142569416942  3.12873783478348 -0.07742351215121
 6 -0.67398798989899  6.47930360036004  0.87656670827083
 6 -4.09181874447445  5.73403936063606 -1.17312640414041
 1 -0.30484206910691  0.35992285808581 -0.00729046874687
 1  2.91691905290529 -0.91004914611461 -1.39290937833783
 1  2.62106198749875 -2.63897549414942 -2.10807735483548
 1  1.43291429762976 -3.66126023692369 -3.28907726782678
 1 -5.89083081038104 -2.32736136083608  2.21823236313631
 1  5.39305181768177  0.13711309270927 -1.25925627292729
 1  5.92688125552555  1.35771529962996 -0.26719029362936
 1 -2.88969518721872 -0.09902211191119 -0.44845524302430
 1  0.58322555315532  1.71674151805181 -0.37375482098210
 1 -1.51481621742174 -4.86899146964697 -0.86777628742874
 1 -2.29752986398640 -3.84870545694569 -2.08334646774677
 1 -0.65418059795980 -4.56129319811981 -2.53734932423242
 1 -2.37773015931593 -3.55973570427043  1.00369303450345
 1  1.61072190149015 -5.16317901620162 -0.90492588248825
 1  2.86007211161116 -5.15386949384938 -1.88925430733073
 1  4.49738497149715 -1.04879604300430  1.06664640074007
 1  5.31502584798480  0.40207624632463  1.92891069416942
 1  4.48777930353035  4.84925534193419 -0.31760313211321
 1  5.53927701940194  3.51767930113011  0.03673946354636
 1  4.41761879447945  4.26827229932993  1.48301401830183
 1  1.82873365196520  4.86557573497350  0.68748982418242
 1 -7.58767033533353 -2.75538062156216  0.79316058565857
 1 -6.93841790569057 -4.56206258835884  1.07608344874487
 1 -6.57955365236524 -3.65704312041204 -0.54989290089009
 1 -6.85904042634263 -0.45315622412241  0.34673267436744
 1 -4.73786275837584  1.44363918481848 -0.14648190949095
 1 -6.18745712311231  1.01538061306131 -1.21127544364436
 1 -4.57840715271527  0.47177733993399 -1.71392815761576
 1 -3.89926191169117  6.12871727682768  1.14535141164116
 1 -4.48019945814582  4.39962229412941  0.78349437573757
 1 -0.17024616911691  6.60707127252725  1.89812965456546
 1 -1.68165427572757  6.92306576127613  0.92920227192719
 1 -0.06572740474047  7.01939422512251  0.19916087318732
 1 -3.12036994399440  6.08540616631663 -1.59117331983198
 1 -5.15325803300330  6.33607672377238 -1.06728660586059
 1 -4.24009748664866  4.82577274757476 -1.99808931693169
 1  3.45187358785879 -4.64016022852285  1.70727150955096
 1  8.04745276987699 -1.75642503150315  1.73817120012001

