%nproc=4
%Mem=2GB
# td=(NStates=1) B3LYP/SVP 

TD

0 1
 8 -4.46097760856086 -4.91533590479048  1.77951197959796
 8  2.88268229692969 -4.87623893069307  1.08004214151415
 8  6.97380368466847 -1.64625189488949  1.74758743824382
 8  3.93467852535254 -3.16357438243824 -0.01742508190819
 8  7.54555409200920 -0.43122301740174 -0.03258929162916
 8 -3.08013359945995  2.39186723752375 -0.36201776317632
 7 -0.24073106780678 -0.58349254235424 -0.48647566046605
 7  1.50087858055806  1.88791922442244 -0.47333891149115
 7 -3.34425641464146 -3.22375348834883  0.68963528212821
 7 -0.85946444214421  2.85630678007801 -0.05562940874087
 6  0.70236250055006 -2.34294225262526 -1.38370066516652
 6  0.96136903920392 -1.00884811651165 -0.96044489338934
 6 -0.67943207190719 -2.66597495969597 -1.18446050875087
 6 -1.32547296929693 -1.48507881928193 -0.61011014101410
 6  3.79123758455846  1.58448161466147 -0.35114938173817
 6  2.52499460526053  0.91016284178418 -0.61766595159516
 6  2.27346259645965 -0.36691394929493 -0.78231770637064
 6  3.55145578567857  2.88342814501450  0.02208019831983
 6  1.69371077617762 -3.28269997129713 -1.95629297489749
 6 -5.55354426112611 -2.70488610351035  1.31278854315432
 6 -3.46539039833983 -1.83320829672967  0.32091802360236
 6  2.08769308140814  3.05010500470047  0.01911953535354
 6 -4.95012770907091 -1.63982294619462  0.62731677557756
 6  5.14485974787479  0.84771968886889 -0.32518147684768
 6 -2.56395121082108 -1.03710226562656 -0.26906338013801
 6 -1.41984164626463 -3.82720247334733 -1.76263658045805
 6 -4.45996566496650 -3.88804303610361  1.31354648024802
 6  2.07838897259726 -4.45319434313431 -1.07150637743774
 6  5.32017081948195 -0.15516363986399  0.81437398459846
 6  4.61260732203220  3.89769261856186  0.44099629992999
 6  1.32685136353635  4.12135668596860  0.27924964556456
 6 -6.82360701130113 -3.47280206000600  0.70682974507451
 6 -5.75857543814381 -0.63399918391839  0.07834500140014
 6 -0.11519943924392  4.05208345814581  0.23240505240524
 6 -1.08476357495750  5.19775730943094  0.43351181668167
 6 -2.31370084378438  4.64832633403340  0.23409931593159
 6  3.09326590859086 -4.00148281848185  0.05602329152915
 6 -5.41248495799580  0.56586187478748 -0.79787125192519
 6  6.64853473247325 -0.78840431003100  0.81861275947595
 6 -3.70731827472747  5.29619067756776  0.38545305600560
 6 -2.24281383298330  3.22337729872987 -0.09437520732073
 6 -0.60471106220622  6.46935260526053  0.80713976557656
 6 -4.30874043664366  5.67672362906291 -1.04281337283728
 1 -0.31314289918992  0.42538940474047 -0.32324206390639
 1  3.13431079207921 -0.99111725292529 -0.88526861426143
 1  2.54514439573957 -2.67827942454246 -2.29282582968297
 1  1.20739174537454 -3.79982409330933 -2.76766512661266
 1 -5.64944667196720 -2.67617624232423  2.39402994289429
 1  5.14847736023602  0.33695307670767 -1.31060140744074
 1  5.97816638403840  1.52061158925893 -0.36675024962496
 1 -2.75486170387039  0.02619040934093 -0.32099249674967
 1  0.49992722332233  1.90966080998100 -0.50344779027903
 1 -1.85580031583158 -4.64478904940494 -0.78325783558356
 1 -2.51149126012601 -3.50765135153515 -2.05619375247525
 1 -0.70979615951595 -4.41427849664966 -2.64805039433943
 1 -2.46348873517352 -3.63555328602860  0.90386305150515
 1  1.12772360166017 -4.96216891519152 -0.84633002290229
 1  2.62609871427143 -5.06567067396740 -1.66156153805380
 1  4.65595082808281 -1.06170733413341  0.92180191629163
 1  5.10549489488949  0.36676271497150  1.75314311741174
 1  4.20564108970897  4.89500991739174  0.04671329952995
 1  5.52552564426443  3.33077061026103 -0.03565777617762
 1  4.51289832243224  4.06125159725973  1.57906362326233
 1  1.51307208580858  5.28453763116312  0.43136421162116
 1 -7.81820338863886 -2.76367145064506  0.73271454105411
 1 -6.97961202510251 -4.53604998709871  1.54756059645965
 1 -6.78028372537254 -3.74086150225023 -0.20762867446745
 1 -6.72758728102810 -0.90935184368437  0.59267726882688
 1 -5.03268224032403  1.43968878977898 -0.03650091139114
 1 -6.38436681408141  0.91070014501450 -1.42369668576858
 1 -4.54607391939194  0.17444760696070 -1.45475224002400
 1 -3.50742272777278  6.23674807990799  0.84857173367337
 1 -4.34019545774578  4.50337266916692  0.81901792809281
 1 -0.07621676617662  6.25381594699470  1.86159600120012
 1 -1.62497860816082  7.15965942064206  0.76416576827683
 1  0.05192436043604  7.07998028372837  0.03734469156916
 1 -3.70501840884088  6.45302292799280 -1.60705490799080
 1 -5.31808451565156  6.07654077017702 -0.95544542174217
 1 -4.48606208310831  4.78649882018202 -1.60192970097010
 1  3.70146854735474 -4.60055626812681  1.73457423982398
 1  7.92925094969497 -1.78326771577158  1.55338272127213

