%nproc=4
%Mem=2GB
# td=(NStates=1) B3LYP/SVP 

TD

0 1
 8 -4.38996050685069 -4.81920629182918  1.87973200160016
 8  3.11613564226423 -4.74505581238124  1.15066920422042
 8  6.98089439373937 -1.70650792049205  1.62329500900090
 8  3.76876193369337 -2.97639566456646 -0.09836317571757
 8  7.57050658725873 -0.38422831793179 -0.11522755545555
 8 -3.05916150225022  2.48710676147615 -0.53825538693869
 7 -0.23047004170417 -0.50704489758976 -0.49974698759876
 7  1.53834232693269  1.79617004950495 -0.45264684228423
 7 -3.28371036003600 -3.17480859385939  0.68575489408941
 7 -0.84667316301630  2.91818296769677 -0.17602144794479
 6  0.58640090439044 -2.49635759415942 -1.35095739083908
 6  0.91623452575258 -1.14086131783178 -0.89425827472747
 6 -0.76758088678868 -2.60691905410541 -1.18882094479448
 6 -1.21188161016102 -1.41491180258026 -0.65087421742174
 6  3.80032849364936  1.53886705320532 -0.24582884968497
 6  2.52182428822882  0.87748957445745 -0.68450263526353
 6  2.25340059025903 -0.46532379027903 -1.02143161776178
 6  3.47768840894089  2.80982078427843  0.14625261556156
 6  1.67017842294229 -3.42610431173117 -2.02504985058506
 6 -5.54605351205121 -2.81359697459746  1.33690095439544
 6 -3.55196905620562 -1.87417239313931  0.35168109990999
 6  2.05678999109911  2.96300629482948  0.06677430083008
 6 -5.00982367866787 -1.60745970987099  0.50338438233823
 6  5.09594485638564  0.79582449934993 -0.29536849554956
 6 -2.58824364006401 -1.09160771617162 -0.30656713051305
 6 -1.49722938503850 -3.79907966106611 -1.79135945274527
 6 -4.47278694709471 -3.73415764756476  1.31218634423442
 6  2.09942107580758 -4.53552257595760 -1.00217944474447
 6  5.36828563096310 -0.06850497399740  0.84427697489749
 6  4.47228328962896  3.91103395269527  0.59410161046105
 6  1.25744442284228  4.11090564086409  0.30573229382938
 6 -6.74512916351635 -3.51611639143914  0.71621068316832
 6 -5.80960054065407 -0.59620540454045  0.08177534443444
 6 -0.17131505080508  4.02227047684768  0.31376318821882
 6 -1.07490258885889  5.19246678037804  0.63998246374637
 6 -2.31952142584258  4.60587208860886  0.31511741774177
 6  3.08823540554055 -4.07506017621762  0.07877556675668
 6 -5.41886559605961  0.60070535913591 -0.69295075987599
 6  6.74218409740974 -0.70611608120812  0.74549544774477
 6 -3.58368591149115  5.42866392489249  0.28431294199420
 6 -2.16191574317432  3.25816077707771 -0.20150592039204
 6 -0.74581517261726  6.59855552555256  0.99985903750375
 6 -4.17710727332733  5.34416037273727 -1.20647973947395
 1  0.04579299439944  0.52132899869987  0.03510377067707
 1  2.99412677367737 -1.23767190839084 -1.12504259165917
 1  2.57339722102210 -2.84443604020402 -2.59291583868387
 1  1.02211321752175 -4.02603671457146 -2.76702506260626
 1 -5.55740746804680 -2.69297792249225  2.44076461636164
 1  5.15833834633463  0.02452183358336 -1.07137748504850
 1  5.89619818721872  1.69525905400540 -0.34692826742674
 1 -2.81831804950495 -0.03063527322732 -0.37689808730873
 1  0.54964219481948  1.86085592949295 -0.97863530903090
 1 -1.51499623542354 -4.84823939443944 -1.09802931273127
 1 -2.54757486848685 -3.64964555095510 -2.10640877397740
 1 -0.90612579247925 -4.20967803660366 -2.62572816211621
 1 -2.29233161946195 -3.40498022872287  0.86164883008301
 1  1.17777860716072 -4.96524922322232 -0.47970336023602
 1  2.48505460986099 -5.60416452335234 -1.33874925682568
 1  4.56863209620962 -1.04916608000800  1.03676341244124
 1  5.08304264966497  0.47207324602460  1.80594839793979
 1  4.53644417001700  4.89385980238024 -0.09172054385439
 1  5.45841893359336  3.43361089428943  0.66251204080408
 1  4.15458249084909  4.32583805590559  1.52120783768377
 1  1.75970674927493  4.90161933933393  0.91975305050505
 1 -7.54976654495450 -2.87083216671667  0.72952422202220
 1 -7.02107617151715 -4.49504588668867  1.40082592299230
 1 -6.47465316231623 -3.74781219731973 -0.31344925652565
 1 -6.85980050235024 -0.57758866736674  0.41954995609561
 1 -4.96423539563956  1.43144796569657  0.14943768246825
 1 -6.19478785618562  0.91400047504750 -1.20864518061806
 1 -4.56622593459346  0.48232839503950 -1.43499026382638
 1 -3.51038302380238  6.66192059715972  0.50910778727873
 1 -4.29875131333133  4.95927825972597  0.99239526582658
 1 -0.65080422492249  6.51506207160716  2.20141998359836
 1 -1.61387749804980  7.33492694739474  0.77852720442044
 1  0.45402457045705  6.92699498519852  0.43078403550355
 1 -3.53528143514351  5.93037066276628 -1.70551475397540
 1 -5.22496520372037  5.88836195229523 -1.21644152135214
 1 -4.22948642554255  4.29072924322432 -1.57492700070007
 1  3.67048544904491 -4.13672988548855  1.91328211061106
 1  7.86085411001100 -2.30997038603860  1.51749913291329

