%nproc=4
%Mem=2GB
# td=(NStates=1) B3LYP/SVP 

TD

0 1
 8 -4.04435594639464 -4.74355872707271  1.94799882828283
 8  2.88650267896790 -4.82184349114911  1.15643978127813
 8  6.87956426072607 -1.56993426312631  1.91996467596760
 8  3.87319237673767 -3.22876090109011 -0.07335067446745
 8  7.45489502610261 -0.78153804890489 -0.13539957265727
 8 -3.09859544564456  2.37053510431043 -0.50414197559756
 7 -0.24265125982598 -0.51067526062606 -0.50077709060906
 7  1.46498499119912  1.83611404390439 -0.39934151175117
 7 -3.24267625662566 -3.09064017701770  0.65793211181118
 7 -0.72568106380638  2.97161831123112 -0.16435028082808
 6  0.66553881818182 -2.37743570197020 -1.40934322942294
 6  0.97371027332733 -1.07751498319832 -0.96741559045905
 6 -0.67382151085109 -2.53045140734073 -1.23693575627563
 6 -1.27089751175117 -1.36952726412641 -0.70957008700870
 6  3.74949341014101  1.56907007350735 -0.31036530333033
 6  2.48166027182718  0.85039686518652 -0.52546673167317
 6  2.22159740994099 -0.38200545844584 -0.89703917851785
 6  3.51478211831183  2.78680848304830  0.19554754505451
 6  1.72532393749375 -3.35609731103110 -2.05536288188819
 6 -5.39274818151815 -2.79397501240124  1.39598686298630
 6 -3.53185704500450 -1.86224120002000  0.22061799359936
 6  2.05095940804080  3.03418341254125  0.03728135153515
 6 -4.98337103340334 -1.59726869076908  0.53445748964897
 6  5.05824108600860  0.83021793869387 -0.36786574527453
 6 -2.63696851255125 -1.02425098049805 -0.46851332513251
 6 -1.44317397949795 -3.71580133323332 -1.79108942574257
 6 -4.18163783218322 -3.67439167096710  1.39970509610961
 6  2.06441757545755 -4.44630365406541 -1.10861008780878
 6  5.28394719711971 -0.20908903240324  0.79569211641164
 6  4.48006406770677  3.89473232253225  0.65771797209721
 6  1.25906458485849  4.15710026032603  0.32565428602860
 6 -6.66579122972297 -3.59788456825683  0.80480954305431
 6 -5.82923250385038 -0.56405218921892  0.22288945584558
 6 -0.14387230653065  4.06201445124512  0.21454326622662
 6 -1.16160125872587  5.15868340204020  0.51902036753675
 6 -2.32588206190619  4.67095859725973  0.17681358735874
 6  3.07171375337534 -4.07480015021502  0.00369805900590
 6 -5.38557226672667  0.61735702430243 -0.58097956275628
 6  6.62052193119312 -0.88505397499750  0.71860275847585
 6 -3.71876941984198  5.23789484798480  0.25843035373537
 6 -2.16410596219622  3.15801076207621 -0.28905467526753
 6 -0.86525711681168  6.53217888788879  1.00687973957396
 6 -4.24732429502950  5.64636059275928 -1.18311740324032
 1 -0.44585617051705  0.46987385318532 -0.37447718741874
 1  3.11978933993399 -1.06285442664266 -1.18577866526653
 1  2.69514939623962 -2.73272486908691 -2.31468801590159
 1  1.25810681688169 -3.64675878677868 -2.96058441854185
 1 -5.51448317561756 -2.36800542524252  2.44722526242624
 1  5.14240675317532  0.23308268966897 -1.31363171047105
 1  5.88275684308431  1.60376990509051 -0.28116169076908
 1 -3.08594481218122  0.02196998729873 -0.63840423792379
 1  0.51157838843884  1.86844668856886 -0.62147959345935
 1 -1.28708344414442 -4.60161473197320 -1.14598410821082
 1 -2.45536564756476 -3.48996958335834 -1.99333746684668
 1 -0.95772095199520 -4.05507257605761 -2.85992158145815
 1 -2.25543793009301 -3.37966769746975  0.79026169136914
 1  1.25550637993799 -4.88862156045605 -0.50609599949995
 1  2.57042314671467 -5.29918402530253 -1.84987036893689
 1  4.45344057705771 -0.76403756715672  0.80322005810581
 1  5.14194854025403  0.20817685638564  1.86719452255226
 1  4.76812733833383  4.76612702910291 -0.08377974977498
 1  5.45273836553655  3.23066059925993  0.74455024462446
 1  4.11245827842784  4.25755122722272  1.64703041994199
 1  1.82598337693769  4.94582375977598  0.68591966716672
 1 -7.49489105740574 -2.86492157565757  0.82398366796680
 1 -6.69006307020702 -4.54212059415942  1.39438527892789
 1 -6.39118481548155 -3.78102551865187 -0.35722363396340
 1 -6.84921944424442 -0.62760366886689  0.50918891999200
 1 -4.85035400750075  1.31564638553855 -0.08356561786179
 1 -6.29433781118112  1.11074014901490 -1.08327264336434
 1 -4.84437374937494  0.07357751995199 -1.34547131193119
 1 -3.76898888438844  6.06173057815782  0.94548142464246
 1 -4.26313775197520  4.39817214911491  0.75676170247025
 1 -0.18832797729773  6.57505807120712  1.91553139473947
 1 -1.85885199549955  7.07052050675067  1.02900225192519
 1 -0.09171000300030  7.07232951865187  0.21794275137514
 1 -3.57550545754575  6.20914854055406 -1.81382558505851
 1 -5.35638834603460  5.93400651675168 -1.06042591979198
 1 -4.58584206110611  4.69289946024602 -1.65411491949195
 1  3.56224462496250 -4.53910012251225  1.75574635703570
 1  7.81499952455246 -2.03228261726173  1.83717110011001

