%nproc=4
%Mem=2GB
# td=(NStates=1) B3LYP/SVP 

TD

0 1
 8 -4.32467397819782 -4.82880725192519  1.94208823722372
 8  2.84466849554955 -4.93835514231423  1.03726786408641
 8  6.96962326662666 -1.35775304500450  1.94892757225723
 8  3.70260531803180 -3.11132915791579 -0.05391873127313
 8  7.63577311391139 -0.46820671577158 -0.03604963766377
 8 -3.06658224432443  2.31222927372737 -0.32252381378138
 7 -0.20370736543654 -0.46682087518752 -0.60846785968597
 7  1.50746923962396  1.82126255875588 -0.38768034563456
 7 -3.18345033403340 -3.13497461046105  0.73200951955196
 7 -0.79484798049805  2.84317546694669 -0.01755560136014
 6  0.64680694499450 -2.38291625002500 -1.35961825692569
 6  0.94114701700170 -1.03594082578258 -0.95062391129113
 6 -0.74927905660566 -2.58238660086009 -1.13801586428643
 6 -1.29803022502250 -1.45890620202020 -0.64151328132813
 6  3.77595605640564  1.54069723622362 -0.35906017281728
 6  2.48498060386039  0.82799462496250 -0.57411159615962
 6  2.16309155935594 -0.41199845774577 -0.80761023562356
 6  3.49187982808281  2.89440924312431 -0.09424143384338
 6  1.54472587768777 -3.25798750005001 -2.12435978157816
 6 -5.46504541124112 -2.78289390429043  1.28433569786979
 6 -3.54689854915492 -1.85570054595460  0.13802973477348
 6  2.07621193329333  3.00806080028003  0.02503012641264
 6 -4.96470916721672 -1.60703966786679  0.47455149904990
 6  5.12160742264226  0.85386030293029 -0.31852081078108
 6 -2.65563037873787 -1.09560811621162 -0.43039951375138
 6 -1.47875753785379 -3.80231998509851 -1.60592090889089
 6 -4.31577124552455 -3.76240047184718  1.38583370897090
 6  1.99121025472547 -4.39953897759776 -1.18063729052905
 6  5.42619142154215 -0.07592571607161  0.87090963816382
 6  4.51617767906791  3.80842369166917  0.40767296759676
 6  1.25695437383738  4.04565911621162  0.24881660226023
 6 -6.84350900150015 -3.41147592739274  0.75746480858086
 6 -5.77327690829083 -0.61878766276628  0.06488365526553
 6 -0.08126604590459  3.99936818661866  0.25195700760076
 6 -1.00975607420742  5.16400393409341  0.44158262376238
 6 -2.28837831153115  4.55328683008301  0.27951385738574
 6  2.90491707370737 -4.07117978817882  0.03276096529653
 6 -5.46073978347835  0.48121340994099 -0.93328479327933
 6  6.79594947394740 -0.59654512411241  0.80832173037304
 6 -3.66180372327233  5.18749980848085  0.39648415911591
 6 -2.09172872447245  3.04191915291529  0.01866609680968
 6 -0.63544413551355  6.53243891389139  0.83375242684268
 6 -4.14318388098810  5.69285524222422 -1.01540063156316
 1 -0.26747833273327  0.35609247504751  0.07517777807781
 1  3.06982434343434 -1.24050219141914 -0.67752784018402
 1  2.47546742804280 -2.52803440004000 -2.23872041914191
 1  1.27135814201420 -3.64243835473547 -3.09080744084408
 1 -5.64415614291429 -2.62901152585258  2.44304484438444
 1  5.35418793129313  0.46405578697870 -1.21236158345835
 1  6.05926449384939  1.55877540564056 -0.31274484908491
 1 -2.93445966366637 -0.01716392609261 -0.44677507500750
 1  0.47680491109111  1.72869271317132 -0.49450689618962
 1 -1.29848458425843 -4.82990756125613 -0.95965547534753
 1 -2.62242235323532 -3.77060764716472 -1.57663579667967
 1 -0.98373355325533 -4.15190225902590 -2.57538312761276
 1 -2.37510989728973 -3.30949067976798  0.56770943614361
 1  1.13723455275528 -4.86976967526753 -0.69921531143114
 1  2.82589869426943 -5.03790789768977 -1.80209559145915
 1  4.76552178517852 -0.87227839123912  0.82724246034603
 1  4.95510985638564  0.51662770147015  1.62076988008801
 1  4.70324084968497  4.83081349774977 -0.05980735253525
 1  5.52187527922792  3.12014954815482  0.04222001160116
 1  4.59477651025102  3.99309478157816  1.56578229512951
 1  1.55187596619662  5.18938811621162  0.38943001820182
 1 -7.78195976427643 -2.87598268176818  0.96800807040704
 1 -7.01585564946495 -4.32868925102510  1.34837067746775
 1 -6.85340103710371 -3.51236865296530 -0.43251116271627
 1 -6.78245276757676 -0.53478438693869  0.70202820392039
 1 -4.85043401550155  1.16462128302830 -0.45292255355535
 1 -6.28689706710671  0.67710678567857 -1.25985030113011
 1 -4.62780209220922  0.20515067726773 -1.65339210401040
 1 -3.66585857135714  5.87090149524953  1.36498337483748
 1 -4.34569600780078  4.32166449834983  0.42320834713471
 1 -0.16501564606461  6.46694726012601  1.92173201480148
 1 -1.58468457875788  7.19296275097510  0.76758611031103
 1  0.27425659365937  6.90974326002600  0.37372832993299
 1 -3.68537644464447  6.54887251295130 -1.29997419991999
 1 -5.36172888008801  5.82581569766977 -0.79427930513051
 1 -4.18516199309931  4.68997916821682 -1.77046655465547
 1  3.43853225372537 -4.68784499699970  1.79421020342034
 1  7.87959598419842 -1.58280766976698  2.05644302730273

