%nproc=4
%Mem=2GB
# td=(NStates=1) B3LYP/SVP 

TD

0 1
 8 -4.33945545634563 -4.90326469766977  1.79812384078408
 8  2.90312434113411 -4.81003231003100  0.95851998929893
 8  7.03007931223122 -1.67886515621562  1.83801648114811
 8  3.88694375187519 -3.20394841984198 -0.16831017041704
 8  7.64548408500850 -0.51647154225423  0.02707667496750
 8 -3.03885947204720  2.29471752255226 -0.26361792319232
 7 -0.33008000270027 -0.54394858795880 -0.43754076697670
 7  1.51955044774477  1.84302473497350 -0.23269484708471
 7 -3.31585357435744 -3.13166427942794  0.66286260486049
 7 -0.80987948364836  2.86626777617762 -0.04883872967297
 6  0.60198246254625 -2.30260821922192 -1.39338163326333
 6  0.87880078237824 -1.05592282398240 -0.91573042194219
 6 -0.71397552625263 -2.53838220042004 -1.25680774347435
 6 -1.33694411641164 -1.37028734013401 -0.70397952795280
 6  3.84116257705771  1.55552871937194 -0.38279254605461
 6  2.51866397219722  0.91118294379438 -0.45795998099810
 6  2.17027227742774 -0.41846910481048 -0.73030250485049
 6  3.61545218531853  2.82037183938394  0.06526451675168
 6  1.60049145424542 -3.21335303660366 -2.16792413801380
 6 -5.55845475217522 -2.78470408530853  1.36804406870687
 6 -3.56794065336534 -1.84474945084508  0.23915984778478
 6  2.17328164026403  3.04133412761276  0.01231885528553
 6 -5.05443814011401 -1.60948991289129  0.58835287918792
 6  5.23685894779478  0.80433535043504 -0.34347330603060
 6 -2.63070788648865 -0.92842139753975 -0.26186266006601
 6 -1.43081274337434 -3.73089284238424 -1.91774209100910
 6 -4.33573324172417 -3.76334056585659  1.31438656425643
 6  2.08637977167717 -4.40356938063806 -1.14813404020402
 6  5.46673547594760 -0.01796992049205  0.91539408660866
 6  4.56846290759076  3.86720957025703  0.57818001830183
 6  1.31227990639064  4.08597314761476  0.34659638023802
 6 -6.83823847444744 -3.48916369616962  0.97561662376238
 6 -5.79458903950395 -0.55363114711471  0.22077924482448
 6 -0.13746166546655  3.98166641644164  0.21313312521252
 6 -1.10454555315532  5.05552308600860  0.43978244374437
 6 -2.34469394309431  4.59439094049405  0.13871977797780
 6  3.03634021602160 -4.05822849304931 -0.09142145294529
 6 -5.37341105060506  0.67488277687769 -0.55828729352935
 6  6.86304618361836 -0.76721219081908  0.89530042824282
 6 -3.76076361926193  5.21400245874587  0.06922143284328
 6 -2.22465201680168  3.19376433743374 -0.08418418821882
 6 -0.73409400050005  6.50890656065607  0.70276932853285
 6 -4.35101466406641  5.41974793149315 -1.28392748424842
 1 -0.45419700460046  0.42349921572157  0.00554081438144
 1  2.99061642264226 -1.23179132033203 -0.68846893429343
 1  2.67666754805481 -2.59371096769677 -2.48141468856886
 1  1.20211121732173 -3.79798390929093 -2.91735009510951
 1 -5.74214594189419 -2.31327995269527  2.30770131003100
 1  5.47510002250225  0.29390877227723 -1.23064341164116
 1  5.97797636503650  1.75666519461946 -0.47981155575558
 1 -2.90665688338834 -0.04825703540354 -0.30283068056806
 1  0.47412464306431  1.59921976587659 -0.69099654515452
 1 -1.17308204400440 -4.67351192169217 -1.11862137193719
 1 -2.53074318531853 -3.54666525292529 -2.08700683378338
 1 -1.28243342324232 -4.02052912171217 -2.80402599189919
 1 -2.54067645394539 -3.82945267596760  0.34960762596260
 1  1.10824165346535 -4.89964266256626 -0.84764015391539
 1  2.51421752615261 -5.33306741364136 -1.69188457035704
 1  4.85869110211021 -0.92985414881488  0.89314905100510
 1  5.13535788118812  0.60570660936094  1.87818562166217
 1  4.80874139973997  4.84558497489749 -0.09473084488449
 1  5.62678577027703  3.36573410661066  0.76356214581458
 1  4.15822285488549  4.38424389648965  1.63890960786079
 1  1.76376715531553  5.03902307970797  0.72892396759676
 1 -7.71116268456846 -2.88326340984098  1.08857012661266
 1 -6.87949201310131 -4.41164754685469  1.66715255565557
 1 -6.77533323032303 -3.90638805490549 -0.02917082868287
 1 -6.71337585988599 -0.29195010351035  0.79058705980598
 1 -4.91529050115011  1.70988580948095  0.09823256195620
 1 -6.22599097649765  1.08472754775478 -1.23089740584058
 1 -4.46865617761776  0.35573573577358 -1.08557532233223
 1 -3.83295528102810  6.21106551165117  0.66100297679768
 1 -4.48760019821982  4.57057938983898  0.56009203550355
 1 -0.13910305480548  6.52963352875287  1.61835167676768
 1 -1.86668277857786  6.99503295799580  0.97975732743274
 1 -0.30788162016202  6.89851213691369 -0.32841188408841
 1 -3.67462536953695  6.12588021372137 -2.15635983848385
 1 -5.38471117831783  5.73362647874788 -1.44471434863486
 1 -4.48664214111411  4.52470264056406 -1.73404291229123
 1  3.29935833633363 -4.44004021652165  1.74938572097210
 1  7.91118914351435 -1.96434582358236  1.76488387138714

