%nproc=4
%Mem=2GB
# td=(NStates=1) B3LYP/SVP 

TD

0 1
 8 -4.20784229502950 -4.97384175537554  1.64772880128013
 8  3.01606563526353 -4.87582888968897  1.15001913921392
 8  6.92962926722672 -1.56143341304130  1.75671835133513
 8  3.79799485698570 -3.05380340534053  0.00242690329033
 8  7.47019655625563 -0.80141003610361 -0.31351738443844
 8 -3.02784837093709  2.32108015881588 -0.49489105050505
 7 -0.31319831453145 -0.48193238633863 -0.61173818671867
 7  1.54937343004300  1.96033646614661 -0.27799937753775
 7 -3.24810679967997 -3.14920603360336  0.74077039563956
 7 -0.85366386208621  2.95254640404040 -0.06358020382038
 6  0.63801606590659 -2.40746870527053 -1.25901819691969
 6  0.95527843014301 -1.11287851955196 -0.93628247714771
 6 -0.81550567926793 -2.64773313551355 -1.18578064076408
 6 -1.29304972697270 -1.35260557195720 -0.65011414141414
 6  3.84339280008001  1.49805297179718 -0.26004027082708
 6  2.43501560736074  0.91834365986599 -0.44421860686069
 6  2.15583083328333 -0.36137339523952 -0.94639411401140
 6  3.53401404150415  2.86468627082708  0.21255924622462
 6  1.69417082218222 -3.37782948424843 -1.90062740834083
 6 -5.51168007470747 -2.92426804170417  1.25972323662366
 6 -3.51936579587959 -1.91276625252525  0.14818074987499
 6  2.11282559465947  3.11302129632963  0.09442706610661
 6 -5.00322301860186 -1.70090905480548  0.43799784368437
 6  5.03425868776878  0.78168308520852 -0.37964692339234
 6 -2.66656147184718 -1.02153070847085 -0.31651812561256
 6 -1.49185884798480 -3.82268202130213 -1.51900221702170
 6 -4.32465213361336 -3.88088232003200  1.25952107770777
 6  2.18843997769777 -4.46532555625563 -1.03387261406141
 6  5.34322312471247 -0.05532365586559  0.86017856505651
 6  4.47632369366937  3.98015086438644  0.49441164146415
 6  1.24103278167817  4.17709225952595  0.48514023462346
 6 -6.83982863346335 -3.46726150595059  0.78098716081608
 6 -5.79376895749575 -0.58730451445145  0.13725089198920
 6 -0.12777069636964  4.12264051385139  0.30259207110711
 6 -1.09645474407441  5.21642917661766  0.47353581908191
 6 -2.35575504920492  4.67872937433743  0.25546145214521
 6  3.14432101410141 -4.05855852605261  0.11518920812081
 6 -5.33369707920792  0.66123141174117 -0.54265573037304
 6  6.62443232223222 -0.81477694729473  0.54448534673467
 6 -3.64266180908091  5.30372143064306  0.16681119181918
 6 -2.15727527912791  3.27495245624562 -0.11153692349235
 6 -0.62075266636664  6.53664933493349  0.87599665126513
 6 -4.19431899449945  5.57000295699570 -1.26471556305631
 1 -0.31967355225523  0.48863572937294 -0.33965370507051
 1  2.99397675867587 -1.02751089228923 -1.01156124352435
 1  2.72517239853985 -2.76572816941694 -2.41043759085909
 1  1.01711271747175 -3.58077218811881 -2.76911527162716
 1 -5.82050377767777 -2.71773039773977  2.35439597949795
 1  5.23730624312431  0.20089947134713 -1.26079642694269
 1  5.80156872427243  1.66954648274827 -0.50524409900990
 1 -2.90657687538754 -0.00409261896190 -0.57213761126113
 1  0.58083531413141  1.91915175907591 -0.46855430093009
 1 -1.22954769056906 -4.66627119761976 -0.98381789158916
 1 -2.61067117811781 -3.54147473387339 -1.75815394849485
 1 -1.15291047094709 -4.32826989578958 -2.71244683398340
 1 -2.42463484978498 -3.61341107180718  0.52319498469847
 1  1.36449727902790 -5.23278597689769 -0.72470786068607
 1  2.78455455985598 -5.26211031793179 -1.65136051795180
 1  4.58750398339834 -0.78847001040104  1.02376211231123
 1  5.32598694409441  0.37731377007701  2.01734953805381
 1  4.62385291089109  4.67154757115712 -0.37605897769777
 1  5.50977406910691  3.52372990619062  0.67717350695070
 1  4.24791182378238  4.80018549064907  1.38201391829183
 1  1.62581335993599  5.01498067546755  0.69479055425543
 1 -7.63966553485349 -2.97122220572057  1.35376664626463
 1 -6.96658072197220 -4.54587096919692  1.15947178757876
 1 -7.05015071207121 -3.55916333243324 -0.33785169676968
 1 -6.80871539383938 -0.45635654415442  0.48314631573157
 1 -4.78620759285929  1.22460728162816  0.22283502220222
 1 -6.25778415581558  1.42220129512951 -0.85071938803880
 1 -4.49065837783778  0.44184434663466 -1.48272503730373
 1 -3.68152013751375  6.11139554465447  0.58921579807981
 1 -4.39212065026503  4.70767309920992  0.71634766106611
 1  0.08550940644064  6.30616118151815  1.68279812141214
 1 -1.52460857115712  7.21232468716872  1.01178052975298
 1 -0.07676850885088  6.93849613531353  0.17531848894889
 1 -3.45194310131013  6.28859648534853 -1.72721692419242
 1 -5.13443615081508  5.99352246834684 -1.24760463766377
 1 -4.12594607150715  4.52252242254225 -1.83942345034503
 1  3.56616501700170 -4.46404261676168  1.83013379577958
 1  7.75017304190419 -1.94949433843384  1.48079546254625

