%nproc=4
%Mem=2GB
# td=(NStates=1) B3LYP/SVP 

TD

0 1
 8 -4.34371588238824 -5.06726109730973  1.56975100350035
 8  2.83038706740674 -4.92823413021302  1.09171330863086
 8  7.00256656095610 -1.38672594229423  2.04707738723872
 8  3.67943300080008 -3.15869389438944 -0.03716705610561
 8  7.58333787038704 -0.34420431553155  0.02974694199420
 8 -3.06312189828983  2.44860291109111 -0.44718628002800
 7 -0.21253824852485 -0.55094928802880 -0.52346935983598
 7  1.58691718441844  1.86885731823182 -0.40485206280628
 7 -3.24597658665867 -3.13781489448945  0.61588790739074
 7 -0.80436893259326  2.85660681008101 -0.11766561236124
 6  0.67590985528553 -2.38645660406041 -1.40636293139314
 6  0.97955085738574 -1.03055028672867 -1.05404425332533
 6 -0.76529065776578 -2.56181454365437 -1.21863392609261
 6 -1.27621804380438 -1.36490680208021 -0.69492862286229
 6  3.80479894069407  1.56901006750675 -0.48389265606561
 6  2.60541264706471  0.92823464896490 -0.61196538153815
 6  2.32682793299330 -0.41664892279228 -0.96073554815482
 6  3.64242488258826  2.86361616381638 -0.00783279297930
 6  1.49544094919492 -3.39537123842384 -2.03533087868787
 6 -5.45060396709671 -2.79959557445745  1.44593185748575
 6 -3.56557041634163 -1.80195517141714  0.27192312411241
 6  2.15743005510551  3.11480147434743  0.00987861126113
 6 -5.03082577887789 -1.53234219811981  0.56716075997600
 6  5.13722898479848  0.74993991089109 -0.42665162386239
 6 -2.58312312801280 -0.92655121052105 -0.25831230503050
 6 -1.60742040414041 -3.70404015711571 -1.76854717151715
 6 -4.26749641804180 -3.89187341914191  1.29507463306331
 6  2.03766490019002 -4.51102012571257 -1.10378960576058
 6  5.32740154255426 -0.15857398089809  0.88183073027303
 6  4.54657071837184  3.86126897619762  0.42542474277428
 6  1.26869554795480  4.06205075537554  0.30480220082008
 6 -6.77673232383238 -3.35855063486349  0.98216727882788
 6 -5.81813139373937 -0.58435421942194  0.23176034293429
 6 -0.11914983428343  4.01058930873087  0.22417422932293
 6 -1.09456455505551  5.10705823952395  0.61450991649165
 6 -2.33699317301730  4.59386088748875  0.21415732173217
 6  2.93982056405641 -4.13015568576858  0.03722141134113
 6 -5.38722243174317  0.51876716531653 -0.74554601940194
 6  6.76586646564656 -0.65133060266027  0.92976387458746
 6 -3.72890043294329  5.21496255475548  0.31881639233923
 6 -2.08787833943394  3.23405836683668 -0.13106887668767
 6 -0.76396698779878  6.54058972897290  0.90689974157416
 6 -4.25531509410941  5.34343029972997 -1.06723581508151
 1 -0.50879246414641  0.26251311711171 -0.18541828152815
 1  3.16637399839984 -1.16884502570257 -0.88452854025403
 1  2.38270815211521 -2.80240183678368 -2.42813936103610
 1  1.09409041524152 -3.94806891779178 -2.92202056215622
 1 -5.46103783108311 -2.49219784448445  2.46535707560756
 1  5.15422793529353 -0.01512213081308 -1.22685303260326
 1  5.96713528092809  1.34602413051305 -0.59332290689069
 1 -2.73773999169917  0.13783157345735 -0.24368476597660
 1  0.59914714531453  1.74587443134313 -0.57020446594659
 1 -1.86572130793079 -4.62616718721872 -1.13594310411041
 1 -2.46531664266427 -3.22756334273427 -2.28428656175618
 1 -1.13667884778478 -4.07395446424642 -2.73707929722972
 1 -2.31855424172417 -3.57964769546955  0.75020768596860
 1  1.10858168746875 -4.99431212951295 -0.98672406230623
 1  2.42063816821682 -5.33365747264726 -1.85113049494949
 1  4.89044427742774 -1.06037720112011  0.89456919301930
 1  5.22590693609361  0.50854689338934  1.83478128122812
 1  4.41034155975598  4.78938935533553 -0.28227959975998
 1  5.52779587128713  3.46480401360136  0.26407219681968
 1  4.46931396399640  4.02443791589159  1.54258997589759
 1  1.84775555415541  4.98945812321232  0.47024810001000
 1 -7.84777634593459 -2.74324940844084  1.32134340394039
 1 -6.75793985788579 -4.21654803690369  1.64817065746575
 1 -6.64777047404740 -3.84944236033603 -0.03615152675268
 1 -6.79724424672467 -0.27054796329633  0.78092609370937
 1 -4.77779675177518  1.29061388228823 -0.45104236553655
 1 -6.17317569496950  1.18334740974097 -1.24067838393839
 1 -4.93871318331833 -0.27679751755176 -1.62769953475348
 1 -3.57542952845285  6.32010641574157  0.70255713221322
 1 -4.43208464666467  4.79560189208921  0.91321734803480
 1 -0.13424256875688  6.58924949034903  1.85043488508851
 1 -1.65426153645364  7.12560601530153  0.99505885758576
 1 -0.06887771977198  6.89447173287329  0.07930888798880
 1 -3.57150505750575  5.85441306700670 -1.80546474897490
 1 -5.16929963716372  6.19166228232823 -1.12950282748275
 1 -4.57764124102410  4.38817898819882 -1.49237874587459
 1  3.42636103660366 -4.56420263276328  1.80851163356336
 1  8.01176920152015 -1.81530091909191  1.98191557455746

