%nproc=4
%Mem=2GB
# td=(NStates=1) B3LYP/SVP 

TD

0 1
 8 -4.34474598539854 -4.88306267746775  1.84632866126613
 8  3.04084811351135 -4.82735404220422  1.14146828412841
 8  6.83366967126713 -1.51553882358236  1.86675935543554
 8  3.77197225472547 -2.98178620362036 -0.03837717711771
 8  7.44702423902390 -0.83952384748475 -0.16276230893089
 8 -2.98353393949395  2.36114416521652 -0.39099066046605
 7 -0.22039903460346 -0.57830202330233 -0.49364637753775
 7  1.53582207490749  1.84497492999300 -0.43107468506851
 7 -3.32937492649265 -3.17729884288429  0.56579289788979
 7 -0.78918741444144  2.91376252565257 -0.06423026882688
 6  0.68643090739074 -2.36990494889489 -1.40358265336534
 6  0.98945184748475 -1.05871310301030 -1.01841068996900
 6 -0.65370949964996 -2.63286164836484 -1.33098516121612
 6 -1.24973539553955 -1.45320563196320 -0.73764289428943
 6  3.80782924372437  1.52385555205521 -0.31497576437644
 6  2.55335744154415  0.88597042254225 -0.67458164316432
 6  2.27531278147815 -0.45947320522052 -1.02259173377338
 6  3.51980262036204  2.85904570677068  0.03510150045005
 6  1.70270167526753 -3.31179288058806 -1.95467281288129
 6 -5.50911981868187 -2.73143875877588  1.28311557585759
 6 -3.68080193949395 -1.92177715361536  0.03953988578858
 6  2.02626693879388  3.02221221542154  0.03193081648165
 6 -5.05460815711571 -1.69902886678668  0.36352039593959
 6  5.02406766866687  0.73150806770677 -0.49069802850285
 6 -2.59818463416342 -1.08324688008801 -0.40538701250125
 6 -1.33197285938594 -3.96359611271127 -1.60182049884988
 6 -4.36945661406141 -3.78213244504450  1.34749987558756
 6  2.14633576727673 -4.42543156685669 -0.97295652245225
 6  5.43309211161116  0.07726960346035  0.85607815501550
 6  4.51199726102610  3.75409825912591  0.50544274457446
 6  1.26986566496650  4.14543909420942  0.33677539813981
 6 -6.76965161576158 -3.50840562036204  0.94315337743774
 6 -5.70634021462146 -0.55580136413641  0.08818598549855
 6 -0.14930284958496  4.08480673047305  0.24709652155216
 6 -1.11048614721472  5.28900643434343  0.58171663716372
 6 -2.35670514421442  4.68537003840384  0.35958186418642
 6  3.19208579057906 -4.02554522472247  0.12410009920992
 6 -5.55130884038404  0.65484077267727 -0.67090855565557
 6  6.71839171817182 -0.77584305390539  0.80683158135814
 6 -3.71262880578058  5.27688874737474  0.41009552025203
 6 -2.15337488908891  3.24429939093909 -0.08841461126113
 6 -0.79417000810081  6.66163183318332  0.92567161876188
 6 -4.17167673027303  5.57096305300530 -1.00544963646365
 1 -0.43999558445845  0.39581644744474 -0.44864460416042
 1  3.09292665366537 -1.18219636083608 -1.12410249764976
 1  2.52521240254025 -2.97182877947795 -2.12690923802380
 1  1.21187219341934 -3.67302141304130 -2.87400576067607
 1 -5.76430815811581 -2.38647727242724  2.32915345524553
 1  5.10789330183018  0.19212859425943 -1.20683103040304
 1  6.16391495889589  1.28912844094409 -0.72037561216122
 1 -2.77239345704570 -0.04450666036604 -0.68939933743374
 1  0.35427265786579  1.69398924282428 -0.84690213571357
 1 -1.14940967676768 -4.91062563306331 -0.76795630543054
 1 -2.47458756975698 -3.77865845224522 -1.56109424252425
 1 -0.93495867576758 -4.54003107190719 -2.48686427572757
 1 -2.38080046634663 -3.52526225692569  0.48821148634863
 1  1.22557338663866 -4.88693139143914 -0.43418880878088
 1  2.48076418081808 -5.25750985788579 -1.64348973087309
 1  4.59823505650565 -0.65811697509751  1.30610034613461
 1  5.40266461186119  0.73075911461146  1.82028983208321
 1  4.28663918951895  4.55387580398040  0.04051267946795
 1  5.53367645934594  3.49363689688969  0.01734752435244
 1  4.41152818541854  4.26488196029603  1.57807352425243
 1  1.78350912951295  5.08054723212321  0.57860893609361
 1 -7.64719628792879 -2.93822890639064  1.03575484508451
 1 -6.96898096199620 -4.38174455655566  1.44803064346435
 1 -6.67570326732673 -3.70695811191119 -0.13276118771877
 1 -6.83692821512151 -0.80058096659666  0.52248024912491
 1 -5.11188016011601  1.59180400130013 -0.00359762106211
 1 -6.60227860526053  0.99159823482348 -1.23003731983198
 1 -4.83212252425243  0.57075723792379 -1.49152591739174
 1 -3.66962894839484  6.40439484458446  0.67743461996200
 1 -4.38158959715972  4.69935226712671  0.90907693399340
 1 -0.18884802930293  6.83528409380938  1.76653649524952
 1 -1.61384749504950  7.18025147984798  1.44938429012901
 1 -0.31349218121812  7.06060834653465 -0.03798284118412
 1 -3.43825173217322  6.46212383808381 -1.35114931743174
 1 -5.29660236743674  5.86877999409941 -1.15230510771077
 1 -3.89086256315632  4.75473564386439 -1.81630113811381
 1  3.74462286278628 -4.64542075457546  1.90865164756476
 1  7.77393541814181 -1.96872626162616  2.02922030503050

