%nproc=4
%Mem=2GB
# td=(NStates=1) B3LYP/SVP 

TD

0 1
 8 -4.38838034883488 -4.88772314351435  1.76502053045305
 8  3.49512354105411 -4.83991529832983  0.96892102940294
 8  6.90481678597860 -1.37073434313431  2.08252093159316
 8  4.04812987048705 -3.02465049004900 -0.24548788818882
 8  7.43529306590659 -0.98985888098810 -0.19893592629263
 8 -3.03475906200620  2.44317236803680 -0.28136969836984
 7 -0.26978397309731 -0.64498869196920 -0.57461447434743
 7  1.47185567826783  1.88375880838084 -0.39810138773877
 7 -3.36684867386739 -3.10733184618462  0.65511182978298
 7 -0.79534803050305  2.91632278167817  0.01971812601260
 6  0.58029029332933 -2.41753971237124 -1.36209850495050
 6  0.89176207850785 -1.14197142884288 -0.98859770867087
 6 -0.84514864356436 -2.70720908310831 -1.30813287598760
 6 -1.37382780478048 -1.51719203060306 -0.73015214521452
 6  3.79654811561156  1.48603176967697 -0.23090735753575
 6  2.41240334613461  0.85880770627063 -0.55619980498050
 6  2.21758700890089 -0.55225248314831 -0.91357083168317
 6  3.50969160926093  2.87780758295830  0.11291928222822
 6  1.70975238033803 -3.31044274557456 -1.98141548714872
 6 -5.52878178487849 -2.80951656655666  1.34330159445945
 6 -3.66468032733273 -1.84652962886289  0.21987791959196
 6  2.05939025112511  3.01714170837084  0.05260288368837
 6 -5.08108080438044 -1.63227219111911  0.53543758765877
 6  5.01422668456846  0.90783570047005 -0.35879483818382
 6 -2.68933374907491 -1.07695625102510 -0.25765223902390
 6 -1.57603726582658 -3.94255400850085 -1.73147346414641
 6 -4.39836950535054 -3.80119435123512  1.29484461006101
 6  2.28828996269627 -4.40193921762176 -1.09971919871987
 6  5.35539434183418 -0.02866098959896  0.92121466866687
 6  4.55107116841684  3.91233408270827  0.48250045034503
 6  1.31317999639964  4.15784033433343  0.37621934253425
 6 -6.94602925352535 -3.39482426222622  1.02769183128313
 6 -5.87139672027203 -0.59896568056806  0.17338450535054
 6 -0.11851977127713  4.10960921072107  0.32132394429443
 6 -1.09984508310831  5.25274280798080  0.52316078157816
 6 -2.35597507120712  4.79096059745975  0.16140204620462
 6  3.38149473147315 -4.00645331553155 -0.07879018981898
 6 -5.43986769626963  0.52986827542754 -0.74193565836584
 6  6.70039991899190 -0.81596706630663  0.87935883408341
 6 -3.71993953685369  5.41684274277428  0.21680619131913
 6 -2.23790334193419  3.21940690169017 -0.10699646944695
 6 -0.63695428652865  6.54328999899990  0.93368241984198
 6 -4.11250081268127  5.57396335303530 -1.31158024952495
 1 -0.38773035793579  0.19320618641864 -0.19712945264526
 1  2.98860622162216 -1.25255339653965 -0.88654874227423
 1  2.42007188848885 -2.50572216881688 -2.62298884598460
 1  1.24044505070507 -3.91867597849785 -2.85214357445745
 1 -5.50637236453645 -2.42171079577958  2.40581112101210
 1  5.13781629412941  0.19314869626963 -1.25956630393039
 1  5.78237680508051  1.56876640474047 -0.48182175677568
 1 -2.91955817351735  0.12609039933993 -0.20971136863686
 1  0.42324955555556  1.95286513041304 -0.36022346784678
 1 -1.71759649544955 -4.73308787928793 -1.11633114291429
 1 -2.51809192019202 -3.67097768416842 -2.48534666776678
 1 -0.69761494139414 -4.53150021882188 -2.50098568786879
 1 -2.52133451975198 -3.44398412911291  0.75355802100210
 1  1.48842967226723 -4.77944064236424 -0.64127951785179
 1  2.73166927132713 -5.13396750365037 -1.78570395229523
 1  4.56835206820682 -0.91278244164416  0.98975871197120
 1  5.32669701510151  0.61909794849485  1.71318912201220
 1  4.23570409600960  4.76880729712971 -0.14035540734073
 1  5.59797288898890  3.78725625882588  0.56094188378838
 1  4.25849288188819  4.19759523162316  1.56565228212821
 1  1.78491927052705  5.14524370177018  0.60308138333833
 1 -7.83783535183518 -2.79174425792579  1.32110337993799
 1 -7.14726879077908 -4.33380976307631  1.59160500090009
 1 -7.01883758075808 -3.65044246034603 -0.04697260886089
 1 -7.00829535183518 -0.69008991749175  0.57908590969097
 1 -4.58780775287529  1.32942776367637 -0.10766802810281
 1 -6.38189656705671  1.08326740174017 -0.86526084218422
 1 -4.96676598859886  0.28625878807881 -1.83157992279228
 1 -3.58387037253725  6.36480088518852  0.66524340084008
 1 -4.46355779397940  4.71197352925293  0.74855088138814
 1  0.06783763926393  6.44874543994399  1.72688252985299
 1 -1.47664377467747  7.26697015171517  0.98292764446445
 1  0.11641080908091  6.98285057075708  0.30240119721972
 1 -3.38274618161816  6.25628325402540 -1.74007821032103
 1 -5.04927763496350  6.10386350245025 -1.46602647984798
 1 -4.13594707160716  4.72316248654866 -1.97470697869787
 1  4.14619301980198 -4.40919713221322  1.51634241664166
 1  7.63403142774277 -2.07118650765077  1.80653803680368

