%nproc=4
%Mem=2GB
# td=(NStates=1) B3LYP/SVP 

TD

0 1
 8 -4.27581909270927 -4.87076144734473  1.78538256665667
 8  2.83533756245625 -4.87393870067007  1.10760489778978
 8  6.97611391569157 -1.66493376307631  1.68809148864886
 8  3.82868792629263 -3.26662468746875 -0.00023336273627
 8  7.73017255385539 -0.21805170027003  0.07000096739674
 8 -2.99446503260326  2.29333738453845 -0.42058361976198
 7 -0.24911190589059 -0.45718991209121 -0.55811282418242
 7  1.52098059075908  1.84015444794479 -0.36132771037104
 7 -3.34141613061306 -3.12560367336734  0.69423574217422
 7 -0.82421091679168  2.87380853025302  0.04990114431443
 6  0.57578984328433 -2.36510446884688 -1.42577487258726
 6  0.91142404470447 -1.08295552725273 -0.92008085698570
 6 -0.77069119781978 -2.59631799399940 -1.21407347004700
 6 -1.27732815481548 -1.43524383578358 -0.74942407240724
 6  3.77113557435744  1.60613377987799 -0.26488075487549
 6  2.47490959675968  0.89307113261326 -0.63078726372637
 6  2.23135838603860 -0.41927918581858 -0.88278775337534
 6  3.53349398949895  2.82789259145915  0.10226821712171
 6  1.61175258035804 -3.36631833313331 -2.03942128772877
 6 -5.51257016371637 -2.85825144004400  1.25313257755776
 6 -3.60405426472647 -1.83518849474947  0.19167509930993
 6  2.03537784988499  2.99322931713171  0.01610923432343
 6 -5.02842553885389 -1.54883384728473  0.52378642254225
 6  5.17051231313131  0.85503041994199 -0.42574153285329
 6 -2.64040885658566 -0.99109766516652 -0.33430990479048
 6 -1.54689435153515 -3.74183393649365 -1.70439075587559
 6 -4.39119878827883 -3.80538477027703  1.22473759935994
 6  1.99921105480548 -4.47833685738574 -1.09426865366537
 6  5.37335613801380 -0.20163828732873  0.79094164136414
 6  4.55228128942894  3.93962681198120  0.40849304960496
 6  1.34182286068607  4.13133768406841  0.34992671327133
 6 -6.74176882748275 -3.66975175497550  0.72002106420642
 6 -5.78343792439244 -0.52135791979198  0.25594276117612
 6 -0.19117703700370  4.04079232903290  0.36290810271027
 6 -1.06815191379138  5.15858339203920  0.47117558305831
 6 -2.25085455915592  4.66590809220922  0.27920382638264
 6  2.96344292629263 -4.08093076327633  0.09025671487149
 6 -5.36172988248825  0.63823911251125 -0.53588505330533
 6  6.87327720672067 -0.60070554015402  0.85556645484548
 6 -3.67956549944995  5.38721978047805  0.19232374307431
 6 -2.18421797339734  3.16765172617262 -0.05611138093809
 6 -0.71280187128713  6.57642331233123  0.78573762536254
 6 -4.18617818041804  5.35890184688469 -1.20341943344334
 1 -0.33904548944894  0.43520038583858 -0.10105984568457
 1  3.04775213621362 -1.08949709090909 -0.97843793119312
 1  2.76611649294929 -3.09076067266727 -2.42307885498550
 1  1.13117412361236 -3.75904001490149 -2.87796615671567
 1 -5.76074780208021 -2.62482110681068  2.28202874277428
 1  5.22262477497750  0.05251463286329 -1.34362470977098
 1  5.95494406180618  1.47269679777978 -0.35693926852685
 1 -2.95158137583758  0.06398418871887 -0.39264966246625
 1  0.52064929552955  1.77519736363636 -0.45286273177318
 1 -1.41443617941794 -4.51658622912291 -0.93099260906091
 1 -2.70345045604560 -3.54245483188319 -1.76344447754775
 1 -1.05900108000800 -4.18010507930793 -2.60334592389239
 1 -2.41954434073407 -3.49375910661066  0.72956562176218
 1  1.17832866216622 -4.93709640794079 -0.57820321022102
 1  2.45192129652965 -5.35592969986999 -1.56652203410341
 1  4.92075730873087 -1.24663582698270  0.69387912401240
 1  5.15353969936994  0.25852189088909  1.75184298739874
 1  4.48078860446045  4.64998541494149 -0.46088746054605
 1  5.59386247794780  3.61740927412741  0.46978276787679
 1  4.16367339993999  4.30440591269127  1.39935565246525
 1  1.77645842444244  5.03540271767177  0.60135121032103
 1 -7.78375994429443 -3.05685076857686  1.01205247484749
 1 -6.73089715361536 -4.65788217031703  1.31379722012201
 1 -6.74656035303530 -3.87555497159716 -0.25120303190319
 1 -6.92426694899490 -0.51518242674267  0.58354635573557
 1 -4.77748672077208  1.24048886978698  0.27446018471847
 1 -6.24764314171417  1.38693776877688 -1.04753907000700
 1 -4.67786709870987  0.22514267646765 -1.28213497829783
 1 -3.42381436693669  6.39358376347635  0.64955183168317
 1 -4.30598203640364  4.75146747864787  0.89445547184718
 1 -0.49450859535954  6.66326689208921  1.89551939353935
 1 -1.79372548284829  7.23237669236924  0.55115446714671
 1  0.22652182018202  7.02058434413441  0.29314027112711
 1 -3.64986289328933  6.11598922462246 -1.78526272877288
 1 -5.36926963416342  5.72829594569457 -1.03931380858086
 1 -4.30291376827683  4.29778994929493 -1.65768527652765
 1  3.62441084158416 -4.56432264476448  1.79826060846085
 1  7.88331635623562 -2.12169155815582  1.61123850685068

