%nproc=4
%Mem=2GB
# td=(NStates=1) B3LYP/SVP 

TD

0 1
 8 -4.46836834763476 -5.05429980118012  1.64081811021102
 8  3.04760878957896 -4.85079638643864  1.09798393569357
 8  6.87569387368737 -1.64916218591859  1.76334901440144
 8  3.70028508600860 -3.11147917291729 -0.01204454385439
 8  7.50444998159816 -0.64319421452145 -0.21823785648565
 8 -3.08875446154615  2.33449149995000 -0.24372593399340
 7 -0.21362835753575 -0.46817101020102 -0.47177419031903
 7  1.59566805950595  1.83288372087209 -0.28736031363136
 7 -3.38208019701970 -3.19261037403740  0.64786110471047
 7 -0.80962945864586  2.92607375677568 -0.18485233103310
 6  0.72691495579558 -2.36504446284628 -1.36371866696670
 6  0.96838974127413 -1.07433466516652 -0.94793364226423
 6 -0.69323345204520 -2.51792015421542 -1.18993105580558
 6 -1.18242866486649 -1.36726703810381 -0.59545867586759
 6  3.86123458425843  1.59733289978998 -0.19892415921592
 6  2.58215032083208  0.84353617911791 -0.46224040904090
 6  2.34181943214321 -0.47098435633563 -0.78747822242224
 6  3.54733537363736  2.86916671887189  0.17806579687969
 6  1.68049945504550 -3.24417611891189 -2.05099244484448
 6 -5.53812271897190 -2.73248886378638  1.38181544584458
 6 -3.62857671697170 -1.88228320422042  0.22593852565257
 6  2.08943325542554  2.99299929412941  0.10452807620762
 6 -5.07016971327133 -1.65273423732373  0.47124116801680
 6  5.31058632053205  0.97563248014801 -0.30408936763676
 6 -2.59427424312431 -1.06894544994499 -0.30253672747275
 6 -1.36027568966897 -3.71850160326033 -1.74504482128213
 6 -4.39119878827883 -3.83215744754475  1.29454458005801
 6  2.16025715941594 -4.45115413911391 -1.11076030283028
 6  5.37623642604260 -0.00517864136414  0.74555710291029
 6  4.52298836013601  3.99199204850485  0.52929512981298
 6  1.27898657705771  4.17521207150715  0.16468818941894
 6 -6.87488213881388 -3.32447722752275  0.91892095419542
 6 -5.86540612121212 -0.53833961796180  0.11175834273427
 6 -0.14782270157016  4.03047129692969  0.12952476437644
 6 -1.08724382298230  5.13889142284228  0.35338380388039
 6 -2.39191866556656  4.68762026342634  0.32287819381938
 6  2.99934651665167 -4.08383105330533  0.10095778497850
 6 -5.39847355685569  0.55069035763576 -0.64157562236224
 6  6.67428730773077 -0.81801727132713  0.71311220942094
 6 -3.66369391229123  5.21836289478948  0.32492700340034
 6 -2.15083463506351  3.17704266526653 -0.15395116491649
 6 -0.62906349744974  6.58436410641064  0.76455550715071
 6 -4.37593715631563  5.28582453915392 -1.13034212571257
 1 -0.35422700760076  0.28284515031503  0.13834409470947
 1  3.11784914591459 -1.07026516771677 -1.19566965436544
 1  2.61472135343534 -2.83379497609761 -2.40329687678768
 1  1.42199320552055 -3.80166427732773 -3.02163052315231
 1 -5.54321604890489 -2.30291891659166  2.35400594049405
 1  5.32085459795980  0.45862524392439 -1.24993534083408
 1  6.11251981938194  1.85446497459746 -0.31121469606961
 1 -2.91413763146315  0.01062885318532 -0.35904630213021
 1  0.66259348994900  1.87507735163516 -0.76368381388139
 1 -1.26764149994999 -4.56990156065607 -1.03035254505451
 1 -2.64118422942294 -3.74994558095810 -1.92520065316532
 1 -1.02636781668167 -4.18448551735174 -2.63739932923292
 1 -2.60590297659766 -3.60901063176318  0.62911557675768
 1  1.13529435873587 -4.88118081638164 -0.78588397829783
 1  2.57419352375238 -5.27376148304831 -1.55888127002700
 1  4.50039527252725 -0.92204336773677  0.67697743384338
 1  5.06354069946995  0.50521656035604  1.82046985008501
 1  4.27665819141914  4.79156957335734 -0.17307867966797
 1  5.68564165586559  3.74454198739874  0.49569535913591
 1  4.49505653825383  4.26274174627463  1.61865758265827
 1  1.64496527512751  5.08318749614962  0.57930900610061
 1 -7.78124969326933 -2.61614669816982  1.08832010161016
 1 -7.17954201810181 -4.05257163926393  1.55390123052305
 1 -6.95078077507751 -3.84343175927593  0.00047213561356
 1 -6.90508503080308 -0.58593950245025  0.26641464256426
 1 -4.78960793289329  1.25813063396340  0.01075381408141
 1 -6.10668904630463  1.14625370037004 -1.33998831493149
 1 -4.38233754575458  0.30196035823582 -1.10872763756376
 1 -3.49593157865787  6.22864726982698  0.73642051855186
 1 -4.44578601680168  4.55137746964696  0.90077610391039
 1 -0.04760390489049  6.79012957835784  1.62702254385438
 1 -1.39718582888289  7.31582503720372  0.91709106080608
 1 -0.15483631563156  7.04127641334133 -0.10613965686569
 1 -3.85000290729073  5.99185681138114 -1.83775797829783
 1 -5.17614032123212  5.49015213131313 -0.89896977417742
 1 -4.38665214211421  4.32849301960196 -1.55388489648965
 1  3.88729713021302 -4.57549376187619  1.70828161056106
 1  7.91567959255926 -1.98100748974897  1.80374775777578

