%nproc=4
%Mem=2GB
# td=(NStates=1) B3LYP/SVP 

TD

0 1
 8 -4.23801531233123 -4.93639801100110  1.69144317271727
 8  2.87201122982298 -4.95007631443144  1.05980011731173
 8  6.81944824912491 -1.62456972667267  1.92643532303230
 8  3.71548660616062 -3.18414643964396 -0.00407374677468
 8  7.55501503810381 -0.63060295539554  0.10832479977998
 8 -3.08181376747675  2.35948399919992 -0.27848941034103
 7 -0.20381737643764 -0.47938213131313 -0.63652066496650
 7  1.58341683438344  1.89644007650765 -0.31642321992199
 7 -3.28431042004200 -3.19040015301530  0.64299061766177
 7 -0.87336583228323  2.88874002340234  0.00080623482348
 6  0.74391665596560 -2.45632359075908 -1.41271356645665
 6  1.00506340864086 -1.05716294799480 -1.06530537943794
 6 -0.61808593729373 -2.57086544874487 -1.30639270197020
 6 -1.22893331533153 -1.39662997439744 -0.74763389338934
 6  3.80134859565957  1.60469363586359 -0.33713798059806
 6  2.49685179097910  0.91605343084308 -0.52392657765777
 6  2.21412666286629 -0.42271952985298 -0.97448692329233
 6  3.53881452155216  2.83136293849385 -0.01890390009001
 6  1.63223462856286 -3.39182088338834 -2.04067141274127
 6 -5.41052995969597 -2.77658327322732  1.43588085238524
 6 -3.51386524582458 -1.86472144804480  0.18504443624362
 6  2.11095540764076  3.02644263846385 -0.07987036363636
 6 -4.89298199449945 -1.51442040594059  0.62490653455346
 6  5.15545080698070  0.85063998089809 -0.42230118881888
 6 -2.56697151285129 -0.99541809720972 -0.36315278907891
 6 -1.46827648974897 -3.78805855895590 -1.75081539833983
 6 -4.28447811621162 -3.78364259605961  1.23991911751175
 6  2.08899003270327 -4.52933195689569 -1.10990021682168
 6  5.42889169156916  0.01499337583758  0.95753830103010
 6  4.50921698299830  3.97326017531753  0.34833703400340
 6  1.28067674607461  4.16189073937394  0.21908362896290
 6 -6.73417806840684 -3.40657543734373  0.86429549164916
 6 -5.76881646224622 -0.64021980598060  0.23136030293029
 6 -0.13211113041304  4.03490173997400  0.26792860476048
 6 -1.13942904150415  5.14563209690969  0.38940740624062
 6 -2.43980345404540  4.63156465786579  0.27677358335834
 6  2.91167774977498 -4.12863553375337 -0.02864517531753
 6 -5.54492820232023  0.51948723732373 -0.59810127492749
 6  6.68555843484349 -0.73364883448345  0.92652355055506
 6 -3.71787933083308  5.29514057255726  0.32653716441644
 6 -2.18860841244124  3.21850681168117  0.00979520972097
 6 -0.68649924102410  6.57640331033103  0.79835888748875
 6 -4.19084864746475  5.60216617331733 -1.07586667816782
 1 -0.48979056395640  0.40987785358536  0.26326658695870
 1  2.91030839183918 -1.22218035923592 -1.23440352775278
 1  2.73784366566657 -3.16977857445745 -2.30306685378538
 1  1.28233924012401 -3.87643175407541 -2.96676503660366
 1 -5.51716344364436 -2.37564618931893  2.45865640554055
 1  5.10703321582158  0.36059544094409 -1.41925227252725
 1  5.86291485888589  1.71858138623862 -0.47066064066407
 1 -2.82103832153215 -0.03530574027403 -0.34703510101010
 1  0.47227445804580  1.86176602050205 -0.55591303680368
 1 -1.70034477027703 -4.85273984448445 -1.13937344714471
 1 -2.50412052305231 -3.39207979437944 -2.00964909800980
 1 -0.99800498039804 -4.20161723052305 -2.61228681798180
 1 -2.36424881118112 -3.45520525122512  0.60005267046705
 1  1.29110994029403 -5.15567826612661 -0.48825421532153
 1  2.54521062546255 -5.45556966386639 -1.62890827272727
 1  4.80524575757576 -0.90077124052405  1.10072980908091
 1  5.19064340974097  0.74708074677468  1.88598640174017
 1  4.37126765236524  4.73192360876088 -0.43482485428543
 1  5.59760285198520  3.61802933613361  0.55067085668567
 1  4.14396142874287  4.45849132123212  1.23886960386039
 1  1.70812159075908  5.10590976837684  0.39628070327033
 1 -7.65728729702970 -2.97073215671567  1.10447171677168
 1 -6.54914897879788 -4.28056443854385  1.39491533193319
 1 -6.92477817481748 -3.50284770087009 -0.19038695029503
 1 -6.75556007830783 -0.73194410291029  0.73045104620462
 1 -5.04731370347035  1.52992781368137 -0.18174543584358
 1 -6.50101847924792  1.01191026602660 -0.81990630673067
 1 -4.89097840984098  0.56686684888489 -1.37274403920392
 1 -3.73694568006801  6.09059346444645  1.09291616811681
 1 -4.46760819901990  4.52866519841984  0.78805483178318
 1 -0.24106325082508  6.41739230463046  1.78529837143714
 1 -1.52097820812081  7.24822827752775  0.91933128482848
 1 -0.16107693969397  6.94506679237924 -0.04191323422342
 1 -3.37073498049805  6.06234386008601 -1.70122432493249
 1 -5.17593030023002  6.18958207430743 -1.14693457065707
 1 -4.48741221812181  4.78397856815682 -1.86080558855886
 1  3.70778917941794 -4.72495870837084  1.41784256665667
 1  7.68287631223122 -1.95745513451345  1.90917830083008

