%nproc=4
%Mem=2GB
# td=(NStates=1) B3LYP/SVP 

TD

0 1
 8 -4.10312182298230 -4.85537990919092  1.98909293769377
 8  2.68460248894890 -4.81387269406941  1.18153229052905
 8  6.78053435773577 -1.63259052875288  2.03905658515852
 8  3.73878893639364 -3.21005903090309 -0.01343468286829
 8  7.51092062866287 -0.74569446454645  0.00213418071807
 8 -3.08521410751075  2.29835788658866 -0.17320888228823
 7 -0.25960295499550 -0.46001019411941 -0.55207222012201
 7  1.59739823252325  1.83725415791579 -0.46056763436344
 7 -3.19736172517252 -3.05060617361736  0.61278759735974
 7 -0.76266476217622  2.85189633903390 -0.01763560936094
 6  0.67172943724372 -2.33651160956096 -1.43580587568757
 6  0.97775067736774 -1.06931416311631 -1.01347019591959
 6 -0.75486961566157 -2.53565192739274 -1.38185024772477
 6 -1.32299272127213 -1.35816612801280 -0.76945607560756
 6  3.81152961376138  1.55672883938394 -0.26524079087909
 6  2.52833493929393  0.92470429592959 -0.55661984698470
 6  2.30581583178318 -0.43467072497250 -0.87356683128313
 6  3.47654829492949  2.88182798499850  0.05549353965397
 6  1.59940134523452 -3.34066576787679 -2.06799414501450
 6 -5.28150705740574 -2.79188480338034  1.33951121542154
 6 -3.53352721202120 -1.83485846174617  0.25213114491449
 6  2.11318563066307  3.11800179437944 -0.09359173577358
 6 -4.93735643194319 -1.59652861676168  0.55049909380938
 6  5.12013727562756  0.91487640454045 -0.27598655735574
 6 -2.66876169186919 -0.88541709710971 -0.26981345514551
 6 -1.52364202630263 -3.72465221832183 -1.90503081988199
 6 -4.13516318471847 -3.77383161496150  1.40124525012501
 6  2.05315644934493 -4.43906292999300 -1.22087131393139
 6  5.30839964236424 -0.19523764726473  0.79645219241924
 6  4.56182224352435  3.92316516581658  0.42918511881188
 6  1.32755143354335  4.17720227052705  0.22721444204420
 6 -6.60468511911191 -3.52916769656966  0.83264232633263
 6 -5.69334891549155 -0.66259204320432  0.20038720562056
 6 -0.20454837413741  4.06326457625763  0.23363517541754
 6 -1.15588068666867  5.19072660636064  0.41046951245125
 6 -2.44012348604860  4.64468596999700  0.29184509050905
 6  2.99066564856486 -4.11545421562156 -0.00446275707571
 6 -5.47153086258626  0.53268855745575 -0.87045851065106
 6  6.64593447244725 -0.79213468306831  0.82479337753775
 6 -3.70172771567157  5.24471553005301  0.30435494619462
 6 -2.15036458805881  3.19989495049505 -0.00485625542554
 6 -0.64918550965096  6.50713638363836  0.86370542214221
 6 -4.35237480008001  5.44112006870687 -1.14977406890689
 1 -0.40211179607961  0.35849271507151  0.27203746404641
 1  3.12560992199220 -1.08469661086109 -1.17258734613461
 1  2.49443932523252 -2.68079967656766 -2.54239078617862
 1  1.07263827002700 -3.70990510141014 -2.95711407150715
 1 -5.29962168946895 -2.36149477417742  2.32790333023302
 1  5.31718423092309  0.49326870827083 -1.23512385968597
 1  6.03069163656366  1.68274780288029 -0.31808538313831
 1 -2.78754497219722  0.20635842614261 -0.43737413491349
 1  0.58973620422042  1.82372221612161 -0.55291273677368
 1 -1.39785452125213 -4.57685225572557 -1.39413892369237
 1 -2.50940105110511 -3.21608219461946 -2.21560969406941
 1 -1.08177335723572 -3.88580564936494 -2.79287487678768
 1 -2.20185257155716 -3.38776850755076  0.46309897509751
 1  1.28574940424042 -5.23367606590659 -0.88728411831183
 1  2.62418852325233 -5.01032513941394 -1.88615399729973
 1  4.57451268426843 -1.03290445384538  0.83632336843684
 1  4.97260160556056  0.34656069476948  1.80344814791479
 1  4.26875740134013  4.75091550795080 -0.18389976177618
 1  5.60252334403440  3.78030556375638  0.42625841544154
 1  4.44803183578358  4.36194166626663  1.47076279317932
 1  1.71551232983298  5.23910308770877  0.44633570877088
 1 -7.39752132043204 -2.95222030553055  0.82737400700070
 1 -6.67001106500650 -4.25019140124012  1.63868970937094
 1 -6.30686638363836 -4.03293070917092 -0.25268317991799
 1 -6.82859738203820 -0.77996890539054  0.48292629372937
 1 -4.99568854095410  1.42335715661566 -0.40349761106111
 1 -6.32338071547155  0.88235731073107 -1.38853316941694
 1 -4.95346465846585  0.10721088328833 -1.56912367716772
 1 -3.60605259075908  6.36867127222722  0.71954883138314
 1 -4.24979641784179  4.70609294119412  1.16456248254825
 1  0.03646450195020  6.63605417081708  1.86950679227923
 1 -1.54657076737674  7.21220467516752  1.14930428212821
 1 -0.06862769476948  7.00242252795280 -0.02679172207221
 1 -3.60152805980598  5.90259788548855 -1.71642584508451
 1 -5.35995870307031  5.68476159225923 -1.24771464866487
 1 -4.30406388328833  4.52803297359736 -1.54174368236824
 1  3.43043144364437 -4.47068328082808  1.83277405980598
 1  7.69901792639264 -2.17877726672667  1.66556393939394

