%nproc=4
%Mem=2GB
# td=(NStates=1) B3LYP/SVP 

TD

0 1
 8 -4.34894640544054 -4.90956532773277  1.78197222562256
 8  3.00255428412841 -4.91108241504150  1.09196333363336
 8  6.84639094339434 -1.54345161486149  1.88409108860886
 8  3.80388544604460 -3.03248127312731 -0.01170450985099
 8  7.39768930553055 -0.74634452955296 -0.16815284798480
 8 -3.05791137723772  2.41118916971697 -0.25756731813181
 7 -0.13945093979398 -0.56107030013001 -0.48937595049505
 7  1.61696018871887  1.85092552505251 -0.57639921752175
 7 -3.34419640864086 -3.16397751075107  0.56148246684668
 7 -0.77011550725073  2.86045719511951 -0.02579642544254
 6  0.79860212451245 -2.44844280268027 -1.30425272037204
 6  0.99187208950895 -1.10040727242724 -0.79900874977498
 6 -0.72054618331833 -2.59156751895190 -1.33997606030603
 6 -1.16784720672067 -1.41489180058006 -0.73731286128613
 6  3.84513297409741  1.58681184768477 -0.40526479327933
 6  2.54878698449845  0.89442126762676 -0.55813999899990
 6  2.25623087328733 -0.43554081198120 -0.75885536013601
 6  3.45543618371837  2.86190599279928  0.04577256755676
 6  1.80496190129013 -3.37075877717772 -2.05227257285729
 6 -5.53496240294029 -2.78654426932693  1.26354361866187
 6 -3.57728158745875 -1.79642461836184  0.21052698449845
 6  2.09647395949595  3.06890688488849 -0.11284366096610
 6 -4.98070076637664 -1.56539550345034  0.50882492639264
 6  5.16406166806681  0.87894281118112 -0.26623558225823
 6 -2.51939675537554 -1.01646020142014 -0.34114058785879
 6 -1.49126878897890 -3.83228298139814 -1.77765808260826
 6 -4.38262793119312 -3.81437566936694  1.28408353395340
 6  2.26181731543154 -4.45862488618862 -1.14371359815982
 6  5.33408221062106 -0.06009413291329  0.88297084428443
 6  4.45199126042604  3.89948279757976  0.61258345864586
 6  1.26154483288329  4.15115966626663  0.23968568916892
 6 -6.87982263286329 -3.34661944174417  0.95505456755676
 6 -5.69806938753875 -0.45914169816982  0.21494866176618
 6 -0.19790771007101  4.03999224902490  0.10936274817482
 6 -1.07297239583958  5.18153568726873  0.36215468096810
 6 -2.34940441414141  4.56399790119012  0.30358626462646
 6  3.09463604560456 -4.03958662886289  0.11005869506951
 6 -5.50804451395140  0.69870515911591 -0.67088855365537
 6  6.60882076107611 -0.81155662526253  0.75696659485949
 6 -3.72775031793179  5.22951400990099  0.37263177387739
 6 -2.10131968356836  3.16622158315832 -0.08711448124812
 6 -0.75106569766977  6.59150482048205  0.83823287488749
 6 -4.40538010061006  5.44637059375938 -1.05709480098010
 1 -0.40661224612461  0.34485135093509 -0.08321806150615
 1  3.10444780578058 -1.09102724392439 -0.98075816321632
 1  2.60024990629063 -2.79210080668067 -2.55135168226823
 1  1.28970997719772 -3.90259437033703 -2.93307166726673
 1 -5.57921964926493 -2.65626425112511  2.35872641254125
 1  5.24468698119812  0.44807418881888 -1.20606095339534
 1  5.89471803920392  1.74782431053105 -0.14668824342434
 1 -2.75110132783278 -0.07678988868887 -0.68693909140914
 1  0.60204743534353  1.85838568246825 -0.78088553405341
 1 -1.25533026882688 -4.61250582108211 -1.04598410821082
 1 -2.65436554755476 -3.97158774517452 -1.69690782388239
 1 -1.06830201010101 -4.19893696249625 -2.68329391869187
 1 -2.36702908920892 -3.60081981268127  0.73202586778678
 1  1.56868769806981 -5.09516221452145 -0.71583697359736
 1  3.01593769816982 -5.05634974187419 -1.72613799569957
 1  4.39890512351235 -0.60281144454445  0.77221695779578
 1  5.37862220762076  0.74335037373737  1.77145494859486
 1  4.38180870647065  4.68458887528753  0.07163579177918
 1  5.52374546624663  3.32934046724673  0.45225101470147
 1  4.06963399599960  4.14511998409841  1.68243396029603
 1  1.63960473907391  5.20485966336634  0.50844191939194
 1 -7.69896146444644 -2.57463254675468  1.30059132873287
 1 -7.02526659055906 -4.51233761586159  1.30771661206121
 1 -6.80519621662166 -3.49545696179618 -0.14761267286729
 1 -6.76994151645165 -0.39485039353935  0.62265026612661
 1 -5.00214918701870  1.56257107800780 -0.12038930023002
 1 -6.44583296069607  1.00563963896390 -0.96611092719272
 1 -5.05174448644864  0.34957511971197 -1.50594735953595
 1 -3.76288827432743  6.12009641474147  1.13380025652565
 1 -4.34774621282128  4.40240257215722  0.72199822612261
 1  0.12082293779378  6.41769233463346  1.57214705630563
 1 -1.55440155045505  7.29329278397840  1.27562691439144
 1 -0.09315014701470  7.06930921662166  0.13360431753175
 1 -3.69189709670967  6.05177280298030 -1.74529873237324
 1 -5.19727243444344  6.04005712181218 -0.78323820102010
 1 -4.67692116901690  4.33595376567657 -1.60802031003100
 1  3.67859626012601 -4.81033724622462  1.67699848224822
 1  7.71704972957296 -2.12077146614661  1.77020440344034

