%nproc=4
%Mem=2GB
# td=(NStates=1) B3LYP/SVP 

TD

0 1
 8 -4.37889940074007 -4.91807617881788  1.84102813121312
 8  3.10527455615562 -4.95297660446045  1.12337647494749
 8  6.95389169346935 -1.55823309300930  1.82338501800180
 8  3.74887994549455 -3.13608163316332 -0.06697003640364
 8  7.68078761536154 -0.36638653375338  0.14777874517452
 8 -3.00417600370037  2.43299134993499 -0.38133969536954
 7 -0.28846584128413 -0.48542273537354 -0.79741675457546
 7  1.55622411511151  1.91350178267827 -0.47631920952095
 7 -3.37392938193819 -3.18952006500650  0.59982630123012
 7 -0.77780627632763  2.98277942734273 -0.17476132193219
 6  0.68905116941694 -2.41909986838684 -1.27402969806981
 6  0.83572647494749 -1.11275850755076 -0.94182303120312
 6 -0.68213234193419 -2.55558392059206 -1.29356141884188
 6 -1.37876829882988 -1.41964227562756 -0.75665479547955
 6  3.84514297509751  1.48955212171217 -0.35881014781478
 6  2.53191529732973  0.91423324882488 -0.52645683068307
 6  2.19956520672067 -0.38792605050505 -0.85455493009301
 6  3.60608124822482  2.87143694589459  0.06260425072507
 6  1.66298770387039 -3.37410911221122 -1.95147249284928
 6 -5.57883679037904 -2.73830944584458  1.29932719701970
 6 -3.59609346864686 -1.90351532743274  0.13091902370237
 6  2.16209052115212  3.16852684688469 -0.06189856645665
 6 -5.04728742504250 -1.61963092699270  0.57047109100910
 6  5.11814707660766  0.73281819871987 -0.41747070577058
 6 -2.61017583328333 -1.03027158255826 -0.32844931873187
 6 -1.39931959405941 -3.81332108520852 -1.81201151795180
 6 -4.40790045844584 -3.80506473827383  1.32605773137314
 6  2.07071820552055 -4.66249527322732 -1.01903112991299
 6  5.40142894529453 -0.08963708720872  0.79170171737174
 6  4.65866192749275  3.82301515081508  0.46526872717272
 6  1.32908158655866  4.16991154145415  0.26137785838584
 6 -6.83156780738074 -3.49568434823482  0.81819088118812
 6 -5.89137871847185 -0.56637242124212  0.26829399629963
 6 -0.09031695099510  4.07724597439744  0.19115092699270
 6 -1.00574567316732  5.15476301000100  0.46469493499350
 6 -2.29059853355336  4.69667116851685  0.29024493049305
 6  3.07032361436144 -4.16932960316032  0.00171786098610
 6 -5.49992370187019  0.53823911251125 -0.57311877667767
 6  6.74002388138814 -0.66005147474747  0.86523742194219
 6 -3.80062760566057  5.21725278377838  0.34781929262926
 6 -2.15317486908691  3.26484144514451 -0.11860763056306
 6 -0.84817540864086  6.50262593259326  0.95992504410441
 6 -4.28320788338834  5.55260121682168 -1.06480557205721
 1 -0.42168375327533  0.43052991879188 -0.42188192789279
 1  2.91887924892489 -1.27272541374137 -1.05731581898190
 1  2.61087096839684 -2.87344894149415 -2.31288783588359
 1  1.24537554375438 -3.98621273217322 -2.79690805090509
 1 -5.53489521682168 -2.57065569026903  2.47289782968297
 1  4.97208972147215  0.15461484288429 -1.54282462976298
 1  5.77550611801180  1.46398592669267 -0.58711228582858
 1 -2.79719593729373  0.03538132843284 -0.24145454295429
 1  0.70843807440744  1.93180302420242 -0.58458590409041
 1 -0.97398213401340 -4.73843841434143 -1.24883439323932
 1 -2.51626173717372 -3.69024961136114 -1.76848498159816
 1 -1.22220740064006 -3.97703477227723 -2.60936652595259
 1 -2.41243362966297 -3.64725445614562  0.73787645284528
 1  1.03205403470347 -5.13499619791979 -0.61651704160416
 1  2.56021212561256 -5.62635674257426 -1.70390577247725
 1  4.62955818881888 -0.89843100650065  0.83130286638664
 1  5.24051839723972  0.55164120282028  1.69105690879088
 1  4.58734926052605  4.73571398779878 -0.04269564136414
 1  5.71633472517252  3.27740527372737  0.10336612621262
 1  4.43534056665667  4.07798327042704  1.59435515241524
 1  1.69841061966197  5.12261143854385  0.37116819201920
 1 -7.52557412571257 -2.83117820132013  1.06296756635664
 1 -7.08999306320632 -4.49092547464746  1.31620746114611
 1 -6.79357505450545 -3.44968238433843 -0.28565647724773
 1 -6.81073559585959 -0.54594550305030  0.78164616571657
 1 -4.87229620172017  1.22577739863986  0.13585632433243
 1 -6.24493287068707  1.19987906290629 -1.16409072517252
 1 -4.79660897289729  0.14777493969397 -1.21389815461546
 1 -3.63900588608861  6.09000340544054  1.06774365086509
 1 -4.32803424162416  4.29296162806281  0.71941796809681
 1 -0.16305545004500  6.41613217861786  1.80900074167417
 1 -1.89271538183818  7.04261771647165  1.39759911161116
 1 -0.49695052705271  7.43286557225723  0.33219417651765
 1 -3.79675758275828  6.45388301400140 -1.73767797029703
 1 -5.31764447164716  5.81239435553555 -0.90782065926593
 1 -4.51572504940494  4.72115228552855 -1.63290279827983
 1  3.63028142864286 -4.56157236973697  1.89322010441044
 1  7.95430345494549 -1.81188057705771  2.11907929092909

