%nproc=4
%Mem=2GB
# td=(NStates=1) B3LYP/SVP 

TD

0 1
 8 -4.29407091789179 -4.79906427762776  1.92888691709171
 8  2.97702173087309 -4.71651295809581  1.09166330363036
 8  7.08329463376338 -1.44932220192019  1.94898757825783
 8  3.75472052955296 -3.07315534053405 -0.08343168256826
 8  7.64193372997300 -0.59852974807481 -0.06485251795180
 8 -2.99939552565257  2.43343139393939 -0.47555911731173
 7 -0.24267126182618 -0.52488668176818 -0.56915392829283
 7  1.58037653035304  1.82304273677368 -0.34093567116712
 7 -3.30877286628663 -3.18206931993199  0.60484680328033
 7 -0.78074657035704  2.90416156555656 -0.15987983378338
 6  0.64692695699570 -2.37578553695370 -1.40369266436644
 6  0.94389729202920 -1.08856608830883 -0.94294314321432
 6 -0.77594172287229 -2.58308667086709 -1.31078314101410
 6 -1.22056247824782 -1.41474178557856 -0.66728585858586
 6  3.77880634143414  1.48207137363736 -0.21195546234623
 6  2.40843294909491  0.89653147864786 -0.47465165016502
 6  2.21137638783878 -0.39999725762576 -0.87845732033203
 6  3.50413105320532  2.74674447664766  0.12664065436544
 6  1.63403480858086 -3.39244094539454 -2.03190053565357
 6 -5.48493740044004 -2.72688830373037  1.28268553285329
 6 -3.60836469576958 -1.86071104700470  0.13189912171217
 6  2.11180549264926  2.99388938313831  0.03974159755976
 6 -4.97997069336934 -1.56979594349435  0.46502054595460
 6  5.08887414931493  0.77535245214521 -0.39358831753175
 6 -2.63693850955095 -1.01838039343934 -0.40685715951595
 6 -1.61697135923592 -3.79664941804180 -1.63171348814881
 6 -4.33773344174417 -3.73421765356536  1.35293041864186
 6  2.15928706240624 -4.52754177787779 -1.13595282208221
 6  5.39844864726473 -0.22537066056606  0.83701624882488
 6  4.52851891319132  3.76856970627063  0.52343454375438
 6  1.26656533493349  4.14803935423542  0.21206292689269
 6 -6.83233788438844 -3.53795857565757  0.84477353945395
 6 -5.66787636823682 -0.49711549554955  0.11919908680868
 6 -0.10659857915792  4.05142339213921  0.16362817471747
 6 -1.07006210481048  5.17391492519252  0.43129159465947
 6 -2.32345181888189  4.63157465886589  0.20863676967697
 6  3.03366994899490 -3.99365203540354  0.00625831503150
 6 -5.41130483998400  0.67835312391239 -0.76396786158616
 6  6.83683356235624 -0.68401387098710  0.78571947014701
 6 -3.67153469636964  5.26513757225723  0.34115862656266
 6 -2.11249080068007  3.31745670667067 -0.18454422422242
 6 -0.69838042914291  6.50678634863486  1.00693974557456
 6 -4.55304486708671  5.20104606130613 -0.95223431493149
 1 -0.23061464636464  0.28887575337534 -0.02715245494549
 1  3.20512787378738 -0.98645678687869 -1.13216330373037
 1  2.31583146444644 -2.75439703630363 -2.57208375547555
 1  1.02351335753575 -3.97656176707671 -2.84776313641364
 1 -5.64662638993899 -2.55540416511651  2.37512805270527
 1  5.02254476697670  0.30121950335033 -1.23258360566057
 1  5.83394196159616  1.70071960006001 -0.58049162376238
 1 -2.70174639233923  0.11954974527453 -0.38872927042704
 1  0.58515574617462  1.88310815471547 -0.54281172667267
 1 -2.07368210401040 -4.42022659315932 -0.67519702950295
 1 -2.65307541854185 -3.56651723812381 -2.01947008010801
 1 -1.14828000790079 -4.38280534933493 -2.44313990329033
 1 -2.41446383268327 -3.65771550225023  0.51240390559056
 1  1.40526135543554 -5.36227892619262 -0.68181357125713
 1  2.73293939833983 -5.28471257815782 -1.67094247614761
 1  4.67559279227923 -1.05720688408841  0.87812754885489
 1  5.30404474987499  0.45794183288329  1.67482528562856
 1  4.39548007360736  4.73215363176318 -0.14740611241124
 1  5.57079017071707  3.46841437463746  0.57113290289029
 1  4.13677070967097  4.25490096219622  1.54788050495050
 1  1.80271104970497  5.05456463386339  0.66198727392739
 1 -7.64792636093609 -2.83944902840284  0.80917218681868
 1 -6.87112117601760 -4.28438482058206  1.47352319271927
 1 -6.91465716271627 -3.93206062216222 -0.26875478707871
 1 -6.68683320562056 -0.45719662816282  0.71830983208321
 1 -4.90914988708871  1.25631045194519 -0.18636589788979
 1 -6.41334971237124  0.95789486448645 -1.22885720182018
 1 -4.63444275627563  0.50570073227323 -1.50963772857286
 1 -3.37474946044604  6.27628203330333  0.88423530003000
 1 -4.20444188238824  4.70825315721572  1.17231325762576
 1 -0.02221136563656  6.33906447184718  1.85012485408541
 1 -1.70344645494549  7.07889134383438  1.19673902560256
 1  0.04340350835083  6.96010829652965  0.35310626772677
 1 -4.00807871487149  5.63717134283428 -1.78517271977198
 1 -5.41684439163916  5.85065818191819 -0.79333921112111
 1 -4.82963644054405  3.98532870317032 -1.18516802480248
 1  3.71252965346535 -4.30399661216122  1.75433621602160
 1  7.87944596919692 -1.62212160116012  1.97675505850585

