%nproc=4
%Mem=2GB
# td=(NStates=1) B3LYP/SVP 

TD

0 1
 8 -4.11319283008301 -4.75651002220222  1.94336836523652
 8  3.05694972367237 -4.86036734353435  0.99777391469147
 8  6.85648195249525 -1.45448271797180  2.07084976447645
 8  3.98421347884788 -3.23067109210921 -0.21434477387739
 8  7.54931446804680 -0.78515841094109  0.01912587988799
 8 -3.04994058015802  2.50021807260726 -0.39062062346235
 7 -0.32412940764076 -0.55295948904890 -0.67864487738774
 7  1.46804529722972  1.82498293079308 -0.35019659725973
 7 -3.16444843384338 -3.13635474847485  0.65031134973497
 7 -0.90312880858086  2.91387253665367  0.11322747694769
 6  0.62230449474948 -2.40320827922792 -1.53987628272827
 6  0.91329423172317 -1.08083531523152 -1.07178602750275
 6 -0.78197232593259 -2.63673203540354 -1.45794785748575
 6 -1.33154357635764 -1.41861217261726 -0.86017514751475
 6  3.69494795559556  1.46619978647865 -0.24246851365137
 6  2.41220332613261  0.90031185668567 -0.56659084408441
 6  2.17848309850985 -0.45752301020102 -0.91112058665867
 6  3.54659529962996  2.80909071127113  0.09474746504650
 6  1.63824522962296 -3.29428112941294 -2.09255660126013
 6 -5.32844175087509 -2.73761937683768  1.44801206550655
 6 -3.57074093339334 -1.84889986588659  0.22283821562156
 6  2.03284759685969  2.98133812801280  0.08080570397040
 6 -4.92995569186919 -1.57975693959396  0.52677672157216
 6  5.14199946184618  0.82729764666467 -0.24918387708771
 6 -2.65343015871587 -0.93801235663566 -0.46463293709371
 6 -1.50916057815782 -3.80622037513751 -1.86466678347835
 6 -4.20487015541554 -3.70658489028903  1.31529665526553
 6  2.08160929462946 -4.50345936963696 -1.02295152195219
 6  5.27817662006201 -0.09494761826183  0.94370691789179
 6  4.61366742804280  3.83130597989799  0.45002720302030
 6  1.18752743114311  4.14388893919392  0.38124984558456
 6 -6.66441109170917 -3.36084086388639  1.12129119121912
 6 -5.79906948754875 -0.53164894889489  0.11754892179218
 6 -0.14164208350835  4.02383063286329  0.30368218011801
 6 -1.12997809640964  5.18355588928893  0.46822528802880
 6 -2.36814628832883  4.69900140154015  0.33001890789079
 6  3.04008059005901 -4.02965563576358 -0.10160247104710
 6 -5.43629733923392  0.56893218181818 -0.86827829262926
 6  6.65967584658466 -0.81796726632663  0.92163306150615
 6 -3.74302184508451  5.27401846034603  0.29102361306131
 6 -2.14898445004500  3.24784974597460 -0.02221799159916
 6 -0.65346593769377  6.59212488248825  0.73900295189519
 6 -4.33344290689069  5.30084604130413 -1.17849694119412
 1 -0.47165875077508  0.35212207800780 -0.19534927462746
 1  3.17238459945995 -1.12280042124212 -1.31988207560756
 1  2.65202508380838 -2.84671626822682 -2.49833638073807
 1  1.22996400260026 -3.76448055895590 -2.96481484158416
 1 -5.36902863016302 -2.49120774547455  2.48316885678568
 1  5.08943145564556  0.13890327172717 -1.20816116341634
 1  5.87298586598660  1.63821334943494 -0.40042361696170
 1 -2.77900411811181  0.10102789308931 -0.47702810031003
 1  0.38971620222022  1.77835767966797 -0.33033047854786
 1 -1.55681041684168 -4.46547111761176 -1.00342985278528
 1 -2.66610672167217 -3.46627721412141 -2.11620975407541
 1 -1.01783696359636 -4.30089715851585 -2.77251284058406
 1 -2.37272965926593 -3.58640837153715  0.71212387758776
 1  1.12087291659166 -4.83714641294129 -0.47797318721872
 1  2.61904800920092 -5.22098620552055 -1.36967234913491
 1  4.61925715871587 -0.76281744514451  1.14401413751375
 1  5.27674201960196  0.71957799649965  1.82841064416442
 1  3.95282580818082  4.97943836023602  0.33564219241924
 1  5.53367645934594  3.63819135233523 -0.20991520192019
 1  4.80400743334333  3.46410188228823  1.86444216111611
 1  1.67292807140714  5.14497367476748  0.76751782698270
 1 -7.60500206850685 -2.71202628612861  1.31125239483948
 1 -6.70070413431343 -4.18600498259826  1.86453229362936
 1 -6.75263096009601 -3.58174559065907  0.02160424882488
 1 -6.76368089038904 -0.70128103660366  0.31994999609961
 1 -4.87099607170717  1.39992481338134 -0.41972923422342
 1 -6.29642802020202  0.95954502950295 -1.14841915801580
 1 -4.63277258925893  0.22900306250625 -1.62462922772277
 1 -3.49704168966897  6.12347675277528  0.54748162466247
 1 -4.49597103530353  4.87461979387939  1.06685271157116
 1  0.14640549604961  6.54394495989599  1.68578842044204
 1 -1.45399150945095  7.15570902560256  0.95820517221722
 1  0.12221138913891  6.97156944264426 -0.03836287918792
 1 -3.88677658465847  6.00719834553455 -1.93244744724472
 1 -5.47723043024302  5.62202531863186 -1.14165404260426
 1 -4.39376285318532  4.34793496379638 -1.59203871187119
 1  3.93555195569557 -4.75813202570257  1.49983076547655
 1  7.70638866346635 -1.75752514151415  1.71643902690269

