%nproc=4
%Mem=2GB
# td=(NStates=1) B3LYP/SVP 

TD

0 1
 8 -4.36813832463246 -4.97964233543354  1.66436046444644
 8  3.00865489418942 -4.77932923972397  1.13922806010601
 8  7.03831013531353 -1.52746001570157  1.70682336183618
 8  3.91390644814481 -3.14950297529753 -0.16316965636564
 8  7.63216275287529 -0.44589448454845 -0.13324935763576
 8 -3.01267685378538  2.37548559935994 -0.44474603600360
 7 -0.29220621532153 -0.51351554465447 -0.56785379827983
 7  1.54605309800980  1.80279071157116 -0.25448702630263
 7 -3.35309729872987 -3.22271338433843  0.61127744634463
 7 -0.72522101780178  2.90880202960296 -0.13923776957696
 6  0.67007927222722 -2.43221117951795 -1.24273656875688
 6  0.95368827112711 -1.02607983968397 -0.88473732263226
 6 -0.70299442814281 -2.57959632183218 -1.09058112081208
 6 -1.26986740874087 -1.42397270867087 -0.63291242124212
 6  3.81291975277528  1.55711887838784 -0.21801606840684
 6  2.45518762456246  0.87438926442644 -0.46892107710771
 6  2.23675892609261 -0.53062031993199 -0.83166264086409
 6  3.60123076317632  2.88073787598760  0.09339733003300
 6  1.64724612971297 -3.41782348364837 -1.81321866746675
 6 -5.58173708040804 -2.77962357725773  1.40659792409241
 6 -3.66932079137914 -1.90292526842684  0.23071900370037
 6  2.14260857295730  2.99388938313831  0.13702132553255
 6 -5.01342403870387 -1.68361732563256  0.50642468636864
 6  5.07993325522552  0.78546346324632 -0.39848880758076
 6 -2.66127094279428 -1.04797335273527 -0.31209768356836
 6 -1.46975663776378 -3.74229398249825 -1.79201951875188
 6 -4.40762043044304 -3.89461369316932  1.21968709430943
 6  2.05963709740974 -4.51090011371137 -0.98618784558456
 6  5.43881268366837 -0.19312743624362  0.73846639383938
 6  4.55757181848185  3.94674752405241  0.44559675997600
 6  1.27833651205120  4.12666721702170  0.42222394299430
 6 -6.88304295489549 -3.43062784258426  1.02346140824082
 6 -5.80406998759876 -0.60272605660566  0.04407157405741
 6 -0.20538845814581  4.05337358715872  0.25265707760776
 6 -1.10605570417042  5.19016655035504  0.47157562306231
 6 -2.32106157985799  4.68998049944995  0.19230513651365
 6  3.09528611061106 -4.09586225642564  0.02205989518952
 6 -5.50303401290129  0.47270255885589 -0.91314277907791
 6  6.80789066806681 -0.67581305090509  0.74576547474747
 6 -3.62996053895390  5.29723078157816  0.22482699339934
 6 -2.14677422902290  3.29850481148115 -0.25457122692269
 6 -0.79598018911891  6.64149981998200  0.94409346094609
 6 -4.25944550715072  5.76863281998200 -1.08366745824582
 1 -0.49739132403240  0.32703956975698  0.10104036433643
 1  3.03419078007801 -1.24428256945695 -1.07638772617262
 1  2.38109799109911 -2.99875147174718 -2.39110565766577
 1  1.04308531473147 -3.82399651055105 -2.70240860096010
 1 -5.71023275057506 -2.63314193889389  2.38672921282128
 1  5.00366287878788  0.25059444084408 -1.30505085238524
 1  5.97083565096510  1.51711123922392 -0.66186976157616
 1 -2.83743996169617 -0.02942515221522 -0.33647404490449
 1  0.46667389798980  1.82944278817882 -0.38895634113411
 1 -1.58345308110811 -4.57199176967697 -1.20145965576558
 1 -2.74269438043804 -3.66737732413241 -1.97476560966097
 1 -0.84765994589459 -3.91905897469747 -2.70941653095309
 1 -2.31068345464546 -3.49117884858486  0.55181784698470
 1  1.45173600290029 -5.13318601690169 -0.40043543344334
 1  2.53401950635063 -5.29199330623062 -1.74478986088609
 1  4.62793802680268 -0.99409057245725  0.61587132323232
 1  5.27471181658166  0.34623066176618  1.79069687278728
 1  4.57856838243824  4.75345576197620 -0.17982935473547
 1  5.60342343404340  3.35245277847785  0.47105289488949
 1  4.36951398399840  4.03476894899490  1.58538425532553
 1  1.66432721132113  4.95802497989799  0.69997107230723
 1 -7.71240280858086 -2.56885196869687  1.28139940954095
 1 -7.07641170507051 -4.20303668576858  1.75005084548455
 1 -6.70409610661066 -3.69181659775978 -0.05472338393839
 1 -6.77734225652565 -0.61540244874487  0.57048504960496
 1 -5.03162213431343  1.40794561546155 -0.36384364566457
 1 -6.51719009640964  0.94126320132013 -1.30392470857086
 1 -4.89255856785678  0.14785494769477 -1.84279104390439
 1 -3.53964595009501  6.10390479557956  1.02202907940794
 1 -4.47127856605661  4.59805213711371  0.62927895419542
 1 -0.01754089858986  6.59748031343134  1.79635947754775
 1 -1.79793590389039  6.99889334403440  1.20337968966897
 1 -0.27703853585359  7.30670295599560  0.17634859195920
 1 -3.57231513851385  6.39969759545955 -1.66172037453745
 1 -5.38558126532653  6.38916203230323 -0.97272714991499
 1 -4.45186866376638  4.64993516381638 -1.49694920292029
 1  3.71205960646065 -4.55883209570957  1.89140992339234
 1  7.97957598219822 -1.89530891989199  1.55786316931693

