%nproc=4
%Mem=2GB
# td=(NStates=1) B3LYP/SVP 

TD

0 1
 8 -4.24152566336634 -4.86241061226123  1.89925395379538
 8  2.97444147284728 -4.90748205500550  0.87683182048205
 8  6.82780908520852 -1.82162943264326  1.86846952645265
 8  3.84755981348135 -3.07000502550255 -0.04703804320432
 8  7.66336587318732 -0.48886878197820  0.06354032133213
 8 -3.04053964006401  2.34339239003900 -0.30626218761876
 7 -0.21368836353635 -0.47026121922192 -0.52519953285329
 7  1.57165565826583  1.90661109360936 -0.33367494509451
 7 -3.24339632863286 -3.12728384138414  0.66564288288829
 7 -0.78631712741274  2.89963111251125 -0.04861870767077
 6  0.67985024932493 -2.35980393879388 -1.34166646174617
 6  1.07618052035203 -1.07077430913091 -0.92717156605661
 6 -0.71439556825683 -2.54497285948595 -1.21532359505951
 6 -1.32395281728173 -1.32434274567457 -0.68283741374137
 6  3.86022448324832  1.57148031453145 -0.27098136493649
 6  2.59891199699970  0.87613943944394 -0.42401658665867
 6  2.28279352955296 -0.50329758765877 -0.75262473707371
 6  3.51341198129813  2.91615141734173  0.07602559285929
 6  1.62937434253425 -3.24330603190319 -2.09398674427443
 6 -5.46349525622562 -2.81857747264726  1.37992525682568
 6 -3.68653251255125 -1.83304828072807  0.24206013781378
 6  2.17226153825383  3.03701369556956 -0.04814719131913
 6 -5.02080477677768 -1.59651861576158  0.57171121502150
 6  5.20354561646165  0.80865578247825 -0.27409636833683
 6 -2.65415023072307 -1.04884343974397 -0.26724319811981
 6 -1.32402206430643 -3.81776152925293 -1.71679199599960
 6 -4.22883255165517 -3.74626885868587  1.43368849444945
 6  2.03941507520752 -4.37530655435544 -1.26448567536754
 6  5.28885768816882 -0.27382550605061  0.84214676187619
 6  4.44875093639364  3.91286413571357  0.50643284358436
 6  1.29075775417542  4.14782933323332  0.14771649224923
 6 -6.77204185478548 -3.36897167696770  0.94808387048705
 6 -5.87780736133613 -0.68234401840184  0.15264243114311
 6 -0.16664458375838  4.10736898669867  0.10449226112611
 6 -1.14569966856686  5.10840837453745  0.38921738723872
 6 -2.38838831253125  4.55826732813281  0.27061296729673
 6  3.05819240124012 -4.01929459965997 -0.09327163796380
 6 -5.59846355585559  0.48636392499250 -0.84987645244524
 6  6.75126500550055 -0.87914338393839  0.86150704890489
 6 -3.71842938583858  5.28354941344134  0.28448295899590
 6 -2.16245579717972  3.10134509550955 -0.08034380418042
 6 -0.80383097419742  6.58429409940994  0.68177722932293
 6 -4.31314087668767  5.69291524822482 -1.06845593709371
 1 -0.39496108100810  0.49213607940794 -0.04625436513651
 1  3.12533989498950 -1.14005214641464 -0.63768385578558
 1  2.34969485078508 -2.60649224582458 -2.70767731483148
 1  0.96825783198320 -3.68059217011701 -2.70301866196620
 1 -5.46723845114511 -2.60173879857986  2.47088762866287
 1  5.34979749224923  0.46413579497950 -1.35347569486949
 1  5.84880344774477  1.54364389248925  0.29307573297330
 1 -2.84713093079308 -0.01196340604060 -0.49096949444945
 1  0.61456868746875  1.91062090599060 -0.55344278977898
 1 -1.43733846964696 -4.65099967046705 -1.11673118291829
 1 -2.61380149114911 -3.80922150855086 -1.71491962506251
 1 -1.01315649554955 -3.96398346714671 -2.83130872017202
 1 -2.36917930423042 -3.48810854155416  0.09528219341934
 1  1.17191802110211 -5.20533323162316 -1.01552694259426
 1  2.83993009740974 -4.86874098099810 -1.96132151405141
 1  4.46225145814581 -1.04080524392439  0.87534727082708
 1  5.20169451485148  0.25276131483148  1.93783158625863
 1  4.76404693029303  4.85335575197520 -0.26120749254926
 1  5.46852994469447  3.29880741394139  0.65305109470947
 1  4.03520055265527  4.52674814691469  1.33179889678968
 1  1.66750752935294  4.99870904830483  0.23486456165616
 1 -7.55140670897090 -2.79373445694569  0.98853012261226
 1 -6.88702276617662 -4.27763414551455  1.40409625002500
 1 -6.69358505550555 -3.63187060316032  0.05508759715972
 1 -7.08527304960496 -0.53797470597060  0.47881588268827
 1 -5.32497146924693  1.48561338223822 -0.17791505280528
 1 -6.57012538993899  0.54855393039304 -1.32432674877488
 1 -4.91836114811481  0.33900406260626 -1.62649941474147
 1 -3.61725371087109  6.11614601970197  1.03761063756376
 1 -4.47197863606361  4.50719305120512  0.56436246254625
 1  0.00444129962996  6.89868043344334  1.53311315291529
 1 -1.69795590589059  7.02173562826283  1.02140149184919
 1 -0.29010984298430  6.97739002470247 -0.30288933183318
 1 -3.66420432743274  6.32823044874487 -1.55943014551455
 1 -5.24260696789679  6.29875299139914 -0.84632450965097
 1 -4.43335681258126  4.80357052735274 -1.87388689668967
 1  3.63115151565157 -4.74412062456245  1.50751153355336
 1  7.75561358595859 -1.97534692369237  2.00703808680868

