%nproc=4
%Mem=2GB
# td=(NStates=1) B3LYP/SVP 

TD

0 1
 8 -4.27737924872487 -4.79803417461746  1.90516454485449
 8  3.14195822452245 -4.99571087788779  0.96307044434443
 8  7.13801010531053 -1.49484675437544  1.83948662816282
 8  3.77870292779278 -3.06068409340934 -0.04987832723272
 8  7.72727226382638 -0.23965386048605  0.02768673597360
 8 -3.08289387548755  2.43103115391539 -0.49970153155316
 7 -0.36340333503350 -0.51522571567157 -0.60311732463246
 7  1.53145163786379  1.82423285578558 -0.34016559415942
 7 -3.34682667166717 -3.07045815881588  0.71927824642464
 7 -0.74987348304830  2.92896404580458 -0.34349819561956
 6  0.63051531583158 -2.43015097349735 -1.38817111221122
 6  0.88098100040004 -1.02369960166017 -1.00862971187119
 6 -0.81078520722072 -2.67543590579058 -1.18373043574357
 6 -1.37689811181118 -1.44511482288229 -0.70264939493949
 6  3.75567402820282  1.48340150665067 -0.28470273707371
 6  2.47106921272127  0.84483630913091 -0.51580576557656
 6  2.15858110831083 -0.45121237913791 -0.90539001360136
 6  3.60105074517452  2.78277808000800  0.12392038233823
 6  1.51707311241124 -3.33186488778878 -2.01282862846285
 6 -5.62776168286829 -2.72165778067807  1.38576584088409
 6 -3.59376323562356 -1.88060303620362  0.18458439023902
 6  2.11221553365337  2.98509850405040  0.08011563496350
 6 -5.07476017231723 -1.55241420532053  0.49706375027503
 6  5.11848711061106  0.86122103900390 -0.30621958065807
 6 -2.57233204890489 -0.98132668806881 -0.37029350315032
 6 -1.44509417151715 -3.89834958805881 -1.66444676147615
 6 -4.40835050345035 -3.60228446024602  1.39451457705771
 6  2.08356949064906 -4.47121614531453 -1.10306953375338
 6  5.42207100950095 -0.12111023452345  0.83304585178518
 6  4.66995305660566  3.78105095439544  0.43519571987199
 6  1.29809848824882  4.14447899819982  0.33679540014001
 6 -6.86155080568057 -3.35256003580358  0.74763382548255
 6 -5.91973155375538 -0.52969875387539  0.03386055295530
 6 -0.12951087038704  4.00926917671767  0.15161697359736
 6 -1.06746184478448  5.05754328802880  0.60394886038604
 6 -2.34443391709171  4.54865636703670  0.37931383738374
 6  3.08148473047305 -4.02117478767877  0.07268495769577
 6 -5.41634534403440  0.63783907250725 -0.85148661346135
 6  6.86969684868487 -0.70298576817682  0.74560545874587
 6 -3.74027157005701  5.14163522202220  0.34144865556556
 6 -2.16222577417742  3.13558851985199 -0.14614038383838
 6 -0.71048163926393  6.47583325332533  1.02437148874888
 6 -4.27787735033503  5.35091104780478 -1.08021711321132
 1 -0.17694927982798  0.35500236603660 -0.03767350705070
 1  3.03594095509551 -1.23896203740374 -0.79603969136914
 1  2.45217509880988 -2.65855745234523 -2.34818136523652
 1  1.12081308750875 -3.81196530743074 -2.78913727382738
 1 -5.93166489378938 -2.36876550125013  2.46879741964196
 1  5.00062257475748  0.24252363376338 -1.23954430173017
 1  5.93980254765477  1.61168069616962 -0.41950552515252
 1 -2.77636385408541  0.10809860016002 -0.41557195469547
 1  0.51161839243924  1.86983682758276 -0.41915936143614
 1 -1.29395413121312 -4.75904047454746 -0.91417092689269
 1 -2.57580769176918 -3.88029861626163 -1.64762289538954
 1 -1.24776995689569 -4.34854192299230 -2.66530211951195
 1 -2.47236962326233 -3.45962569326933  0.71667433263326
 1  1.40077090639064 -5.38414111241124 -0.51635702560256
 1  2.79800590499050 -5.06757086398640 -1.83199858175818
 1  4.86629186218622 -1.04957612101210  0.83800353645365
 1  5.22979732513251  0.20738677737774  1.77966576967697
 1  4.72821334693469  4.67275769216922 -0.37784915671567
 1  5.73994708640864  3.42148968216822  0.49107489708971
 1  4.39502653525352  4.50083555565557  1.50296601350135
 1  1.82169294789479  4.90410958835884  0.77043811901190
 1 -7.69120068836884 -2.75201028452845  0.81066233583358
 1 -7.05344940884088 -4.23366974907491  1.39674551495149
 1 -6.74501019801980 -3.74171158725873 -0.36658457005701
 1 -6.93547807010701 -0.64666557505751  0.35582358345835
 1 -5.10131910401040  1.36917173807381 -0.15132239353935
 1 -6.40075845324533  1.09206828182818 -1.31073538963896
 1 -4.72775208720872  0.26763692589259 -1.49582634743474
 1 -3.61536352185219  6.18489289438944  0.93298017451745
 1 -4.49280071827183  4.67274960686069  0.80966699299930
 1  0.39039989548955  6.25590615601560  1.79592943454345
 1 -1.68339444974497  6.92868632333233  1.31408075977598
 1 -0.51366219821982  7.04290657635764 -0.03327237013701
 1 -3.87295520252025  6.13928155385539 -1.63690789328933
 1 -5.44983769096910  5.33955707180718 -1.11741161836184
 1 -4.10377385428543  4.37131730203020 -1.69203871187119
 1  3.67219562006201 -4.90595680818082  1.75806658905891
 1  8.19491751635164 -1.71684107310731  1.74502188518852

