%nproc=4
%Mem=2GB
# td=(NStates=1) B3LYP/SVP 

TD

0 1
 8 -4.33182469326933 -4.73462783398340  1.88054208260826
 8  3.28544257295730 -4.96902820962096  1.04688882618262
 8  7.07197350165016 -1.54959222892289  1.74171685118512
 8  3.76155121262126 -3.14473249824982 -0.20782412181218
 8  7.72966250285029 -0.15510540564056  0.10911487878788
 8 -3.07621320742074  2.36552460326033 -0.44241580298030
 7 -0.23692068676868 -0.60493468656866 -0.43714072697270
 7  1.52985147784778  1.78344877737774 -0.39762133973397
 7 -3.24212620162016 -3.00159127212721  0.67351366996700
 7 -0.82621111681168  2.81884303370337 -0.11496534233423
 6  0.57577984228423 -2.42605056345635 -1.44642693779378
 6  1.00015291759176 -1.07682491419142 -0.94934378327833
 6 -0.78085221392139 -2.65442380458046 -1.38000006270627
 6 -1.28416883888389 -1.44555486688669 -0.77946707670767
 6  3.72724118491849  1.50688385488549 -0.33525779257926
 6  2.42560466626663  0.74674650015001 -0.62046623162316
 6  2.21025627582758 -0.55791304920492 -0.85482495709571
 6  3.50717135723572  2.73512331453145  0.13742173247325
 6  1.61650305540554 -3.33150485178518 -1.97775512111211
 6 -5.57960686738674 -2.67121273617362  1.46650391469147
 6 -3.58518237753775 -1.78046302220222  0.22500843264326
 6  1.99176348844884  2.94811480568057  0.04439206260626
 6 -5.02732542884288 -1.52565152905291  0.53404744864486
 6  5.12127738963896  0.89989490639064 -0.31599055775578
 6 -2.64948976467647 -0.99215777117712 -0.35464193799380
 6 -1.50504016611661 -3.75646539963996 -1.78811912871287
 6 -4.31041070947095 -3.63914814661466  1.39511463706371
 6  2.11674280798080 -4.51996101980198 -1.05210443724372
 6  5.31445024742474 -0.18159628312831  0.91535408260826
 6  4.47748380968097  3.79047189648965  0.57121932223222
 6  1.23149182758276  3.97642219251925  0.41318303890389
 6 -6.84127877847785 -3.32349712951295  0.97307636973697
 6 -5.84529411001100 -0.49423520752075  0.03928109500950
 6 -0.21055897519752  3.93286153595360  0.23230504240424
 6 -1.15617071567157  5.07565509920992  0.44743320882088
 6 -2.39287876157616  4.60552205360536  0.22276818281828
 6  3.15220180218022 -4.12317498769877 -0.05427773857386
 6 -5.44456816631663  0.56848213681368 -0.82817428222822
 6  6.82207208620862 -0.60382585218522  0.84849574777478
 6 -3.66530407330733  5.37058811731173  0.31377588828883
 6 -2.21543109470947  3.13125808680868 -0.10943671347135
 6 -0.76272686378638  6.47634330433043  0.93447249884989
 6 -4.08588815141514  5.49307526422642 -1.11840093159316
 1 -0.32487407230723  0.38380524632463 -0.08587832753275
 1  3.05520288128813 -1.16725486668667 -1.21552163956396
 1  2.47376725802580 -2.79321091769177 -2.43801034813481
 1  0.99528053425342 -3.87658176907691 -2.87308566866687
 1 -5.50006173347335 -2.46939556425643  2.56802734263426
 1  5.38740125262526  0.29316869826983 -1.12832317961796
 1  5.91159972737274  1.76196572467247 -0.16147972257226
 1 -3.02305852355236  0.04575236553655 -0.61547194469447
 1  0.41221845244524  1.79823966786679 -0.84890233573357
 1 -1.41794653045304 -4.47651222172217 -0.96718622842284
 1 -2.59276938793879 -3.56755734213421 -2.16079421252125
 1 -1.10697587748775 -4.27970503930393 -2.70425601490149
 1 -2.32767515381538 -3.27848757945795  0.67567023222322
 1  1.18623945324533 -4.90042274057406 -0.44564995489549
 1  2.46752285668567 -5.28352245914591 -1.75602098399840
 1  4.73225845884588 -1.04788595199520  0.70876061216122
 1  5.01667601300130  0.28155419411941  1.67146494959496
 1  4.44217474307431  4.66334675107511 -0.23211458325833
 1  5.53721681338134  3.16853438663866  1.03355914551455
 1  4.13562059465947  4.25913138523852  1.50474619151915
 1  1.62582336093609  4.85843502090209  0.89272034723472
 1 -7.63548511681168 -2.69651473497350  1.30676194579458
 1 -6.86701076497650 -4.25998238033803  1.52272811321132
 1 -6.77446314331433 -3.45773318941894 -0.18373628522852
 1 -6.93509803210321 -0.65345625412541  0.39749775087509
 1 -4.57031600370037  1.33165798669867 -0.29510677197720
 1 -6.30728910631063  1.17670674567457 -1.23188750485048
 1 -5.04463377537754  0.09695985818582 -1.81106787158716
 1 -3.68749073457346  6.37129153425343  0.87854473097310
 1 -4.33591502970297  4.69930226212621  0.83473950025003
 1 -0.39247839233923  6.40368093349335  1.95511535313531
 1 -1.49318542884288  7.15732918761876  0.75074442614261
 1  0.15547471547155  6.77193947964797  0.31209216631663
 1 -3.34958286528653  5.99091671737174 -1.72963716621662
 1 -4.93626633383338  6.17702081818182 -1.12207208440844
 1 -4.42598607550755  4.45091526182618 -1.79982949094909
 1  4.01769016951695 -4.50498671117112  1.45897668006801
 1  8.06435446004600 -1.82936232523252  1.64461184418442

