%nproc=4
%Mem=2GB
# td=(NStates=1) B3LYP/SVP 

TD

0 1
 8 -4.24993650445044 -4.80179455065507  1.94837886628663
 8  2.88847287598760 -4.87542884968497  1.06793093039304
 8  7.12334863916392 -1.45042231193119  2.01363404290429
 8  3.78166322382238 -3.09417744274427 -0.06138947834783
 8  7.63721325792579 -0.47271716681668  0.08329229652965
 8 -3.00608619471947  2.38282633343334 -0.42507406880688
 7 -0.27615461016102 -0.42735692879288 -0.78257527042704
 7  1.52817130983098  1.83479391189119 -0.39196077367737
 7 -3.26921891089109 -3.04590570357036  0.79870618921892
 7 -0.81186968266827  2.82781393079308 -0.05507935373537
 6  0.65344760906091 -2.39768772717272 -1.51416371147115
 6  0.91056395869587 -1.04657188888889 -1.04420326922692
 6 -0.76942107080708 -2.49281764396440 -1.50534259695970
 6 -1.31536195819582 -1.42212252365237 -0.82323145314531
 6  3.75075353615362  1.47541070757076 -0.27679194599460
 6  2.47405951175118  0.80785261076108 -0.57552173717372
 6  2.16129137933793 -0.43599085698570 -0.94449392399240
 6  3.54052469256926  2.77903770597060  0.04966295659566
 6  1.60807221232123 -3.39414111541154 -2.06906425202520
 6 -5.48871777847785 -2.71414702960296  1.32877014131413
 6 -3.54985884518452 -1.84796977287729  0.17153308510851
 6  2.08231254335434  3.01796179037904  0.01349897329733
 6 -4.99321201750175 -1.55400436433643  0.46994103800380
 6  5.05619088098810  0.70648556545655 -0.34977393609361
 6 -2.64317913361336 -1.06633518891889 -0.48458493229323
 6 -1.57071673377338 -3.77376712981298 -1.72430274707471
 6 -4.27380704910491 -3.74295852765277  1.44022914851485
 6  1.91621275497550 -4.49774879857986 -1.12094132093209
 6  5.45224402680268 -0.17588571207121  0.89662220942094
 6  4.49809587088709  3.81907475677568  0.51904410471047
 6  1.26922560096010  4.08460301060106  0.29733145374537
 6 -6.70968561916192 -3.59220400020002  0.92372143424342
 6 -5.71549112971297 -0.52671845584558  0.13340050695070
 6 -0.14413233253325  4.02159040884088  0.28559037093709
 6 -1.05886098469847  5.12782031573157  0.48009647514751
 6 -2.28038751245124  4.64000550195020  0.29245515151515
 6  3.00232681468147 -4.04137680788079  0.03129081828183
 6 -5.44984869436944  0.47357264586459 -0.89055051985199
 6  6.84693457245725 -0.60124559415942  0.95670656885689
 6 -3.63667121002100  5.26318737723772  0.47274178487849
 6 -2.08619817141714  3.14774973597360 -0.09811558135814
 6 -0.71606219731973  6.56724239423942  0.69078813041304
 6 -4.38501806440644  5.43324928162816 -0.86275536703670
 1 -0.49711129602960  0.53111997779778 -0.45224496419642
 1  2.92697005800580 -1.21212935413541 -1.25581566896690
 1  2.56845672697270 -3.03031462806281 -2.18181472857286
 1  1.03505451165117 -3.76903101400140 -2.87464582468247
 1 -5.75638736603660 -2.25391401610161  2.52313285318532
 1  5.18644115661566 -0.01974259285929 -1.19817016431643
 1  5.83772233963396  1.46864639273927 -0.43581715631563
 1 -2.76143236093609  0.09872766306631 -0.57407780528053
 1  0.43790102070207  1.88521836573657 -0.49087653315332
 1 -1.41765650145014 -4.61077564806481 -1.09008851865187
 1 -2.51742185318532 -3.47297788418842 -2.09922805590559
 1 -1.09151433133313 -4.17865493429343 -2.74718030733073
 1 -2.24232661896190 -3.36134586528653  0.80862352755275
 1  1.01483231253125 -4.95354805310531 -0.89529491939194
 1  2.52408851325133 -5.40407451435143 -1.68792417431743
 1  4.85091032403240 -1.18121928532853  0.81463119921992
 1  5.27992233763376  0.49703574227423  1.91192899599960
 1  4.21982250785079  4.72977339373937  0.01501012921292
 1  5.47028011971197  3.67785531873187  0.22739852945295
 1  4.48884591719172  3.96101157325733  1.75824154105411
 1  1.67294807340734  5.18826800420042  0.50778185338534
 1 -7.51632320062006 -2.91788687218722  1.04146541614161
 1 -6.88309237313731 -4.46294267636764  1.55798163856386
 1 -6.72694839183918 -3.90855827192719 -0.17776568816882
 1 -6.81460598289829 -0.53622453095310  0.59835783688369
 1 -5.02949192129213  1.41671649254926 -0.26524378567857
 1 -6.46901527892789  0.80839991499150 -1.21380569666967
 1 -4.78468778077808  0.23167332953295 -1.70807757255726
 1 -3.45298728422842  6.31460586568657  1.01906878337834
 1 -4.10380181838184  4.55341767366737  1.24486051235124
 1 -0.03070221472147  6.79350991639164  1.70362020362036
 1 -1.56685279557956  7.16332978767877  0.82112146384638
 1 -0.23788462046205  6.92403468916892 -0.30008905180518
 1 -3.67125503250325  6.01822944864486 -1.53882808530853
 1 -5.45032773997400  6.11135425152515 -0.82907278447845
 1 -4.58437191409141  4.57844801510151 -1.31050055805581
 1  3.66073447394739 -4.60870708320832  1.67174795719572
 1  8.22261028562856 -1.37473686268627  2.01370875387539

