%nproc=4
%Mem=2GB
# td=(NStates=1) B3LYP/SVP 

TD

0 1
 8 -4.22611412221222 -4.86722109330933  1.82108613701370
 8  2.85563959265927 -4.76784809160916  1.20957509480948
 8  6.90986729102910 -1.63611088078808  1.77427010651065
 8  3.64958001550155 -3.04746277127713  0.01572823342334
 8  7.70573010961096 -0.49454935003500  0.01618558585859
 8 -2.99358494459446  2.38666671747175 -0.34579614101410
 7 -0.24498149284928 -0.48943313641364 -0.58227524042404
 7  1.51699019171917  1.90655108760876 -0.34912649024902
 7 -3.18632062106211 -3.17621873487349  0.68512483108311
 7 -0.79560805650565  2.95820697009701  0.10269642384238
 6  0.70700296459646 -2.33662162056206 -1.45018731383138
 6  0.90759366166617 -1.05730296199620 -0.89647849674968
 6 -0.72833696239624 -2.53932229442944 -1.34113617631763
 6 -1.26569699169917 -1.41365167656766 -0.70978010801080
 6  3.74268272907291  1.52404557105711 -0.28856312311231
 6  2.48702080788079  0.83367519301930 -0.56498068306831
 6  2.20061531173117 -0.48869612751275 -0.86201567616762
 6  3.56111675177518  2.74978478067807  0.04291228152815
 6  1.58975038013801 -3.27678938023802 -2.00790813641364
 6 -5.44300320702070 -2.93555917081708  1.35626289058906
 6 -3.54818867816782 -1.88278325422542  0.19999593139314
 6  2.09226353845385  3.00762075627563  0.01490911431143
 6 -5.00493318961896 -1.76811577547755  0.46254029792979
 6  5.12147740964096  0.76153107000700 -0.39427838653865
 6 -2.65208002370237 -0.96773532893289 -0.42690916471647
 6 -1.44141380348035 -3.72142189528953 -1.78438875567557
 6 -4.23691335973597 -3.80394462626263  1.41826695229523
 6  1.97041817551755 -4.49720874457446 -1.05574480128013
 6  5.32751155355536 -0.17398552205221  0.76068861606161
 6  4.55519158045805  3.77926077537754  0.40030223052305
 6  1.29998867726773  4.11844639493949  0.46538825942594
 6 -6.73214786538654 -3.56804158395840  0.75272433453345
 6 -5.76237581818182 -0.65534131813181  0.12301946884688
 6 -0.11823974327433  4.04566281608161  0.30714252615262
 6 -1.09217431603160  5.18515604930493  0.47850631613161
 6 -2.38862833653365  4.72010351175118  0.16917282328233
 6  2.95936251825183 -4.04067673787379  0.07572526172617
 6 -5.42115582508251  0.54840012861286 -0.71929339413941
 6  6.77497737673767 -0.67668313791379  0.75734663286329
 6 -3.81451899479948  5.36280733923392  0.29691420212021
 6 -2.14814436603660  3.24421938293829 -0.05892166196620
 6 -0.62668325942594  6.57643331333133  0.73864291589159
 6 -4.25952551515152  5.56674263096310 -1.10366945844584
 1 -0.42216380128013  0.36724359015902 -0.10880061976198
 1  3.00268762976298 -1.16183432463246 -1.14880496789679
 1  2.44237411871187 -2.82738433503350 -2.23257980508051
 1  1.04122512871287 -3.82966707760776 -2.79396775687569
 1 -5.60082180948095 -2.59583820852085  2.44459499939994
 1  5.19534204670467  0.25248462986299 -1.50744109140914
 1  5.98134670207021  1.55358488658866 -0.46684025862586
 1 -3.06648286598660  0.08558634893489 -0.53461385888589
 1  0.41515874647465  1.85331517541754 -0.31571901740174
 1 -1.07084181998200 -4.65925049554956 -1.18976848664866
 1 -2.68276838783878 -3.57415800220022 -1.65961409450945
 1 -1.24199937983798 -4.09215628442844 -2.84985057435744
 1 -2.17564995129513 -3.49565929662966  0.72699536473647
 1  1.09471030033003 -5.15647834613461 -0.64260965086509
 1  2.67773387778778 -5.27443155005501 -1.79696507840784
 1  4.60041527452745 -1.06690785418542  0.88132786888689
 1  5.32900724612461  0.23725976467647  1.77254505760576
 1  4.50755128072807  4.70021043744374 -0.39097046884688
 1  5.64837792949295  3.34404193739374  0.47318310791079
 1  4.25715274787479  4.08221369346935  1.38550426732673
 1  1.81941271987199  5.02750192759276  0.73746482168217
 1 -7.53899546784678 -2.98767385088509  1.11022229182918
 1 -6.96772083598360 -4.60962734483448  1.10234607500750
 1 -6.68352404940494 -3.55191260736074 -0.26847475907591
 1 -6.71513603590359 -0.74042495099510  0.52712071317132
 1 -4.78789776187619  1.28608342924292  0.01003374207421
 1 -6.43226160356036  1.07305638063806 -0.79709402550255
 1 -4.54760407240724  0.26292645484548 -1.55011177597760
 1 -3.70513249874988  6.34245865096510  0.91601847834783
 1 -4.38707014521452  4.71151348324832  0.90467649394939
 1 -0.10619976447645  6.79868043344334  1.64440428202820
 1 -1.43726983728373  7.20142359705971  0.81491084278428
 1 -0.15205603760376  7.22591487718772 -0.07312635553555
 1 -3.54829273627363  6.24063168886889 -1.80642484498450
 1 -5.24668737593759  6.16147926402640 -1.23204308150815
 1 -4.54427790469047  4.69450962126213 -1.71121062906291
 1  3.45098349884988 -4.30918713121312  1.83355413781378
 1  7.83977200180018 -1.93225261426143  1.71621900490049

