%nproc=4
%Mem=2GB
# td=(NStates=1) B3LYP/SVP 

TD

0 1
 8 -4.21804331513151 -4.72434680588059  1.96399042744274
 8  3.04600862956296 -4.90544185098510  1.13176731403140
 8  7.12195850015001 -1.53029029872987  1.75060774027403
 8  3.80541559905991 -3.09056708170817 -0.05421876127613
 8  7.70847038363836 -0.24450434553455  0.04907887518752
 8 -3.05840142624262  2.25439349014902 -0.40730229162916
 7 -0.33211020572057 -0.44180837393739 -0.66027304020402
 7  1.59764825752575  1.84126455895590 -0.46766834443444
 7 -3.30427241624162 -2.95860697369737  0.63739005760576
 7 -0.76942543824382  2.87772892229223 -0.08590243604360
 6  0.60933319761976 -2.45572353075308 -1.29304159925993
 6  0.85070797309731 -1.03919115081508 -1.01072992189219
 6 -0.78593272197220 -2.60276863906391 -1.19022108480848
 6 -1.32340276227623 -1.37249756115612 -0.70808993899390
 6  3.76544500530053  1.46272943944394 -0.24713898069807
 6  2.50002210801080  0.83766559205921 -0.63897808280828
 6  2.17686293649365 -0.50127738563856 -1.07702717731773
 6  3.58324896499650  2.80603040524052  0.06516450675068
 6  1.57814922002200 -3.34493619491949 -1.96636398199820
 6 -5.48368727542754 -2.74836045094509  1.28194545884588
 6 -3.63486734603460 -1.71424640054005  0.05120105190519
 6  2.10629494159416  3.04381437563756  0.03277090049005
 6 -5.00687338363836 -1.58997796169617  0.39842388628863
 6  5.01581684358436  0.67033195009501 -0.35652461116112
 6 -2.62101691739174 -0.92271082648265 -0.44116058985899
 6 -1.46571623372337 -3.83439319241924 -1.58341865866587
 6 -4.35519518791879 -3.65849008080808  1.34795992159216
 6  2.08019915361536 -4.42807183088309 -1.06732595939594
 6  5.33116191859186 -0.17703582708271  0.73331587878788
 6  4.57875393669367  3.74399724902490  0.60270247054705
 6  1.26318499689969  4.09345389568957  0.35822754335434
 6 -6.83454810541054 -3.45135991579158  0.86928599069907
 6 -5.81564114471447 -0.54295007900790 -0.06143897699770
 6 -0.08633655295530  3.97713596339634  0.22197400930093
 6 -1.08150324892489  5.06552408610861  0.56509497499750
 6 -2.37238671237124  4.49236073747375  0.36383228922892
 6  3.04232081408141 -4.00743341354135  0.06382407160716
 6 -5.41680539003900  0.70793608220822 -0.70512197699770
 6  6.78297817681768 -0.63232870247025  0.82041293949395
 6 -3.66418396129613  5.11938299679968  0.41346585728573
 6 -2.14457400900090  3.11033599459946 -0.00441621142114
 6 -0.78341893299330  6.45509117911791  0.81956100770077
 6 -4.29632919551955  5.36480243694369 -1.09348844034403
 1 -0.50108169306931  0.50203706950695 -0.23111285098510
 1  3.10423778477848 -1.27399554075408 -1.19010909830983
 1  2.48516839813981 -2.66667826442644 -2.17601414851485
 1  1.22317332353235 -3.62168627952795 -2.99455781588159
 1 -5.77059878717872 -2.33274189888989  2.38428896879688
 1  5.14553706620662 -0.11912253085309 -1.13626397369737
 1  5.93558212561256  1.30848037613761 -0.25582915751575
 1 -2.95086130383038  0.11968975927593 -0.40370076757676
 1  0.53221045164516  1.76237608150815 -0.39590703620362
 1 -1.26150088588859 -4.80680525102510 -0.82820233003300
 1 -2.51864197519752 -3.74759534593459 -1.87781591469147
 1 -0.84652983288329 -4.24246131493149 -2.50685627492749
 1 -2.46929931623162 -3.43512324302430  0.67716038123812
 1  1.23951478077808 -4.95924862316232 -0.62009739963996
 1  2.74118022242224 -5.18284239113911 -1.59965534743474
 1  4.98075330833083 -1.14723588698870  0.73483321942194
 1  5.13206755215522  0.34390042874287  1.78357616071607
 1  4.39344987058706  4.96675709210921  0.48169679787979
 1  5.64891798349835  3.53121065426543  0.04381017061706
 1  4.61079811241124  3.71820729282928  1.81994771167117
 1  1.68120889948995  5.06098527592759  0.60422149734974
 1 -7.67079864816482 -2.65173025652565  0.89496076567657
 1 -6.91677574147415 -4.27582396449645  1.33943978437844
 1 -6.82543824082408 -4.07260467656766 -0.15786369796980
 1 -6.90400492279228 -0.60395130363036  0.09550755185519
 1 -4.90374934703470  1.36405122602260 -0.02438970027003
 1 -6.48061643904390  1.45973504850485 -1.11816613271327
 1 -4.79363867586759  0.52206236843684 -1.74358112291229
 1 -3.59898188368837  6.19763416851685  0.83607048354835
 1 -4.49264070227023  4.65057738963896  0.96520254655465
 1 -0.44385352985299  6.64225479087909  2.10649049064906
 1 -1.74440055035503  7.05454890959096  1.00460981268127
 1 -0.02225305730573  6.98504078977898  0.10147110421042
 1 -3.53555146214621  5.82767039273927 -1.72950715321532
 1 -5.34616732393239  5.97022013811381 -1.23404328152815
 1 -4.47044052095210  4.17440761106111 -1.60935044304430
 1  3.72216061656166 -4.43719993249325  1.74331511391139
 1  8.00645867046705 -1.65401479047905  1.74498188118812

