%nproc=4
%Mem=2GB
# td=(NStates=1) B3LYP/SVP 

TD

0 1
 8 -4.29017052785279 -4.78989336053605  1.97532156055606
 8  3.15140916961696 -5.10292159895990  1.00463460076008
 8  6.93543984828483 -1.46296356605661  1.97850052955296
 8  3.80426548404840 -3.15051307630763 -0.02913625302530
 8  7.54482401900190 -0.52133202830283  0.01124509180918
 8 -3.00838642474247  2.41414946574657 -0.41320288168817
 7 -0.27143413811381 -0.44558875197520 -0.49944695759576
 7  1.51513000570057  1.81479191169117 -0.42234381198120
 7 -3.35037702670267 -3.14360547354735  0.75034135273527
 7 -0.80498899459946  2.87261841124112 -0.18122196799680
 6  0.63508577287729 -2.35380333873387 -1.39340163526353
 6  0.91825472777278 -0.95646287798780 -0.88600744964496
 6 -0.76041016971697 -2.51417978017802 -1.25601766446645
 6 -1.32962338433843 -1.41098140954095 -0.75923505350535
 6  3.87573603440344  1.56322948944894 -0.29608387518752
 6  2.52881498729873  0.89835166066607 -0.61944612961296
 6  2.21540679087909 -0.46422368026803 -0.93860333493349
 6  3.55785642574257  2.86073587578758 -0.05973798349835
 6  1.64873627872787 -3.31674337563756 -2.00953829942994
 6 -5.65480438713871 -2.83153876877688  1.38901616591659
 6 -3.61788564786479 -1.85232020792079  0.22940887268727
 6  2.13941825392539  3.03458345254525 -0.06423880048005
 6 -5.05232792909291 -1.64982394629463  0.55124916881688
 6  5.02400766266627  0.73927884478448 -0.41798075677568
 6 -2.62532734843484 -1.02348090349035 -0.32413888768877
 6 -1.45868553065307 -3.80081983508351 -1.77197751455145
 6 -4.36584625302530 -3.77761199299930  1.38884401000100
 6  2.03591472517252 -4.40119914361436 -1.05734496129613
 6  5.30315911831183 -0.02196031953195  0.81378392559256
 6  4.57437349864986  3.87295014431443  0.41932413271327
 6  1.32307098549855  4.09326387668767  0.27649937053705
 6 -6.78866351695170 -3.55869064886489  0.73279234133413
 6 -5.86267584818482 -0.61146693069307  0.09910707760776
 6 -0.12636055535554  3.99675792559256  0.27634944684468
 6 -1.06915201380138  5.14135166886689  0.56021448694869
 6 -2.33569304300430  4.64502600400040  0.29106501250125
 6  3.12940952295230 -4.12469513971397 -0.03374568536854
 6 -5.50190389988999  0.53899918851885 -0.86096756155616
 6  6.71265114411441 -0.63294876447645  0.85373627182718
 6 -3.69763730663066  5.24388544704470  0.31266577727773
 6 -2.16008556015602  3.21782674367437 -0.14041981178118
 6 -0.66911750285029  6.53097876787679  1.06433548514851
 6 -4.13138270087009  5.48509446614661 -1.11587067856786
 1 -0.34326591149115  0.51846871267127 -0.17474721442144
 1  3.03886124712471 -1.17932607380738 -1.33025311271127
 1  2.67330721202120 -3.12141373797380 -2.44233078017802
 1  1.19356036223622 -3.86043015391539 -2.93127148724872
 1 -5.67669939723972 -2.50941956665667  2.53521406130613
 1  5.30344285678568  0.18299768116812 -1.42015236253625
 1  5.85306387378738  1.53189271737174 -0.58120169476948
 1 -2.93149936763676  0.22961075137514 -0.28808920642064
 1  0.37705493609361  2.08955879977998 -0.64677212271227
 1 -1.37598233403340 -4.67314188468847 -1.15265477527753
 1 -2.69733984498450 -3.59633021942194 -1.72429056215622
 1 -1.21309648954896 -4.06707377617762 -2.94379996929693
 1 -2.37301968826883 -3.48868859955996  1.03993665886589
 1  1.17226805610561 -4.93616631493149 -0.52459784968497
 1  2.64882098649865 -5.12179628652865 -1.53795917781778
 1  4.51530676367637 -0.87215837923792  1.02280201630163
 1  5.27306165156516  0.84771080978098  1.60757856095610
 1  4.72162268786879  4.81337175357536 -0.32549392119212
 1  5.53499659135914  3.43002053525353  0.45095088468847
 1  4.46167319991999  4.22490796289629  1.42513823072307
 1  1.69031981058106  5.02860203760376  0.63445452065207
 1 -7.61190275857586 -2.86238132163216  0.52257352695270
 1 -7.04103816771677 -4.34305068716872  1.38682452285229
 1 -6.53506920392039 -3.88102551865187 -0.37832574417442
 1 -6.92261678397840 -0.75766667516752  0.26230423152315
 1 -5.18278725082508  1.27410223112311 -0.11503876517652
 1 -6.45801417881788  0.71285036003600 -1.49797411351135
 1 -4.57375668766877 -0.06671650945094 -1.34264102890289
 1 -3.76845883138314  6.07072147724772  1.13072994949495
 1 -4.39635107330733  4.44838717061706  0.77627365366537
 1 -0.36436558105811  6.44698526392639  2.27577741934194
 1 -1.45082119241924  7.38776223092309  1.08455780748075
 1  0.49313848184818  7.02464475017502  0.69169012611261
 1 -3.25167307430743  6.06939456515652 -1.75316951945195
 1 -5.03625633283328  6.29363247934794 -1.03867374457446
 1 -4.37348082498250  4.57382755305531 -1.60652016001600
 1  4.01855025552555 -4.71164737723772  1.55847663006301
 1  7.81131915651565 -1.82945233423342  1.85826320932093

