%nproc=4
%Mem=2GB
# td=(NStates=1) B3LYP/SVP 

TD

0 1
 8 -4.21268277907791 -4.87028139933993  1.84894892329233
 8  2.92503653235324 -4.82613392019202  1.17367150445045
 8  6.98276458075808 -1.42922019171917  1.97657033653365
 8  3.91739679717972 -3.23142116711671 -0.02766610601060
 8  7.51201073767377 -0.74111400650065 -0.05238127082708
 8 -2.95201078717872  2.36986503730373 -0.27026858825883
 7 -0.22090908560856 -0.50873506660666 -0.65632264516452
 7  1.52515100780078  1.87599803230323 -0.33592517011701
 7 -3.27538952795280 -3.22222333533353  0.69229554815482
 7 -0.78839733543354  2.87001815121512 -0.08610245604560
 6  0.67222948724872 -2.26739469786979 -1.52097439253925
 6  0.93308621092109 -1.02664989668967 -1.08297714661466
 6 -0.71811594029403 -2.50583894609461 -1.31912397509751
 6 -1.26964738673867 -1.35206551795180 -0.72586171617162
 6  3.83258171897190  1.48451161766177 -0.24602886968697
 6  2.45113721952195  0.88057988348835 -0.51345553055306
 6  2.24432968316832 -0.37839509740974 -1.05596507110711
 6  3.49388002810281  2.76749655185519  0.02376036633663
 6  1.75899730483048 -3.28634033533353 -2.01985933153315
 6 -5.45249415611561 -2.87871348624862  1.34327159145915
 6 -3.46349020832083 -1.85857083298330  0.24054998679868
 6  2.08050236233623  2.98584857905791  0.04426204960496
 6 -4.99849254555456 -1.66081504540454  0.58075211911191
 6  5.13584884678468  0.72037695459546 -0.32251120982098
 6 -2.58534335003500 -0.98071662706271 -0.31125759955996
 6 -1.43853351545155 -3.78409816291629 -1.83096341314131
 6 -4.35618528692869 -3.83244747654765  1.26435156075608
 6  2.04216535023502 -4.46798582228223 -1.04150337713771
 6  5.34524332673267 -0.17030515401540  0.88831137833783
 6  4.51652771407141  3.94436728602860  0.34490669096910
 6  1.26607528592859  4.05460001030103  0.32555427602760
 6 -6.84683933453345 -3.34582936273627  0.93365242734273
 6 -5.72493207380738 -0.63925970997100  0.10429759665967
 6 -0.20406832613261  3.99459770957096  0.23113492539254
 6 -1.11009610821082  5.15640317401740  0.55616408190819
 6 -2.36976645034503  4.69664116551655  0.25511141714171
 6  2.97970455245525 -4.03570624082408 -0.00144245504550
 6 -5.53569727922792  0.58778406700670 -0.74142560736074
 6  6.65483536253625 -0.76902237183718  0.80589148734873
 6 -3.71790933383338  5.29129018751875  0.28000251095110
 6 -2.13423297489749  3.19979494049405 -0.11616738653865
 6 -0.77932852395240  6.55794146414642  0.88279733133313
 6 -4.34890445304530  5.58276423312331 -1.12506159765977
 1 -0.20883246814681  0.40149701550155 -0.24580432013201
 1  3.04911227222722 -1.28179632083208 -0.96636672407241
 1  2.54548442974297 -2.73985558215822 -2.48778532563256
 1  1.60525153135314 -3.86012012291229 -3.00621898199820
 1 -5.21202292959296 -2.21329995469547  2.45078561846185
 1  4.92383489598960  0.28354773617362 -1.47591793909391
 1  5.88124669206921  1.45824535263526 -0.39496307090709
 1 -2.76926314401440  0.33401119141914 -0.25685608310831
 1  0.42860009060906  1.86835667956796 -0.37290473597360
 1 -1.28629336513651 -4.52702727322732 -0.99007851765177
 1 -2.59018912991299 -3.67232781918192 -1.92990112321232
 1 -1.16893207310731 -3.96036310511051 -2.77610319961996
 1 -2.30232261856186 -3.44564429512951  0.71631429662966
 1  0.85907673697370 -4.95299799809981 -0.67411280118012
 1  2.54677078147815 -5.44600870777078 -1.46804218611861
 1  4.69348458145815 -1.05743690709071  0.62266200230023
 1  5.16612095749575  0.24652069076908  1.87876567966797
 1  3.96591711731173  5.05309572597260 -0.04596596839684
 1  5.54196728842884  3.78499603280328 -0.27115132553255
 1  4.53923095569557  3.88145361746175  1.57860357725773
 1  1.58547932653265  5.13314249164916  0.63151422662266
 1 -7.58132970127013 -2.71880696419642  1.19587085668567
 1 -7.03837790169017 -4.19001538363836  1.50741658205821
 1 -6.86085178217822 -3.72549996609661 -0.15225313691369
 1 -6.68950347264726 -0.58753966246625  0.45674367546755
 1 -4.99485845794579  1.31722654355436 -0.22431969326933
 1 -6.45656403380338  0.85428450345035 -1.17474179027903
 1 -4.73361267326733  0.53300346254625 -1.56163292809281
 1 -3.70475246074607  6.24000840594059  0.77008388488849
 1 -4.29653109130913  4.54698703060306  0.84811083738374
 1 -0.24472361686169  6.64463502890289  1.85220506210621
 1 -1.61140725102510  7.21558501320132  1.02466181788179
 1 -0.02598343034303  6.87206949264927  0.16105706280628
 1 -3.84595250225023  6.32444006970697 -1.76802100460046
 1 -5.26347905510551  5.92919603570357 -0.85225510271027
 1 -4.30722419931993  4.64741491179118 -1.65537504550455
 1  3.55563396389639 -4.51002721522152  1.64885566796680
 1  7.97838586318632 -1.69429881888189  1.90847823082308

