%nproc=4
%Mem=2GB
# td=(NStates=1) B3LYP/SVP 

TD

0 1
 8 -4.21386289708971 -4.82825719691969  2.11046507490749
 8  2.87569159785979 -4.90679198599860  1.03534767206721
 8  7.04615091939194 -1.40752802250225  1.91040371987199
 8  3.67961301880188 -3.16358438343834 -0.17638097749775
 8  7.65475501210121 -0.47730762586259  0.09173314061406
 8 -3.07372295839584  2.36179423022302 -0.33297485888589
 7 -0.28516551125113 -0.53993818691869 -0.63131014391439
 7  1.56257475017502  1.88319875237524 -0.28182976057606
 7 -3.23504549354936 -3.10986209920992  0.80662698129813
 7 -0.76822531823182  2.85093624302430 -0.10228407420742
 6  0.69221148544854 -2.34894285268527 -1.47450974607461
 6  0.91313421572157 -1.02715994769477 -1.09026787568757
 6 -0.73875800450045 -2.62348071027103 -1.33039510221022
 6 -1.28050847284728 -1.51779209060906 -0.72073120312031
 6  3.80935939673967  1.46251941844184 -0.24295856265627
 6  2.49850195599560  0.91279310481048 -0.54845903090309
 6  2.21608685888589 -0.38031528942894 -0.94642411701170
 6  3.46871751185119  2.80525032723272  0.18384637493749
 6  1.68281968706871 -3.30894259555956 -2.22769011461146
 6 -5.47110601730173 -2.79731534643464  1.50779804410441
 6 -3.56175003430343 -1.86775175107511  0.23659959175918
 6  2.03306761886189  2.98294828902890  0.08793641704170
 6 -4.92614531083108 -1.58477744164416  0.59936398029803
 6  5.22060732263226  0.89445436233623 -0.22738169686969
 6 -2.57360217591759 -1.01854040944094 -0.42508898269827
 6 -1.54532419451945 -3.75062481558156 -1.97509782658266
 6 -4.28887855625563 -3.67957218901890  1.51248637423742
 6  1.92563369706971 -4.49880890459046 -1.20291951875187
 6  5.33433223562356 -0.18387651115112  0.90869341654165
 6  4.57293335463546  3.83537638693869  0.62467466776678
 6  1.24996367476748  4.06189073937394  0.39249096969697
 6 -6.71620627122712 -3.42693747354735  0.82078114021402
 6 -5.78040762136214 -0.59268505250525  0.21003817071707
 6 -0.16980489978998  4.02036028582858  0.25853766566657
 6 -1.10181528012801  5.15252278597860  0.32613107860786
 6 -2.31731120482048  4.56640814221422  0.20899680568057
 6  2.95135171717172 -4.12251492169217 -0.11524383518352
 6 -5.45299900940094  0.48235352395240 -0.83204466926693
 6  6.74974485348535 -0.69514498409841  0.84218511671167
 6 -3.78484602750275  5.28082914141414  0.26507101780178
 6 -2.15941549314931  3.08762372337234 -0.07798356815682
 6 -0.65655624672467  6.58643431343134  0.79607865946595
 6 -4.22378194079408  5.56046200290029 -1.18339743124312
 1 -0.09636122102210  0.55027189298930 -0.35415515521552
 1  3.07411477247725 -1.06097423862386 -1.15619570697070
 1  2.54704458575858 -2.75687728432843 -2.52498904600460
 1  1.18205921212121 -3.58355246614661 -3.00768912901290
 1 -5.52416414371437 -2.56256488118812  2.55058559845985
 1  5.17141965446545  0.33955333673367 -1.24354470177018
 1  5.90780934833483  1.76744627272727 -0.11439501410141
 1 -2.69050526822682  0.03962175247525 -0.52520291779178
 1  0.58796602720272  1.92455229912991 -0.67235468096810
 1 -1.42460719651965 -4.77832240274027 -1.46061557135714
 1 -2.68088819981998 -3.56138672507251 -1.79120725382538
 1 -1.33743892379238 -4.14055112391239 -3.06386197549755
 1 -2.36136852315232 -3.68018774947495  0.51961462666267
 1  0.86275710501050 -4.79197189548955 -0.71814720462046
 1  2.39220532493249 -5.39865397229723 -1.67901328322832
 1  4.42556778977898 -1.06009717311731  0.55196493259326
 1  5.04586893229323  0.21535757445745  1.94291209430943
 1  4.81133165876588  4.73013342974297 -0.08966033783378
 1  5.50200329202920  3.43312084528453  0.60580637023702
 1  4.40312734533453  4.25386085818582  1.72087780468047
 1  1.62387316591659  5.12878205560556  0.65980705590559
 1 -7.64942651095110 -2.67304238773877  0.58018928852885
 1 -7.01056512041204 -4.12180856295629  1.66171201160116
 1 -6.25512120912091 -3.69245666176618 -0.25033294489449
 1 -6.82570709300930 -0.57264817331733  0.83982198329833
 1 -5.01023999609961  1.32160698159816 -0.25692295359536
 1 -6.33773215061506  0.89985906090609 -1.56717103320332
 1 -4.86126543854385 -0.02775261306131 -1.55308207300730
 1 -3.67051903740374  6.32664706980698  0.77468434493449
 1 -4.49435087328733  4.66115844774477  0.73766979327933
 1 -0.27447659215922  6.48829939533953  1.94963480508051
 1 -1.54171028132813  7.21794524922492  0.68816816851685
 1  0.19357852585259  6.94868715441544 -0.00148919181918
 1 -3.61922982998300  6.45613323902390 -1.64127833033303
 1 -5.28048075527553  5.81383449954996 -1.09834971217122
 1 -4.11519499639964  4.73579374967497 -1.96008551655166
 1  3.67179558005801 -4.69020523302330  1.67714849724973
 1  7.92309033363336 -1.58000738973897  1.96907429042904

