%nproc=4
%Mem=2GB
# td=(NStates=1) B3LYP/SVP 

TD

0 1
 8 -4.33270478127813 -5.06509088028803  1.72217624602460
 8  2.84573860256026 -4.74179548634863  1.25267940524052
 8  6.84954125842584 -1.76722399209921  1.66669934943494
 8  3.74910996849685 -3.08707673267327  0.06862352295230
 8  7.73168270487049 -0.46204609970997 -0.06625265796580
 8 -3.02224781088109  2.42493054385439 -0.50941250265027
 7 -0.34348134283428 -0.50780497359736 -0.51860887378738
 7  1.58857735043504  1.93229366186619 -0.32963454105411
 7 -3.33619560856086 -3.14806591959196  0.70956727532753
 7 -0.73334182988299  2.96072722212221 -0.13056690249025
 6  0.60105236953695 -2.42196015441544 -1.40336263136314
 6  0.92545544784478 -1.07863509520952 -1.00432928182818
 6 -0.76763089178918 -2.61265962816282 -1.11825388808881
 6 -1.33384380638064 -1.40218052945295 -0.60917004700470
 6  3.76558501930193  1.59343250975098 -0.29040330713071
 6  2.55670777657766  0.95688751425143 -0.60186437143714
 6  2.21663691389139 -0.37392465036504 -0.98979845444544
 6  3.61193183328333  2.89194899709971  0.05159314961496
 6  1.62165357045705 -3.40208190949095 -1.95237258285829
 6 -5.55653456015602 -2.85383099799980  1.25301256555656
 6 -3.56306016531653 -1.80202517841784  0.27622355415542
 6  2.11318563066307  3.07233722792279  0.10356798019802
 6 -4.99866256255626 -1.68646761066107  0.48397244114411
 6  5.15377063896390  0.93778869576958 -0.34034299299930
 6 -2.68812362806281 -1.03474202960296 -0.27602407620762
 6 -1.45197485958596 -3.76693644674467 -1.67235755255526
 6 -4.36341601000100 -3.90514474627463  1.26452157775778
 6  2.04595572927293 -4.54306333003300 -0.93610283708371
 6  5.42403120552055 -0.18550667416742  0.68107065426543
 6  4.56625268656866  3.86824967426743  0.41653385368537
 6  1.31683036143614  4.19087363766377  0.31262298289829
 6 -6.79887453805380 -3.49911469126913  0.66268533063306
 6 -5.71250083068307 -0.57694347834783  0.06284345124512
 6 -0.06194411371137  4.11089933973397  0.28015982788279
 6 -1.09897499609961  5.19300683438344  0.46468493399340
 6 -2.27991746544654  4.64794629602960  0.22986889288929
 6  2.93532011401140 -3.95749842004200  0.16663435263526
 6 -5.40288399789979  0.58606389498950 -0.75109657445745
 6  6.82262214121412 -0.76451192079208  0.66632753095310
 6 -3.66255379827983  5.28567962646265  0.44286879757976
 6 -2.08470802240224  3.31813677467747 -0.20328609840984
 6 -0.65042563366337  6.57742341234123  0.83122217381738
 6 -4.42200176277628  5.14820077677768 -0.90624971647165
 1 -0.20897248214821  0.41667853365337 -0.03996373607361
 1  3.10473783478348 -1.15373351455146 -1.07705779317932
 1  2.56245612691269 -2.79382097869787 -2.14800134723472
 1  1.30553155935594 -3.88673278417842 -2.74755311541154
 1 -5.78633036033603 -2.58214683938394  2.23763430333033
 1  5.33512602510251  0.47614699609961 -1.44618496579658
 1  5.94519308670867  1.76653618171817 -0.10301387598760
 1 -2.93516973467347  0.13469125942594 -0.63755415291529
 1  0.50161739233923  1.90164000790079 -0.34575202070207
 1 -1.31102583838384 -4.47010158065807 -0.97404691449145
 1 -2.47292740374037 -3.41706229262926 -1.80308844194419
 1 -1.14067924782478 -4.13454052285229 -2.56691228052805
 1 -2.33230561686169 -3.57526725742574  0.76952961816182
 1  1.25368619791979 -5.17539023732373 -0.55091048094809
 1  2.61984808920892 -5.41971607850785 -1.48659404130413
 1  4.57227246024602 -0.85495665906591  0.73010274637464
 1  5.27875222062206  0.37102314101410  1.66168397149715
 1  4.32314283988399  4.84027444384438  0.03581220942094
 1  5.62187527922792  3.63425095829583 -0.03444765516552
 1  4.81428846144614  3.92813828592859  1.56632234913491
 1  1.84661544014401  5.08390756815682  0.63395447064706
 1 -7.71771333963396 -2.96769185268527  0.77244851445145
 1 -7.02478654255425 -4.37140352245224  1.21974781518152
 1 -6.71021671867187 -3.74009142524252 -0.30645855745575
 1 -6.77822234453445 -0.62968387688769  0.42856085718572
 1 -5.03134210631063  1.37874269516952 -0.09126638793879
 1 -6.41306968436844  0.90197927292729 -1.38973328942894
 1 -4.69983929592959  0.66689685188519 -1.57691445624562
 1 -3.57576956245625  6.24975938103810  0.79310618711871
 1 -4.14386582478248  4.35120745264526  1.00687671397140
 1  0.14764562006201  6.61385195059506  1.68827866946695
 1 -1.67350346064607  7.18131158585859  1.15703505520552
 1 -0.02302313431343  7.09582186788679 -0.03109215211521
 1 -3.91951985898590  5.72416004170417 -1.78680288278828
 1 -5.47211991919192  5.72240535663566 -0.73470334753475
 1 -4.39553303020302  4.18943911421142 -1.12880238823882
 1  3.24452285278528 -4.19408562106211  1.94306508890889
 1  7.91399942454245 -1.75736512551255  1.67084446744674

