%nproc=4
%Mem=2GB
# td=(NStates=1) B3LYP/SVP 

TD

0 1
 8 -4.12884439523952 -5.03743811501150  1.74473850225022
 8  3.02275630433043 -4.92487379417942  0.93534767206721
 8  7.06872317661766 -1.46976424612461  2.01771445094509
 8  3.72272733023302 -3.13737176217622 -0.01076441584158
 8  7.73951348794879 -0.53633352845285  0.16179014631463
 8 -3.12086767286729  2.47323537433743 -0.48166972837284
 7 -0.36240323502350 -0.46954114721472 -0.62445945884588
 7  1.58009650235023  1.88073850635064 -0.40905248284828
 7 -3.31206319531953 -3.13313442644264  0.61382770137014
 7 -0.77957645334533  2.86942809220922  0.01846800100010
 6  0.60437270157016 -2.31803976237624 -1.52973526862686
 6  0.89430233253325 -1.05385261696170 -1.08175702460246
 6 -0.70694482318232 -2.52270063226323 -1.38657071977198
 6 -1.37827824982498 -1.34127443884388 -0.84492362236224
 6  3.79929839063906  1.50713387988799 -0.18072233903390
 6  2.51098320412041  0.87131895739574 -0.52253643864386
 6  2.20224547474748 -0.43032028992899 -0.95426490109011
 6  3.58505914601460  2.76918672087209  0.11505949624962
 6  1.60634203930393 -3.31675337663766 -2.07676502210221
 6 -5.42733163986399 -2.89285490039004  1.45853311761176
 6 -3.65778963826383 -1.90703567946795  0.13045897769777
 6  2.13641795389539  2.99282927712771  0.04643226662666
 6 -4.94434713101310 -1.76697566146615  0.65227927182718
 6  5.13370863276328  0.69976489338934 -0.34149310801080
 6 -2.70397521322132 -0.98774733013301 -0.31634810861086
 6 -1.51983164526453 -3.75427518061806 -1.86535685248525
 6 -4.23017268566857 -3.89626385818582  1.30858598419842
 6  1.95203633733373 -4.42850187388739 -1.14236346314631
 6  5.38026682908291 -0.23551167466747  0.83626617381738
 6  4.53734979627963  3.78932178147815  0.60109230953095
 6  1.27324600300030  4.08629317961796  0.29204092469247
 6 -6.79346399699970 -3.48483326312631  0.94651371347135
 6 -5.84868444904490 -0.59058484248425  0.45106227312731
 6 -0.16070398969897  4.05500375017502  0.25883769566957
 6 -1.09354445304530  5.17767530123012  0.52384084958496
 6 -2.27836731043104  4.62509401080108  0.18074398039804
 6  2.87327390939094 -4.00158282848285  0.00855854505451
 6 -5.57858156765677  0.70273556215622 -0.27683914871487
 6  6.87628750775078 -0.56557202680268  0.93677457565757
 6 -3.61470901380138  5.38148920742074  0.02881739243924
 6 -2.20964051565157  3.18634359535954 -0.10454622442244
 6 -0.73492408350835  6.64556022602260  0.76949600120012
 6 -4.25325488808881  5.50420637733773 -1.42562165366537
 1 -0.51542312721272  0.42787965376538 -0.23800354005401
 1  3.01661902290229 -1.02340048124812 -1.16240632803280
 1  2.56523640494049 -2.74461605820582 -2.51646819391939
 1  1.06475748194820 -3.56883099399940 -3.00244860496050
 1 -5.65654738203820 -2.55590421512151  2.67314785468547
 1  5.19469198169817  0.11312069346935 -1.39593994129413
 1  5.97791635903590  1.25927545564556 -0.39933350795080
 1 -3.12135835353535  0.09972776307631 -0.35004540204020
 1  0.57896512711271  1.82588243214321 -0.53851129662966
 1 -1.21226596239624 -4.76856142664266 -1.28974848464846
 1 -2.69513962496250 -3.60360094649465 -1.74035216831683
 1 -1.17231241114111 -4.25608267706771 -2.72184777407741
 1 -2.35679806610661 -3.29628935963596  0.66328899409941
 1  1.06088691799180 -4.85368806710671 -0.80473586348635
 1  2.39463556795680 -5.18530263716372 -1.64916029792979
 1  4.77636286928693 -1.06563772717272  0.79482921902190
 1  5.03213755915592  0.23629966866687  1.72405020812081
 1  4.21246177177718  4.71723213961396  0.19097772597260
 1  5.61982507420742  3.61589912311231  0.45365115471547
 1  4.28901593419342  3.96721219331933  1.68950466736674
 1  1.66749752835284  5.09043822122212  0.55804687988799
 1 -7.48715028332833 -2.82740782428243  1.21520278987899
 1 -6.87171123502350 -4.47913429552955  1.52506834723472
 1 -6.60597629462946 -3.70845826192619  0.00169225762576
 1 -6.67533205550555 -0.72410331883188  1.04430243134313
 1 -4.71697066916692  1.22501732263226  0.28157089578958
 1 -6.41238961636164  1.46359543454345 -0.25625994209421
 1 -5.31524083608361  0.42114227642764 -1.25883264806481
 1 -3.32488447394739  6.50255466056606  0.63994087058706
 1 -4.39321075927593  4.85415774767477  0.65685171147115
 1  0.03018387388739  6.72144270967097  1.76225606720672
 1 -1.41797790809081  7.50067352205220  0.91135048674868
 1 -0.04757558955896  6.90663294899490 -0.03485252815281
 1 -3.48178608560856  5.99954758045805 -2.25741994449445
 1 -5.14625733293329  5.99042215831583 -1.50559043624362
 1 -4.36083956085609  4.35180535083508 -1.68057756575658
 1  3.69551795229523 -4.51695790829083  1.55004578697870
 1  7.77714573917392 -1.77906729572957  1.73065044804480

