%nproc=4
%Mem=2GB
# td=(NStates=1) B3LYP/SVP 

TD

0 1
 8 -4.28042955375538 -4.80565493669367  1.83615764416442
 8  3.07119114781478 -4.71624293109311  1.13367750505051
 8  6.89747605190519 -1.58191546124612  1.92344502400240
 8  3.88648370587059 -3.02299032403240 -0.10702404180418
 8  7.53409294589459 -0.70658055315532 -0.14684071677168
 8 -3.03304889098910  2.36409446024602 -0.46307786918692
 7 -0.26259325402540 -0.45015920902090 -0.65188220112011
 7  1.49621811451145  1.80955138763876 -0.36688826642664
 7 -3.19660164916492 -3.09561067406741  0.69817613621362
 7 -0.83076157185719  2.87093824322432  0.04088024222422
 6  0.63852611691169 -2.35862382078208 -1.43173546864686
 6  1.01180408270827 -1.06668390009001 -0.95005385428543
 6 -0.77314144284428 -2.62866122832283 -1.27918998169817
 6 -1.26331675367537 -1.33837414881488 -0.61728085808581
 6  3.78873733453345  1.48456162266227 -0.23218748554855
 6  2.44263636943694  0.79085091059106 -0.53149733473347
 6  2.31297654785479 -0.45264252215222 -0.93019249384938
 6  3.49812045214521  2.82788259045905  0.11376936723672
 6  1.64811621672167 -3.35655735703570 -1.98397574317432
 6 -5.49254816151615 -2.80777639253925  1.36799406370637
 6 -3.55718957825783 -1.84765974187419  0.12240817261726
 6  2.00508482058206  2.98231822602260  0.09396702010201
 6 -4.99674237053705 -1.70965992989299  0.48309235313531
 6  5.10278554045405  0.80340525742574 -0.37861682038204
 6 -2.63361817751775 -1.02467102250225 -0.34263073687369
 6 -1.50731039313931 -3.78794854795480 -1.74232454925493
 6 -4.22710237863786 -3.78453268506851  1.38777390299030
 6  2.09797093079308 -4.42082110581058 -1.07630685748575
 6  5.31276007840784 -0.10069819331933  0.78071061826183
 6  4.52274833613361  3.88503135243524  0.48234043434343
 6  1.30378905730573  4.19434398469847  0.32419414001400
 6 -6.81201585218522 -3.43615839563956  0.88848791089109
 6 -5.85188476907691 -0.63865964996500  0.13746091299130
 6 -0.15152307160716  4.05060331013101  0.29520133203320
 6 -1.04168926752675  5.13451098479848  0.48558702420242
 6 -2.33173264696470  4.55620712211221  0.29353525952595
 6  2.99082566456646 -3.95698836903690  0.05852354155416
 6 -5.49516322582258  0.50521581018102 -0.74587605240524
 6  6.70456033503350 -0.82914838443844  0.74789568776878
 6 -3.69874741764176  5.22278333683368  0.27418192889289
 6 -2.14404395599560  3.19102406340634 -0.12793856365637
 6 -0.78082867396740  6.61452712271227  0.85289434103410
 6 -4.26523608620862  5.64901085778578 -1.12731182268227
 1 -0.17795938083808  0.30067693349335  0.23730399069907
 1  3.24888224922492 -1.09001714291429 -1.05650573797380
 1  2.48592847414741 -2.75749734633463 -2.49586613371337
 1  1.03327433363336 -3.83952806370637 -2.83880224032403
 1 -5.71468319561956 -2.25287391209121  2.31253179307931
 1  5.22004451695169  0.35921530293029 -1.37599794709471
 1  6.13866243364336  1.49634916301630 -0.29015258985899
 1 -2.88204442214222 -0.02006421612161 -0.46927732523252
 1  0.42645987658766  1.80037988188819 -0.47855530103010
 1 -1.30815555135514 -4.87642221272127 -1.14999450925093
 1 -2.52161227222722 -3.68769935633563 -1.76942507560756
 1 -1.17268244814481 -3.97985505430543 -2.93500909020902
 1 -2.14994738103810 -3.36646637733773  0.84200686588659
 1  1.17579840914091 -4.98852155045505 -0.73545893579358
 1  2.49322542694269 -5.29073318021802 -1.43749913181318
 1  4.61323655665567 -0.93795495889589  0.85463519961996
 1  5.30178452385239  0.26578261696170  1.87124492759276
 1  4.22499302490249  4.93010342674267  0.08902753095310
 1  5.65754884658466  3.44283181638164  0.37657344694469
 1  4.63093012561256  4.15270074217422  1.59909562646265
 1  1.81037181578158  5.00838001540154  0.56451752695270
 1 -7.54460602890289 -2.58518360186019  1.03555482508251
 1 -7.12272633653365 -4.41450783288329  1.47892373277328
 1 -6.52109780678068 -3.65166258235824 -0.31649956155616
 1 -6.94847937023702 -0.71227213571357  0.23873187428743
 1 -4.58581755385539  1.27400222112211 -0.38183544484448
 1 -6.25439381678168  1.12107118211821 -1.21553586968697
 1 -4.93096240824082  0.09642980518052 -1.71929869466947
 1 -3.53742572807281  6.10232463756376  0.74413128962896
 1 -4.40447188538854  4.67020935283528  0.84654068036804
 1 -0.43857300180018  6.67266783218322  1.89244908650865
 1 -1.56527263756376  7.20106356105611  0.99977932963296
 1  0.13926309430943  7.19767205290529  0.44233519061906
 1 -3.60745865286529  6.26393401910191 -1.77279148164817
 1 -5.21099380658066  6.03981709780978 -1.22163204040404
 1 -4.17501097799780  4.72438260856086 -1.91364087208721
 1  3.68037643814381 -4.44027023952395  1.66547733013301
 1  7.72185020962096 -2.03338272727273  1.67527491049105

