%nproc=4
%Mem=2GB
# td=(NStates=1) B3LYP/SVP 

TD

0 1
 8 -4.38075958675868 -4.95926029722972  1.76138016641664
 8  3.09101313001300 -4.64989629642964  1.08807294459446
 8  7.01450775507551 -1.44539180888089  2.00563324282428
 8  3.82738779627963 -3.04364238923892 -0.24412775217522
 8  7.52702223882388 -0.59347924302430 -0.06669270197020
 8 -3.09481506760676  2.45315336613661 -0.36966852825283
 7 -0.26466346104610 -0.52839703280328 -0.53833084598460
 7  1.50357885058506  1.82933336583658 -0.31978355595560
 7 -3.27355934493449 -3.14963607660766  0.69848616721672
 7 -0.79107760346035  2.90567171657166 -0.02647649344934
 6  0.59099136343634 -2.40729868826883 -1.44419671477148
 6  0.93596649894989 -1.10292752445245 -0.87913676257626
 6 -0.73568769746975 -2.68161652385239 -1.20875293799380
 6 -1.28991941394139 -1.47659797119712 -0.59280841084108
 6  3.73007146794679  1.50504367086709 -0.27821208800880
 6  2.47911001680168  0.89463128862886 -0.55802998799880
 6  2.14591984218422 -0.42702996089609 -0.94928440304030
 6  3.53846448654865  2.90166996919692  0.02827081738174
 6  1.67162856795680 -3.35929763106311 -2.01075842144214
 6 -5.56459536623662 -2.79580519541954  1.32131939623962
 6 -3.60376423572357 -1.86781175707571  0.22730866266627
 6  2.05184949704970  3.06342633683368  0.09089671307131
 6 -5.01480417671767 -1.70070903480348  0.42950699459946
 6  5.06944220612061  0.68062297919792 -0.34980393909391
 6 -2.58948376407641 -1.11109966536654 -0.32116859065907
 6 -1.55576523862386 -3.88908866196620 -1.73301361816182
 6 -4.35604527292729 -3.78975320712071  1.37055218081808
 6  2.09560069376938 -4.44399342304230 -1.01445067186719
 6  5.33015181758176 -0.15807393089309  0.87437998519852
 6  4.68195425672567  3.76949979927993  0.34468666896690
 6  1.25482416081608  4.22363691399140  0.26092781338134
 6 -6.83536818741874 -3.43089786958696  0.85138420052005
 6 -5.81410099069907 -0.66864264826483  0.04637180408041
 6 -0.13118103740374  4.12555080488049  0.21813362526253
 6 -1.04915001360136  5.20985851955196  0.40464893039304
 6 -2.29645911961196  4.59304080548055  0.31847775377538
 6  3.08614519651965 -3.94541721192119 -0.03442575337534
 6 -5.29909361886189  0.53576886548655 -0.88871033583358
 6  6.70870074907491 -0.74111958155816  0.85404630283028
 6 -3.65246278917892  5.14586564506451  0.35991050175017
 6 -2.16883643524352  3.19592455345535  0.00585481568157
 6 -0.70456104720472  6.56121179117912  0.80300935253525
 6 -4.19136869946995  5.76474243094309 -0.97673676517652
 1 -0.25798738363836  0.38973583938394 -0.23061280098010
 1  2.89896725772577 -1.19212735393539 -1.30111019841984
 1  2.47478736003600 -2.87529912651265 -2.35063161026103
 1  1.32987399359936 -3.98124223512351 -2.95523388348835
 1 -5.73061478877888 -2.27554617931793  2.26233677357736
 1  5.12155466796680  0.09189857125713 -1.29910025732573
 1  5.98072664006401  1.34614414251425 -0.69064263886389
 1 -2.78634485218522  0.12846063636364 -0.38821921942194
 1  0.46429365996600  1.91943178707871 -0.53201064656466
 1 -1.48036277207721 -4.86093066356636 -1.10448995879588
 1 -2.56710682168217 -3.77119770617062 -1.85694382748275
 1 -1.05153033293329 -4.33519058785879 -2.64729031833183
 1 -2.42492487878788 -3.45730546124612  0.77251991719172
 1  1.36435726502650 -5.16970966926693 -0.53377876777678
 1  2.97170327472747 -5.07544165106511 -1.49081446334634
 1  4.65081031403140 -0.95382654605461  0.95511524762476
 1  5.04083842924292  0.43621966066607  1.72621042414241
 1  4.92222274787479  4.58906932333233 -0.48474984678468
 1  5.80994408610861  3.35511304450445  0.61679746934694
 1  4.66316334893489  4.11778725082508  1.45880159705971
 1  1.51118189678968  5.26499567696770  0.21361243644364
 1 -7.67668923722372 -2.53387847134713  0.85997726732673
 1 -7.29274333823382 -4.20756713881388  1.62918875927593
 1 -6.66992268926893 -3.80599801590159 -0.05188309990999
 1 -6.66620114241424 -0.86880778927893  0.61906990809081
 1 -4.84183315541554  1.18598341924192 -0.17172443374337
 1 -6.08507688508851  1.13823289828983 -1.31423573967397
 1 -4.72226153815382  0.19752991519152 -1.69622638743874
 1 -3.45007699319932  5.87583198829883  1.20840771727173
 1 -4.38441988018802  4.40732306420642  0.91056708300830
 1 -0.09717886238624  6.73477404280428  1.67744758635864
 1 -1.65512162246225  7.13992744744474  0.93073242494249
 1  0.02294146214621  6.83561584728473 -0.09915895879588
 1 -3.80459836683668  6.71557918361836 -1.50175437793779
 1 -5.22770547774777  6.14004712081208 -0.60905078227823
 1 -4.51366484338434  4.88101827212721 -1.77056656465647
 1  3.82492089258926 -4.44746095859586  1.76551733413341
 1  7.87827585218522 -1.69884927392739  1.79656703970397

