%nproc=4
%Mem=2GB
# td=(NStates=1) B3LYP/SVP 

TD

0 1
 8 -4.34142565336534 -4.91192556375638  1.91049507790779
 8  3.01149517821782 -4.92839414621462  1.05882001930193
 8  6.92389869416942 -1.49293656335634  1.82008468796880
 8  3.88678373587359 -3.21019904490449 -0.15740908030803
 8  7.64760429702970 -0.47029692479248  0.03142711001100
 8 -2.99159474557456  2.45966401720172 -0.29384094549455
 7 -0.20585758045805 -0.62023621672167 -0.41043805670567
 7  1.52606109880988  1.87024745724572 -0.34091566916692
 7 -3.38655064406441 -3.18878999199920  0.58042436103610
 7 -0.79340783648365  2.93004415381538 -0.02024587038704
 6  0.69257152145214 -2.43292125052505 -1.42484477957796
 6  0.95070797309731 -1.15132236393639 -0.90193904280428
 6 -0.74294842354235 -2.62255061726173 -1.28589065176518
 6 -1.24326474847485 -1.45766607800780 -0.64962409240924
 6  3.77140560136014  1.51687485398540 -0.29636390319032
 6  2.43726583238324  0.87959978547855 -0.51456564156416
 6  2.19492474267427 -0.46433369126913 -0.79458893349335
 6  3.45307594769477  2.77127692989299  0.10413840414041
 6  1.61243264836484 -3.30609231053105 -2.09528687428743
 6 -5.55282418911891 -2.83916953185319  1.34011127542754
 6 -3.57805166446645 -1.87424240014001  0.25090102190219
 6  2.07519183128313  2.98846884108411  0.04127175057506
 6 -5.00015271157116 -1.66117508140814  0.62658670257026
 6  5.05573083498350  0.83670858775878 -0.41339029772977
 6 -2.61363617931793 -1.13013156855686 -0.33603007680768
 6 -1.45267492959296 -3.86600635373537 -1.79709002580258
 6 -4.36280594899490 -3.80071430323032  1.28926405200520
 6  2.08997013071307 -4.44956398009801 -1.14079330613061
 6  5.29379818221822 -0.12166028952895  0.84327687488749
 6  4.39854591589159  4.07665051435144  0.42650485078508
 6  1.28245692409241  4.03412796309631  0.40250197079708
 6 -6.80660531113111 -3.39935471527153  0.73990305240524
 6 -5.79320890149015 -0.62434821882188  0.19735690259026
 6 -0.07869578887889  4.02875112491249  0.33375518741874
 6 -1.02708780738074  5.19820735443544  0.45555402090209
 6 -2.29544901860186  4.75742724412441  0.19539544554455
 6  3.11737831983198 -4.19038170837084 -0.07492980378038
 6 -5.39873358285829  0.65652094069407 -0.54987645244524
 6  6.72217209620962 -0.66563203280328  0.83622452065207
 6 -3.66156369926993  5.50468152665267  0.12293680438044
 6 -2.21306085768577  3.28069303030303 -0.00949671947195
 6 -0.63544413551355  6.59160483048305  0.80944999659966
 6 -4.26714627722772  5.46808276497650 -1.26943603510351
 1 -0.18900048494850  0.22418928472847  0.10785104540454
 1  3.15963332433243 -1.19543768496850 -0.77241732913291
 1  2.38621850315032 -2.86102769936994 -2.55090163726373
 1  1.11101210741074 -3.82250636153615 -3.05131349144914
 1 -5.50622234953495 -2.71635025972597  2.38176871677168
 1  5.42758527102710  0.25067444884488 -1.30006035333533
 1  5.84737330473047  1.41842137023702 -0.53338691329133
 1 -2.94914113181318 -0.04950716041604 -0.53584398189819
 1  0.45357258785879  1.88679852375238 -0.52951039653965
 1 -1.35869060486049 -4.85558012851285 -1.14003351315132
 1 -2.45505561656166 -3.49415000140014 -2.03596172927293
 1 -0.85092027192719 -4.11194826362636 -2.76787237653765
 1 -2.29819220552055 -3.68150788148815  0.55590825602560
 1  1.14134496379638 -4.82430512881288 -0.74006939683968
 1  2.44534063846385 -5.19119322622262 -2.01440682258226
 1  4.66029126212621 -0.98849001240124  0.87765750185018
 1  4.91516586198620  0.44821085978598  1.63304110721072
 1  4.44564509010901  4.78221863826383 -0.39670104190419
 1  5.45241833353335  3.68954648784879  0.61814760436044
 1  3.98247528012801  4.41453692579258  1.52882859975998
 1  1.68311909050905  5.13227240464046  0.51685276047605
 1 -7.70606217451745 -2.67337242074207  0.73019428902890
 1 -7.06405046894689 -4.29603598569857  1.21131697209721
 1 -6.56893259025903 -3.69100651675168 -0.17706561816182
 1 -6.90943546584658 -0.50863177167717  0.52190019111911
 1 -4.81806077817782  1.21608642954295  0.35300803950395
 1 -6.32422079947995  1.25837491249125 -0.72571688778878
 1 -4.79443875587559  0.44690485268527 -1.45168193299330
 1 -3.48979096459646  6.49943434853485  0.52739961646165
 1 -4.48170960916092  4.85720805270527  0.63894992129213
 1 -0.01801094559456  6.60991155655566  1.55855569716972
 1 -1.45886199649965  7.44852830753075  1.15860521222122
 1  0.13967313531353  6.89353163886389  0.06302725982598
 1 -3.81532943994400  6.41178880458046 -1.91135533803380
 1 -5.32107481468147  5.60889400550055 -1.15677555475547
 1 -4.18507198409841  4.46131630193019 -1.77179668766877
 1  3.54658305880588 -4.45130134263426  1.77601838423842
 1  7.86631465606561 -1.76811620062006  1.83780116311631

