%nproc=4
%Mem=2GB
# td=(NStates=1) B3LYP/SVP 

TD

0 1
 8 -4.28972048284828 -4.84388876007601  2.05715974437444
 8  2.98748277697770 -4.87113842064206  1.09192332963296
 8  6.97773407770777 -1.60512778247825  1.81421410091009
 8  3.95282033953395 -3.13921194619462 -0.05433877327733
 8  7.48757829442944 -0.63821371647165 -0.10591662436244
 8 -3.09969555565557  2.51400945174517 -0.40582214361436
 7 -0.27927492219222 -0.52213640674067 -0.70995800870087
 7  1.48469696239624  1.87110754325433 -0.45696727432743
 7 -3.29988197719772 -3.21297241024102  0.64967128572857
 7 -0.83717221292129  2.99644079347935 -0.13221706750675
 6  0.67051931623162 -2.42248020642064 -1.41403369846985
 6  0.91143404570457 -1.00681791349135 -1.02694154305431
 6 -0.76529065776578 -2.64594295649565 -1.18469053175318
 6 -1.24683510551055 -1.44271458285829 -0.72516164616462
 6  3.83548200900090  1.55891905840584 -0.31594586138614
 6  2.46314842064206  0.89642146764676 -0.64257844284428
 6  2.23858910911091 -0.38625588348835 -0.95290476507651
 6  3.47907854795480  2.89817962016202  0.11047903820382
 6  1.67934934003400 -3.38796049734974 -1.97485483108311
 6 -5.56726563326333 -2.84701031593159  1.28981624592459
 6 -3.61924578387839 -1.97873284918492  0.22889882168217
 6  2.08156246834684  3.09708970317032  0.05755337873787
 6 -4.98645134143414 -1.64253321722172  0.47747179107911
 6  5.05335059695970  0.89039395629563 -0.28757771647165
 6 -2.63553836953695 -1.05852440784078 -0.33384985878588
 6 -1.47945760786079 -3.93389314241424 -1.70728104490449
 6 -4.37406707510751 -3.77780201200120  1.46605173077308
 6  2.13478461216122 -4.50946997069707 -1.00756998379838
 6  5.45605440784078 -0.13657178067807  0.78936148334833
 6  4.39995605690569  3.90621347064706  0.61058325862586
 6  1.33147182558256  4.16240079037904  0.37809953055306
 6 -6.98969361996200 -3.53418819861986  0.91876093819382
 6 -5.79833941454145 -0.67632341634163 -0.03787662076208
 6 -0.09751767106711  4.06387463726373  0.29851166306631
 6 -1.01513661226123  5.24698223192319  0.53057152265227
 6 -2.27203667736774  4.64908641004100  0.38250415641564
 6  3.13290987298730 -4.00856352655266  0.02440012921292
 6 -5.35396910641064  0.40236552515252 -1.09418088288829
 6  6.73180305930593 -0.81360683028303  0.75747664586459
 6 -3.58005554845485  5.40099115761576  0.39539405010501
 6 -2.19481903350335  3.30058501950195 -0.13884965476548
 6 -0.65685627672767  6.64374004400440  0.88009706130613
 6 -4.25017458005801  5.58757471417142 -0.97497658915892
 1 -0.50117170207021  0.48922578837884 -0.32238197789779
 1  3.02476983798380 -1.16563470467047 -0.78173826122612
 1  2.54731461276128 -2.88931052765277 -2.43262981008101
 1  1.20288129432943 -4.05155926682668 -2.59753811391139
 1 -5.83677540484048 -2.46470509520952  2.29604014391439
 1  5.24192670517052  0.34116349774977 -1.25505585288529
 1  5.83784235163516  1.72156168426843 -0.35289886448645
 1 -2.81078729642964 -0.08874108380838 -0.40058045554556
 1  0.39197642824282  2.02876272017202 -0.57353479897990
 1 -1.08403313911391 -4.73925849634964 -0.95403491329133
 1 -2.65075518651865 -3.83940452685269 -1.75229336243624
 1 -1.12971815171517 -4.17184425322532 -2.62928851815182
 1 -2.20532291859186 -3.56493622432243  1.02549521472147
 1  1.17348817811781 -4.78338103640364 -0.59915530543054
 1  2.63705981038104 -5.20708481538154 -1.83442882478248
 1  4.46472170517052 -0.87124828822882  0.70404014011401
 1  5.59590393579358  0.53965000370037  1.75343314641464
 1  4.24181470707071  5.01699211561156  0.09543817201720
 1  5.43765685738574  3.64977251045105  0.48854464406441
 1  4.30966799939994  4.05595106720672  1.51333705060506
 1  1.75329610821082  5.06354553195320  0.83660473567357
 1 -7.82275384368437 -2.70062514601460  0.85686695629563
 1 -7.16786084998500 -4.30400678277828  1.50180602100210
 1 -6.89408510551055 -3.86924434053405 -0.12734064566457
 1 -6.80238476077608 -0.78686959545955  0.01121912301230
 1 -4.72971194329433  1.20588540944094 -0.62812007330733
 1 -6.25144352175217  0.90705978097810 -1.82252656875688
 1 -4.64795410741074 -0.24876471427143 -1.67800456525653
 1 -3.54918690419042  6.43211761686169  0.76488336483648
 1 -4.19101053925393  4.67989032093209  0.89637566386639
 1 -0.01906105060506  6.73439400480048  1.73294313591359
 1 -1.51711782208221  7.32521597629763  1.12266161786179
 1  0.03144231223122  7.11554384008401  0.23070402750275
 1 -3.68716662366237  6.14207183288329 -1.66629083158316
 1 -5.09152185938594  6.25149826592659 -0.76234611181118
 1 -4.56288976587659  4.59185935623562 -1.44882439043904
 1  3.73206160666067 -4.39093530603060  1.57737852025202
 1  7.95769379397940 -1.98502789178918  1.59891727472747

