--Link1--
%Mem=30GB
%CPU=0-29
%Chk=zea-s0.chk
#n wB97XD/Def2TZVP Opt 

zea-s0

  0  1
O,14.717808,-2.215285,-0.411469
O,-14.784035,1.981442,0.709061
C,11.467063,-1.08366,1.216394
C,-12.32368,-0.9244,0.794785
C,12.962684,-1.409618,1.074285
C,-13.673907,-0.188404,0.761039
C,13.33006,-1.934731,-0.301106
C,-13.526599,1.322017,0.732155
C,10.964737,-0.297842,-0.007543
C,-11.328986,-0.289709,-0.192458
C,13.007808,-0.882429,-1.341269
C,-12.792399,1.720231,-0.529584
C,11.652534,-0.236272,-1.164835
C,-11.564104,0.886774,-0.804607
C,11.292732,-0.248418,2.495585
C,10.655591,-2.385193,1.368799
C,-11.728064,-0.881722,2.214199
C,-12.592979,-2.39557,0.430956
C,9.651738,0.349627,0.183197
C,-10.086327,-1.059153,-0.413193
C,11.172347,0.465352,-2.407927
C,-10.67561,1.496164,-1.856933
C,9.350335,1.625623,-0.096261
C,-8.845152,-0.564428,-0.289544
C,8.040142,2.262603,0.093315
C,-7.598581,-1.296669,-0.496677
C,8.09519,3.727951,0.436342
C,-7.68894,-2.74252,-0.898248
C,6.895933,1.560059,-0.049939
C,-6.431969,-0.635249,-0.319942
C,5.544481,2.03293,0.15084
C,-5.088779,-1.141238,-0.478261
C,4.46069,1.255864,-0.043708
C,-3.995801,-0.377937,-0.276697
C,3.073953,1.654023,0.133349
C,-2.61236,-0.796702,-0.423399
C,2.797192,3.065508,0.572906
C,-2.345056,-2.216977,-0.839597
C,2.104251,0.738362,-0.108749
C,-1.636765,0.112942,-0.181729
C,0.678312,0.912319,-0.008803
C,-0.211314,-0.068945,-0.273601
H,13.557282,-0.505648,1.251617
H,13.24764,-2.134188,1.848675
H,-14.272228,-0.498431,1.627945
H,-14.236326,-0.480773,-0.133798
H,12.747981,-2.84257,-0.519351
H,-12.945387,1.654824,1.605273
H,13.790676,-0.112801,-1.291161
H,13.085065,-1.317731,-2.343237
H,-13.494556,1.636788,-1.370673
H,-12.513928,2.779361,-0.481171
H,11.713797,-0.782743,3.353393
H,10.241348,-0.044901,2.711189
H,11.807304,0.712673,2.408653
H,10.759974,-3.034203,0.496141
H,10.99083,-2.940826,2.250761
H,9.589987,-2.180075,1.500569
H,-11.581004,0.144289,2.561065
H,-10.754908,-1.378446,2.239962
H,-12.388411,-1.390948,2.924043
H,-13.402188,-2.787483,1.054912
H,-11.719517,-3.029717,0.59944
H,-12.896421,-2.49692,-0.615262
H,8.881759,-0.256796,0.658162
H,-10.20268,-2.112757,-0.653672
H,10.125806,0.759024,-2.352974
H,11.765647,1.367095,-2.602864
H,11.307649,-0.185135,-3.2787
H,-11.289928,1.867709,-2.685071
H,-9.944606,0.793631,-2.253939
H,-10.132445,2.363868,-1.464044
H,14.934467,-2.900948,0.231071
H,-15.25565,1.750863,1.517953
H,10.145184,2.276956,-0.456848
H,-8.733031,0.479019,-0.001874
H,8.721379,4.261474,-0.286966
H,7.116105,4.205913,0.441674
H,8.552898,3.881132,1.419819
H,-8.229699,-3.320712,-0.141608
H,-8.242444,-2.849858,-1.836697
H,-6.711507,-3.203481,-1.03208
H,6.98337,0.522568,-0.366077
H,-6.497379,0.411599,-0.026228
H,5.406156,3.058517,0.477453
H,-4.961796,-2.176926,-0.775997
H,4.619013,0.227537,-0.365888
H,-4.144956,0.658831,0.022038
H,3.272147,3.26958,1.537991
H,1.733468,3.273292,0.675918
H,3.209782,3.781657,-0.145038
H,-2.778632,-2.918529,-0.119556
H,-2.804924,-2.428799,-1.81033
H,-1.28201,-2.438251,-0.919641
H,2.428422,-0.253486,-0.420959
H,-1.955994,1.110824,0.116132
H,0.292535,1.882936,0.292054
H,0.172295,-1.040501,-0.574164

