--Link1--
%Mem=30GB
%CPU=0-29
%Chk=zea-s1.chk
#n wB97XD/Def2TZVP Opt Td

zea-s1

  0  1
O,14.69475,-2.260669,-0.23077
O,-14.74936,1.886949,1.00469
C,11.17654,-1.464479,0.98839
C,-12.34836,-1.043821,0.61356
C,12.66434,-1.847039,1.05108
C,-13.68281,-0.279801,0.67188
C,13.31961,-1.916779,-0.31455
C,-13.50707,1.203389,0.93749
C,10.95673,-0.27373,0.03293
C,-11.28636,-0.249931,-0.17324
C,13.24509,-0.555149,-0.97246
C,-12.72562,1.809929,-0.20647
C,11.89131,0.106171,-0.87357
C,-11.49405,1.023709,-0.58004
C,10.73959,-1.09559,2.41616
C,10.3438,-2.67232,0.5161
C,-11.83194,-1.313081,2.03869
C,-12.63505,-2.397781,-0.06262
C,9.64759,0.36047,0.1604
C,-10.04428,-0.982581,-0.43715
C,11.6912,1.208261,-1.8801
C,-10.56712,1.795229,-1.4811
C,9.36095,1.68757,0.0836
C,-8.78603,-0.490511,-0.34898
C,8.05895,2.29017,0.19225
C,-7.56966,-1.226721,-0.58831
C,7.98216,3.76145,0.50816
C,-7.66703,-2.664231,-1.01315
C,6.90029,1.56059,0.02485
C,-6.37303,-0.577381,-0.41075
C,5.59286,2.05762,0.18031
C,-5.06454,-1.089271,-0.58122
C,4.46214,1.28806,-0.02915
C,-3.93703,-0.32776,-0.37185
C,3.12509,1.70609,0.10884
C,-2.59544,-0.74921,-0.51645
C,2.83433,3.12308,0.52342
C,-2.31232,-2.16508,-0.93774
C,2.10911,0.77936,-0.1432
C,-1.5804,0.17111,-0.26049
C,0.73171,0.97186,-0.06328
C,-0.2013,-0.024,-0.3403
H,13.2142,-1.105899,1.64311
H,12.76501,-2.807859,1.57316
H,-14.32027,-0.735581,1.44079
H,-14.21505,-0.381281,-0.28144
H,12.78993,-2.646929,-0.94442
H,-12.94568,1.350179,1.87266
H,14.00413,0.084221,-0.49819
H,13.54443,-0.636429,-2.02269
H,-13.39791,1.889399,-1.07257
H,-12.44027,2.839799,0.03964
H,10.97311,-1.91571,3.10304
H,9.66673,-0.90201,2.48245
H,11.26258,-0.201329,2.76614
H,10.63737,-3.00226,-0.48317
H,10.469971,-3.51357,1.2056
H,9.27683,-2.43692,0.48279
H,-11.68314,-0.385061,2.59703
H,-10.87161,-1.834561,2.01216
H,-12.54107,-1.935801,2.5942
H,-13.49551,-2.873041,0.41869
H,-11.79765,-3.094111,0.02102
H,-12.87141,-2.268081,-1.12258
H,8.83097,-0.30589,0.42879
H,-10.15235,-2.039361,-0.66198
H,10.63708,1.4033,-2.07941
H,12.14171,2.150571,-1.54392
H,12.1833,0.951451,-2.82311
H,-11.15599,2.384359,-2.19279
H,-9.89022,1.149809,-2.04033
H,-9.95816,2.513459,-0.91844
H,14.75872,-3.136729,0.1672
H,-15.25307,1.516999,1.73904
H,10.19081,2.38092,-0.01825
H,-8.65264,0.543989,-0.04374
H,8.97313,4.21618,0.54159
H,7.38613,4.30139,-0.23654
H,7.5074,3.93932,1.48162
H,-8.17206,-3.263421,-0.24711
H,-8.25629,-2.759971,-1.93111
H,-6.69228,-3.114601,-1.19566
H,6.99145,0.51785,-0.27125
H,-6.43024,0.465049,-0.09875
H,5.47295,3.09328,0.48491
H,-4.94529,-2.12322,-0.8885
H,4.61807,0.25254,-0.32932
H,-4.08596,0.70628,-0.06281
H,3.24372,3.3311,1.51759
H,1.76739,3.34018,0.55398
H,3.2962,3.83375,-0.16942
H,-2.73885,-2.87708,-0.22335
H,-2.76287,-2.37938,-1.91258
H,-1.24615,-2.3745,-1.01457
H,2.43637,-0.21719,-0.43788
H,-1.90377,1.16756,0.03907
H,0.34701,1.94573,0.2299
H,0.18215,-0.99836,-0.63326
