%NProcShared=4
%Chk=chlorophyll-a-s1-geom.chk
%Mem=6GB
#n B3LYP/SVP Opt td

 chlorophyll-a-s1-geom

0 1
Mg         6.57640       -0.51305       -0.06184
C          4.22869        1.89330       -0.62234
C          5.32953       -1.05064        3.11038
C          9.00466       -2.91512        0.31441
C          7.62929        0.08044       -3.28445
N          4.97350        0.25851        1.05944
C          4.14470        1.17717        0.68379
C          2.98561        1.35146        1.64005
C          3.46277        0.59119        2.89468
C          4.64997       -0.15953        2.36729
C          3.90541        1.55672        4.00473
C          1.79172        0.64565        0.94741
C          0.44229        0.65508        1.68760
C         -0.63836        0.05987        0.80489
O         -0.35668       -0.34361       -0.31883
O         -1.92826        0.00734        1.23096
N          7.12232       -1.74371        1.49856
C          6.52992       -1.82206        2.70558
C          7.19637       -2.75162        3.50477
C          8.22892       -3.27892        2.72543
C          8.13448       -2.63701        1.48753
C          6.85607       -3.11773        4.92473
C          9.25248       -4.32029        3.06829
C          9.38619       -4.95837        4.23734
N          8.02439       -1.32331       -1.28497
C          8.92653       -2.33301       -0.89462
C          9.79135       -2.64404       -2.04083
C          9.39685       -1.83730       -3.03746
C          8.29543       -0.99943       -2.50535
C         10.87443       -3.69240       -2.05254
C          9.94638       -1.77877       -4.44741
C          8.91402       -2.27280       -5.46219
N          6.08901        0.71967       -1.59599
C          6.62740        0.84010       -2.83069
C          5.97194        1.86042       -3.54565
C          5.01115        2.32304       -2.67681
C          5.10932        1.61335       -1.55867
C          6.23297        2.33637       -4.93925
C          3.93445        3.26762       -2.52186
O          3.55906        4.07719       -3.35489
C          3.35703        3.05723       -1.13674
C          3.49204        4.31218       -0.30744
O          4.19067        4.32383        0.69826
O          2.83191        5.43196       -0.69867
C          2.89944        6.63579       -0.02984
C         -2.96059       -0.23425        0.34283
C         -4.29349       -0.26211        1.04057
C         -5.20518       -1.25529        0.90244
C         -4.94525       -2.46914        0.03905
C         -6.55406       -1.13097        1.57884
C         -7.63060       -0.87186        0.51479
C         -9.02717       -0.70579        1.13418
C        -10.12302       -0.35227        0.09295
C         -9.85144        1.02299       -0.55763
C        -11.50783       -0.38998        0.79163
C        -12.68400       -0.07132       -0.14821
C        -14.03612       -0.22064        0.56902
C        -15.25510        0.10907       -0.33310
C        -15.25029        1.59057       -0.76766
C        -16.55469       -0.25213        0.43092
C        -17.83581       -0.05550       -0.39907
C        -19.07674       -0.51895        0.38005
C        -20.40468       -0.24734       -0.36618
C        -20.49734       -1.00096       -1.70240
C        -21.58752       -0.64342        0.52718
H          4.93702       -1.21605        4.10339
H          9.76993       -3.66833        0.42469
H          7.98602        0.26685       -4.29046
H          2.73774        2.41180        1.86363
H          2.67717       -0.08292        3.29607
H          3.03717        2.15975        4.34559
H          4.29757        0.99579        4.87905
H          4.69625        2.24718        3.63806
H          1.61297        1.15426       -0.01568
H          2.06364       -0.41224        0.72441
H          0.50454        0.08031        2.63404
H          0.16227        1.70453        1.92079
H          6.59985       -4.19560        4.98040
H          7.71831       -2.88364        5.58280
H          5.99418       -2.56358        5.33242
H          9.97484       -4.60409        2.31588
H         10.17830       -5.69209        4.35100
H          8.75874       -4.79829        5.09460
H         10.42621       -4.68068       -1.81920
H         11.39438       -3.77996       -3.02302
H         11.63062       -3.44641       -1.27872
H         10.25262       -0.73662       -4.67702
H         10.84119       -2.41632       -4.56690
H          9.34264       -2.21904       -6.48493
H          8.64751       -3.32987       -5.24651
H          7.98638       -1.66817       -5.44375
H          6.09278        1.49603       -5.65071
H          5.53239        3.15439       -5.20864
H          7.27354        2.71390       -5.01532
H          2.29116        2.77646       -1.22110
H          2.52339        6.51888        1.00912
H          3.94779        7.00375       -0.00982
H          2.26962        7.38143       -0.55683
H         -2.99013        0.60148       -0.38998
H         -2.76268       -1.16941       -0.21985
H         -4.54228        0.60950        1.63984
H         -4.06470       -3.02623        0.42271
H         -5.81048       -3.16440        0.04788
H         -4.76433       -2.15813       -1.01179
H         -6.76619       -2.04911        2.16803
H         -6.56360       -0.26718        2.28020
H         -7.32940        0.05670       -0.00874
H         -7.66373       -1.70152       -0.22400
H         -9.28672       -1.66915        1.62672
H         -9.00070        0.08666        1.91459
H        -10.12090       -1.12699       -0.70598
H         -8.88474        1.04289       -1.09433
H        -10.60236        1.25903       -1.33599
H         -9.85654        1.82584        0.21023
H        -11.65687       -1.41284        1.20362
H        -11.52148        0.33158        1.63850
H        -12.57540        0.97108       -0.49317
H        -12.66012       -0.75752       -1.02287
H        -14.11570       -1.27846        0.90507
H        -14.05817        0.43153        1.47024
H        -15.20253       -0.52986       -1.24270
H        -15.30491        2.25709        0.11958
H        -14.34647        1.84345       -1.35371
H        -16.09836        1.81678       -1.44227
H        -16.49820       -1.32636        0.71611
H        -16.62382        0.35137        1.36313
H        -17.96870        1.01804       -0.64316
H        -17.73872       -0.63843       -1.33821
H        -18.98651       -1.60366        0.61078
H        -19.10372        0.04041        1.34175
H        -20.48378        0.84350       -0.57131
H        -20.41410       -2.09711       -1.54171
H        -21.47019       -0.78478       -2.19362
H        -19.70314       -0.67543       -2.40378
H        -21.55864       -0.07314        1.48019
H        -22.54819       -0.41228        0.01909
H        -21.55836       -1.72986        0.75964

