%nproc=3
%Mem=2GB
# td=(NStates=1) iop(3/107=0140000000,3/108=0140000000) iop(3/107=0140000000,3/108=0140000000) CAM-B3LYP/6-31G(d,p) 

TD

0 1
12 -5.58517424862486  1.20670069776978  0.21008367716772
 6 -4.98534865666567 -2.20197416211621 -0.30414347944794
 6 -3.44518597849785  1.20302284378438  2.68429986818682
 6 -6.19546596889689  4.53298132123212  0.61281364256426
 6 -8.04887580558056  1.20701938433843 -2.31017511141114
 7 -4.37500458495850 -0.27752367546755  0.97644781178118
 6 -4.21724694509451 -1.56430761216122  0.65366908540854
 6 -3.10001140284028 -2.25807700630063  1.44439002760276
 6 -2.98601275667567 -1.36440711041104  2.60546733333333
 6 -3.62044884488449 -0.02233138573857  2.13605426402640
 6 -3.56876898489849 -1.80472716531653  3.97483534293429
 6 -1.90039488278828 -2.72744673787379  0.59670385648565
 6 -1.04993275617562 -3.68727381528153  1.37749162606261
 6  0.22504837223722 -3.92993786588659  0.61045920702070
 8  0.51454530843084 -3.48364805360536 -0.49937995339534
 8  1.08752043424342 -4.66776192099210  1.23340932943294
 7 -4.82305085608561  2.62974321102110  1.42177886448645
 6 -4.00231431863186  2.47384540054005  2.48906413221322
 6 -3.75940647784778  3.73668375087509  3.21916086048605
 6 -4.59486524222422  4.61023948944894  2.58995487968797
 6 -5.29806916931693  3.95841051755175  1.51756690859086
 6 -2.88762738763876  3.89538662236224  4.40008387888789
 6 -4.75361806180618  6.03707374157416  2.95754119091909
 8 -4.07918040534053  6.62831766196620  3.75628960146015
 7 -6.98026967656766  2.63926185868587 -0.67584025172517
 6 -6.98079027682768  3.98661906740674 -0.35174337743774
 6 -7.94142928312831  4.64701575837584 -1.22506531563156
 6 -8.56868990179018  3.63264239433943 -1.98607315971597
 6 -7.83923773527353  2.41572974707471 -1.67242101190119
 6 -8.33251553025303  6.02422379207921 -1.12587372197220
 6 -9.56489296769677  3.80659159745975 -3.08871141974197
 6 -8.89825880658066  4.00264162726273 -4.47955120182018
 7 -6.39035480278028 -0.17464264446445 -1.06634765516552
 6 -7.37855146184618  0.01226032043204 -2.07534345694569
 6 -7.51172428902890 -1.33132828552855 -2.77430045464546
 6 -6.67944342804280 -2.15657943124312 -2.16627583748375
 6 -5.94881280478048 -1.41101513101310 -1.15754361906191
 6 -8.47308268296830 -1.65210499909991 -3.83071399079908
 6 -6.22535616271627 -3.54996410241024 -2.04860025392539
 8 -6.53052629322932 -4.54511948204821 -2.65929617531753
 6 -5.06701695519552 -3.61593336003600 -0.88857547834783
 6 -5.27008413601360 -4.62031723332333  0.13009016001600
 8 -5.68222240484048 -4.42042797619762  1.24998211851185
 8 -4.91497146034603 -5.87134101820182 -0.33918809020902
 6 -5.33378672787279 -6.95129872097210  0.57205474027403
 6  2.31692837443744 -5.01944820502050  0.64675265656566
 6  3.36466977707771 -4.09850134943494  1.03683496929693
 6  4.02850195389539 -3.29360918181818  0.17104947994800
 6  3.61871676897690 -3.07201038943894 -1.31330899969997
 6  5.14559876587659 -2.43230749894989  0.68841069196920
 6  6.57382298699870 -2.72966791979198  0.01763208910891
 6  7.61954108080808 -1.77134878067807  0.60200403500350
 6  9.07098570707071 -2.03564954695470 -0.02607932113211
 6  9.60692777287729 -3.46746664916492  0.22077520252025
 6  10.06732216781678 -0.94477509840984  0.41486945034503
 6  11.40555371267127 -0.81639443454345 -0.25082039263926
 6  12.27909553015301  0.35901509200920  0.13856464466447
 6  13.51799119321932  0.53615330223022 -0.62356211341134
 6  14.46395456845685 -0.69623035303530 -0.26465315051505
 6  14.14324426262626  1.85496026822682 -0.24573221562156
 6  15.48956823772377  2.10516245154515 -1.00668777647765
 6  16.08104772447244  3.53375588558856 -0.61306239923992
 6  17.43874826952695  3.86999591509151 -1.36935798359836
 6  17.30277926002600  3.98376393909391 -2.86056837683768
 6  18.01483490269027  5.06066419241924 -0.86361731873187
 1 -2.52736824272427  1.30999786338634  3.44480209140914
 1 -6.42861374427443  5.71554775697570  0.74500426312631
 1 -8.75804100320032  1.22908717021702 -3.32563794469447
 1 -3.52957002220222 -3.25341845854585  1.74813055515552
 1 -1.96556764276428 -1.15922353055306  2.78387055305531
 1 -3.01631095629563 -2.74408098899890  4.33185313121312
 1 -3.21750835093509 -1.03902602030203  4.66476261216122
 1 -4.60881255705571 -2.11543946194619  4.16491971457146
 1 -2.21933909950995 -3.31475452045205 -0.29615735033503
 1 -1.32194289398940 -1.93404203160316  0.13576441774177
 1 -0.68206259635964 -3.28345831813181  2.17632217331733
 1 -1.55079455805581 -4.42749958625863  1.57958699539954
 1 -1.88698735083508  3.47141182788279  4.33048542964296
 1 -2.81071872587259  5.05802544164416  4.45705136803680
 1 -3.29736966946695  3.41834502860286  5.38068504530453
 1 -5.39065292459246  6.65019300180018  2.27868998479848
 1 -10.06934091659166  2.82531968386839 -3.18013916851685
 1 -10.18556603950395  4.61148868336834 -2.79658265086509
 1 -9.65415117601760  3.90611851185118 -5.28578488908891
 1 -8.40091405740574  4.86685862646265 -4.48975865766577
 1 -8.21507178207821  3.16815112901290 -4.84246836153615
 1 -8.45755233683368 -1.21949520722072 -4.97889785878588
 1 -8.41405103300330 -2.53630069036904 -4.00779012291229
 1 -9.56207945704570 -1.50082671727173 -3.44735902100210
 1 -4.06564834083408 -3.89471529452945 -1.41821675177518
 1  2.45162310611061 -6.19935722882288  0.85721410931093
 1  2.14727805440544 -5.11189971637164 -0.39340477557756
 1  3.62287827022702 -4.37933805610561  1.99543790789079
 1  2.52030948284829 -3.14675623052305 -1.39435208530853
 1  3.80881821982198 -2.08301300190019 -1.44494271177118
 1  4.05336784418442 -3.72444430073007 -2.01733319061906
 1  4.96779064806481 -1.44096964156416  0.46059645074507
 1  5.22237459585959 -2.42262657985798  1.71294518081808
 1  6.70306952695269 -3.75388968846885  0.21893121482148
 1  6.52849168866887 -2.58413062906291 -1.00171985818582
 1  7.19578037963796 -0.88156471077108  0.41600035333533
 1  7.75632454265426 -2.06884513301330  1.65482295469547
 1  9.04070997059706 -2.10194823552355 -1.14997321602160
 1  8.86980914631463 -4.17697655755576 -0.01787425762576
 1  10.59696272567257 -3.45905926062606 -0.32263984588459
 1  9.82000874847485 -3.61672740134013  1.20499146214621
 1  9.45994705560556 -0.08275986558656  0.18654782918292
 1  10.18888784738474 -1.05621394069407  1.50496143344334
 1  12.12476440754075 -1.59555687738774 -0.13274258205821
 1  11.37189312951295 -0.67471910741074 -1.29025986968697
 1  11.66334635273527  1.15390846264627  0.09595238483848
 1  12.84190494919492  0.18497978127813  1.09987916301630
 1  13.19332007430743  0.52568731153115 -1.60748695349535
 1  14.77799802700270 -0.71064408170817  0.87302239973997
 1  13.82579296579658 -1.67514069296930 -0.39926618071807
 1  15.45825568206821 -0.74166749444945 -0.90450285328533
 1  13.41555080068007  2.77559585878588 -0.41999187648765
 1  14.42571018321832  2.07793420792079  0.97815664296430
 1  16.16353508060806  1.10718618011801 -0.69868768376838
 1  15.39451424692469  2.18079633103310 -2.06222975387539
 1  15.50281174327433  4.46545975367537 -0.99549082908291
 1  16.09035866976697  3.29170512991299  0.48864132293229
 1  18.13702351915192  3.00644415291529 -1.21670605850585
 1  16.57838497529753  4.67448472737274 -3.32267654655466
 1  18.27787017691769  4.37880427362736 -3.23932136573657
 1  17.14770945624562  2.99293420462046 -3.25196574977498
 1  17.86842471647164  5.26793744674467  0.42206137183718
 1  19.13732134293429  5.18762498899890 -1.09464160526053
 1  17.41559412921292  5.99090350045005 -1.25353370547055
 1 -4.99408729332933 -7.82750384978498 -0.04558887488749
 1 -6.49057954925493 -6.96456583798380  0.81281112441244
 1 -4.87476969436944 -6.88113798999900  1.50135300370037
 8 -7.79073196849685  6.82845287668767 -0.47849127752775
 1 -9.17911129492949  6.30874829052905 -1.68903737123712

