%nproc=3
%Mem=2GB
# td=(NStates=1) iop(3/107=0140000000,3/108=0140000000) iop(3/107=0140000000,3/108=0140000000) CAM-B3LYP/6-31G(d,p) 

TD

0 1
12 -5.55067079827983  1.22306233393339  0.18976164496450
 6 -4.93133325512551 -2.07159112381238 -0.41969503460346
 6 -3.43889534943494  1.18577111861186  2.77033847204720
 6 -6.13159958225823  4.52889091219122  0.56024838603860
 6 -7.98124904290429  1.21867054945495 -2.37623171707171
 7 -4.42164924942494 -0.32925884898490  1.07660782778278
 6 -4.24627984838484 -1.61715289668967  0.69264298279828
 6 -3.23762516421642 -2.36194739333933  1.52852844144414
 6 -2.95166932233223 -1.31286195589559  2.63873065966597
 6 -3.57855465546555 -0.07901705430543  2.07919857845785
 6 -3.57479958795880 -1.63278997159716  3.98149600900090
 6 -1.99405424872487 -2.72029602280228  0.70543472957296
 6 -0.97756551945195 -3.63804889278928  1.52520639753975
 6  0.25711157855786 -3.89550442254225  0.68276643774377
 8  0.55689954385439 -3.35601529032903 -0.39783979937994
 8  1.05276695889589 -4.83816896169617  1.34993098159816
 7 -4.80343889488949  2.66686692339234  1.33376006260626
 6 -3.96933102030203  2.44158217421742  2.46234145994599
 6 -3.67858839603960  3.59337942044204  3.19830877527753
 6 -4.46621237693769  4.55199366486649  2.56228211241124
 6 -5.22739210161016  3.85420009650965  1.50257540944094
 6 -2.79392801770177  3.92070915461546  4.40940481098110
 6 -4.59385208520852  5.92776281048105  2.98498393519352
 8 -3.94896738403840  6.58087291749175  3.77393136563656
 7 -6.88913056265627  2.60935886838684 -0.67964063176318
 6 -6.94980717851785  3.92340274577458 -0.31638984208421
 6 -7.83313845404540  4.68113917071707 -1.25432824192419
 6 -8.45073810661066  3.67333646374638 -2.03067762016202
 6 -7.87491130263026  2.41792996709671 -1.71520529032903
 6 -8.22624490319032  6.06588795849585 -1.19252038663866
 6 -9.36526300470047  3.82169310761076 -3.09841238983898
 6 -8.66100508120812  4.03936529962996 -4.46134938163816
 7 -6.37443321062106 -0.08330351055106 -1.07752877327733
 6 -7.39066267296730 -0.02571347694769 -2.11476739933993
 6 -7.48569168576858 -1.40402555525553 -2.66829985458546
 6 -6.66984246794680 -2.17651142444244 -2.11111032093209
 6 -5.87643556705671 -1.36161019051905 -1.15510337503750
 6 -8.39416479117912 -1.66108589718972 -3.81309222862286
 6 -6.12018564566457 -3.51511061706171 -2.01606700060006
 8 -6.53934717531753 -4.50666563666367 -2.67807805350535
 6 -5.02468272177218 -3.54352611931193 -0.91308792959296
 6 -5.29354648224822 -4.62359756135614  0.02599975097510
 8 -5.64765894849485 -4.42456839023902  1.16686380668067
 8 -4.88360832403240 -5.75684956905691 -0.49321349274928
 6 -5.06416976617662 -6.83418700980098  0.38995653045305
 6  2.24089077067707 -5.17521378157816  0.63879186048605
 6  3.44432774287429 -4.28910040934093  1.05535682148215
 6  4.02869197289729 -3.38144796569657  0.23895627062706
 6  3.70737563486349 -3.24994818321832 -1.18603627242724
 6  5.04334854085409 -2.45750001820182  0.75662751365136
 6  6.42546815151515 -2.75960091309131  0.17156748264826
 6  7.51000012671267 -1.74764641044104  0.57606144074407
 6  8.88283689218922 -1.98779476147615 -0.08192490569057
 6  9.37834491459146 -3.45882578507851  0.22230535553555
 6  9.93028846444644 -0.97183780468047  0.48122608600860
 6  11.22799595689569 -0.78679147424742 -0.38017332793279
 6  12.11925954655466  0.27721691219122  0.28081887008701
 6  13.42712210631063  0.51449113601360 -0.54516427362736
 6  14.42386055905591 -0.69309003900390 -0.34784146934693
 6  14.17884782298230  1.77913268546855 -0.14042168456846
 6  15.31533081398140  2.17719965526553 -1.07445455315532
 6  16.03313293299330  3.60404291429143 -0.64539563256326
 6  17.30928532323232  3.90597951345135 -1.41242229002900
 6  17.06178516061606  3.96009157185719 -2.94160648064806
 6  17.80688410761076  5.32160028602860 -0.99972092909291
 1 -2.70422592849285  1.17840470407041  3.59682729392939
 1 -6.56414729762976  5.72485868806881  0.53397316001600
 1 -8.59958515761576  1.25942020352035 -3.12030741164116
 1 -3.82817988318832 -3.20187330403040  1.83360910301030
 1 -1.73329441544154 -1.33574118231823  2.70529269526953
 1 -2.92611193639364 -2.51534811571157  4.31815176107611
 1 -3.64715131523152 -0.91331344904490  4.59898603450345
 1 -4.60786246204620 -2.07576549454946  3.84737796039604
 1 -2.33790095569557 -3.32927597259726 -0.28843657825783
 1 -1.55696639633963 -1.70091871927193  0.24049489078908
 1 -0.51690608070807 -3.20551052335234  2.41459600070007
 1 -1.45527500610061 -4.61102793909391  1.69052808950895
 1 -1.75717436953695  3.47775246194619  4.13306568766877
 1 -2.81339899389939  4.89604924402440  4.60483614651465
 1 -2.98794872737274  3.08447164126413  5.16691366816682
 1 -5.27510136943694  6.55519350185018  2.19998211401140
 1 -10.03308729122912  3.03846099799980 -3.34551570617062
 1 -9.97264474737474  4.79150668516852 -2.81091408400840
 1 -9.43348910981098  4.37690559055906 -5.29308561916192
 1 -8.09000296629663  4.84753669426943 -4.31123080488049
 1 -8.19554982988299  3.11271558545855 -4.97262137683768
 1 -8.08351493309331 -0.96928018571857 -4.45986595559556
 1 -8.26263589148915 -2.90514757505751 -4.22710205410541
 1 -9.39379262836284 -1.49601623622362 -3.55597988308831
 1 -4.12574435043504 -3.84351017401740 -1.54891982208221
 1  2.59613755755576 -6.20203749684968  1.14660304820482
 1  2.05335866246625 -5.09695822222222 -0.49431486658666
 1  3.36200218261826 -4.34685480778078  2.18264662876288
 1  2.80542799469947 -3.56559811471147 -1.29695234533453
 1  4.03514085208521 -2.28074277487749 -1.58879709720972
 1  4.58851135853585 -3.62389424572457 -1.78913037033703
 1  4.78499236823682 -1.50582612721272  0.49433982508251
 1  5.19307166556656 -2.58161247844785  1.87281116741674
 1  6.66555577557756 -3.61346564606461  0.36426574827483
 1  6.36050488998900 -2.87702991899190 -0.85374506070607
 1  7.29067986958696 -0.66031258555856  0.21188994229423
 1  7.74350326052605 -1.72828107660766  1.52823029542954
 1  8.65770166976698 -1.91755979667967 -1.30732895159516
 1  8.78635080048005 -4.16443530343034 -0.51468393859386
 1  10.60517354675467 -3.32192554725473 -0.06417399929993
 1  9.39046579417942 -3.84656038463846  1.25749671267127
 1  9.29676073697370 -0.11187277687769  0.44544371877188
 1  10.04721367996800 -1.22998131743174  1.44722565986599
 1  11.91588351945195 -1.80832815451545 -0.24566387418742
 1  10.88242418261826 -0.50952258775878 -1.42436328002800
 1  11.66732675077508  1.22108518031803  0.19228201780178
 1  12.33895465416542 -0.08967768446845  1.32710188528853
 1  13.09496023832383  0.52501724452445 -1.73286949174918
 1  14.73306353355336 -0.45066808410841  0.77576267376738
 1  13.86859724622462 -1.73545672457246 -0.50060631473147
 1  15.21983183968397 -0.74767809550955 -0.91359376237624
 1  13.57583682928293  2.71994029322932 -0.22632250955096
 1  14.76948456065607  1.65406182068207  0.71557038433843
 1  16.11608033513351  1.40023548504850 -0.97358517351735
 1  15.16267106260626  2.19102735413541 -2.23311684258426
 1  15.38986044814481  4.39738294599460 -0.86096737673767
 1  15.98115774967497  3.70615657505751  0.37580003880388
 1  18.08310812761276  3.24147765626563 -1.18598298619862
 1  16.33304044084408  4.86152343124312 -3.11289556845685
 1  18.14611700160016  4.10222661586159 -3.43952138573857
 1  16.33931861716172  3.12398730993099 -3.38702925612561
 1  17.82672054605460  5.34283493649365  0.11329049474948
 1  18.77539515031503  5.49971619811981 -1.54353649474948
 1  16.87737030683068  6.04033844394440 -1.19376772887289
 1 -4.96446433103310 -7.69194029342934 -0.21679599559956
 1 -6.11001149244925 -6.77539692109211  0.89767961126113
 1 -4.40326254365437 -6.80663053925393  1.23174604300430
 8 -7.88819171447145  6.87132716411641 -0.43629705810581
 1 -9.13675705950595  6.24085150085009 -1.72900136763676

