%nproc=3
%Mem=2GB
# td=(NStates=1) iop(3/107=0140000000,3/108=0140000000) iop(3/107=0140000000,3/108=0140000000) CAM-B3LYP/6-31G(d,p) 

TD

0 1
12 -5.65202093329333  1.15395542324232  0.27385005380538
 6 -5.00286040784078 -2.16306027072707 -0.34434749984998
 6 -3.44283574347435  1.16010855235524  2.82565400360036
 6 -6.16690311261126  4.58694671777178  0.60596295749575
 6 -7.95974689268927  1.25349403180318 -2.28479257315732
 7 -4.45539262376238 -0.31248717181718  1.10910107710771
 6 -4.29983520392039 -1.56988817021702  0.71209492799280
 6 -3.26702810451045 -2.28277947654765  1.47538312691269
 6 -2.95480963636364 -1.26838750845085  2.65440222682268
 6 -3.65818261826183 -0.06892604520452  2.25168582718272
 6 -3.47478958695870 -1.78682537513751  4.04932279167917
 6 -1.95982082538254 -2.51015500870087  0.69617380348035
 6 -0.95688345124512 -3.49032412031203  1.36476035293529
 6  0.30515638303830 -3.87495236733673  0.59260742184218
 8  0.51480533443344 -3.45512520132013 -0.56789680508051
 8  0.99006068826883 -4.60023516831683  1.34126011451145
 7 -4.95444399539954  2.53545378207821  1.59258594519452
 6 -4.01876596379638  2.35711372737274  2.47258248404840
 6 -3.75859639683968  3.59878996149615  3.18648759315932
 6 -4.46880263596360  4.51517998349835  2.55953183738374
 6 -5.32469183158316  3.88772344884488  1.52527767966797
 6 -2.80006863176318  3.77526461016102  4.23644751525153
 6 -4.47548024802480  5.91482151635164  2.95490092689269
 8 -4.00304279157916  6.53164799499950  3.90316428892889
 7 -6.83884553415341  2.65511344384438 -0.67008967666767
 6 -6.97739993779378  4.00754115961596 -0.36709491259126
 6 -7.90844598479848  4.63595465226523 -1.25356816591659
 6 -8.51454448724872  3.66388551865187 -2.10884543694369
 6 -7.81347515901590  2.43984215831583 -1.73422719251925
 6 -8.23451573027303  6.07882925262526 -1.29135026962696
 6 -9.43431991039104  3.65792673097310 -3.17490003860386
 6 -8.66339532023202  3.85810717381738 -4.56986023272327
 7 -6.47711347864786 -0.17697287748775 -0.99216023642364
 6 -7.47048065476548 -0.03305421102110 -1.95523144574457
 6 -7.54747786438644 -1.40352550525053 -2.69246227082708
 6 -6.65413089678968 -2.19530330363036 -2.09164837473747
 6 -6.03234115761576 -1.45751978147815 -1.07921578627863
 6 -8.35171054575458 -1.66344613321332 -3.93856477587759
 6 -6.12322594969497 -3.47658676467647 -2.01820721462146
 8 -6.48547178777878 -4.49780475057506 -2.67861810751075
 6 -5.03148340184018 -3.60900266696670 -0.96649327012701
 6 -5.38046517411741 -4.68497369896990  0.10430758175818
 8 -5.88642282488249 -4.50272620602060  1.18418553885389
 8 -4.95133509670967 -5.81348523262326 -0.35319949134913
 6 -5.19589293849385 -6.92672626372637  0.53465099989999
 6  2.34909159075908 -5.05881214141414  0.70091807310731
 6  3.35667897799780 -3.96620812011201  1.04158544434443
 6  3.92342144584458 -3.12819264016402  0.14871724672467
 6  3.64365926322632 -3.10280346874687 -1.34120178897890
 6  5.08838304430443 -2.32830709890989  0.70645249614962
 6  6.49041464616462 -2.63557851085109  0.05635596149615
 6  7.72760188688869 -1.87256890269027  0.60088392299230
 6  9.00343895239524 -1.97884386638664 -0.01185789898990
 6  9.60580766086609 -3.36506640914091  0.21039416441644
 6  9.96926236183618 -0.92475309620962  0.40433839723972
 6  11.30783394069407 -0.88190098519852 -0.46492180278028
 6  12.14636225682568  0.30157934843484  0.11258204640464
 6  13.60759015311531  0.46189587648765 -0.64577433463346
 6  14.43549172217222 -0.80305103510351 -0.44436112131213
 6  14.23705364356436  1.74530930313031 -0.30234787718772
 6  15.47067634853485  2.14817675297530 -1.13187029472947
 6  16.14642426212621  3.40982349234923 -0.68989008200820
 6  17.34444883958396  3.91306022152215 -1.25240628842884
 6  17.28875785788579  4.20093565626563 -2.87094941494149
 6  17.89338275747575  5.15391351735173 -0.66501745874587
 1 -2.87393289918992  1.21766863046305  3.89734734593459
 1 -6.18830971387139  5.69835603780378  0.68411817451745
 1 -8.75685088418842  1.24086834833483 -3.12629801070107
 1 -3.57574463966397 -3.20534365106511  1.85187092919292
 1 -1.93250433643364 -1.09420702890289  2.93683584958496
 1 -2.90767009220922 -2.67951453235324  4.30484042994299
 1 -3.52599920002000 -0.99848196589659  4.76537267316732
 1 -4.58564023982398 -2.25214313231323  3.87119034163416
 1 -2.24282144774477 -2.89826287128713 -0.43714144874487
 1 -1.49216991669167 -1.46761538893889  0.47440828212821
 1 -0.72121651175118 -2.90012998529853  2.44239878097810
 1 -1.51388086668667 -4.41989882618262  1.56345538223822
 1 -1.83499215131513  3.71195588228823  3.92212459355936
 1 -3.22496015001500  4.89148878797880  4.70254591749175
 1 -2.88872880538054  2.93330652475248  5.05067204400440
 1 -4.95108896819682  6.46443442594259  2.15203731953195
 1 -9.81740572307231  2.65202235413541 -3.47956911151115
 1 -10.02235971887189  4.55940347484748 -3.02726571917192
 1 -9.60432619351935  3.72266016601660 -5.34897120772077
 1 -8.11935590159016  4.79802174277428 -4.85546522832283
 1 -7.95858613351335  3.11936625052505 -4.85903001770177
 1 -7.88469505110511 -1.14724798249825 -4.81722169116912
 1 -8.29255888378838 -2.86687374767477 -3.95225456935694
 1 -9.41693494259426 -1.20683731833183 -3.83133741884188
 1 -4.22949472547255 -3.69832565556556 -1.55471040114011
 1  2.65936388018802 -5.91553884698470  1.25884427232723
 1  2.35624895149515 -5.32299082548255 -0.42344777987799
 1  3.65283126552655 -4.02297241954195  2.22517088118812
 1  2.40207765966597 -3.34664621952195 -1.40530318041804
 1  4.06555389338934 -2.26737143774377 -1.84971318881888
 1  4.32741524892489 -3.80893274957496 -1.77308876617662
 1  4.90257412641264 -1.09719526412641  0.73246363746375
 1  5.29919227762776 -2.22681699889989  1.74107799409941
 1  6.82117133713371 -3.64363866336634  0.20850017171717
 1  6.33356219571957 -2.61172338833883 -1.01006069226923
 1  7.31208200980098 -0.89641619591959  0.33865261856186
 1  7.55198410861086 -1.93361160966097  1.62045951835184
 1  8.78859475907591 -1.98356639733973 -1.08334655335534
 1  8.72149431483148 -4.03826268616862 -0.12366483668367
 1  10.60651368076808 -3.51364471917192 -0.16798438033803
 1  9.78005475307531 -3.70907663626363  1.37046800980098
 1  9.38835989688969 -0.03333492309231  0.33912308670867
 1  10.36152511111111 -0.93284160346035  1.37595853315332
 1  11.72513444454446 -1.83959128082808 -0.47749705750575
 1  11.05767170737074 -0.68880051555156 -1.36462730643064
 1  11.61819183728373  1.26447951975198 -0.07569477987799
 1  11.99524028272827  0.16255753905391  1.26019519461946
 1  13.43391413371337  0.44848959175918 -1.80289649444944
 1  14.45131535873587 -0.78648166546655  0.61256635413541
 1  13.91371175767577 -1.61931511041104 -0.74572082618262
 1  15.32327218371837 -0.79019234693469 -0.72531493449345
 1  13.41302054765477  2.49689798899890 -0.52298217551755
 1  14.47685529772977  1.63052946744675  0.87367619491949
 1  16.44210293739374  1.36720218171817 -1.03406122112211
 1  15.29727452295229  2.13577182858286 -2.21617514841484
 1  15.34872633473347  4.08349155685569 -0.67745902590259
 1  16.34825445934593  3.33856981638164  0.50244270307031
 1  18.27851766856686  3.11384489298930 -1.24402879077908
 1  16.27760489728973  4.76555383428343 -2.92869714861486
 1  18.33229561946195  4.59925631883188 -3.39862729632963
 1  17.28910359565957  3.07975288648865 -3.36658721192119
 1  18.35426330033003  5.19685033803380  0.38221738743874
 1  18.79989760056005  5.53292951945194 -1.13772591369137
 1  17.22299486928693  6.02784719481948 -0.66517486958696
 1 -5.08235612021202 -7.93663476287629 -0.00964528052805
 1 -6.29808029932993 -6.99834921632163  0.68174801810181
 1 -4.70755297269727 -7.03568344454445  1.50494336273627
 8 -7.82250514581458  6.96210624202420 -0.52576600500050
 1 -8.84362774657466  6.33045046074607 -2.23301176867687

