%nproc=3
%Mem=2GB
# td=(NStates=1) iop(3/107=0140000000,3/108=0140000000) iop(3/107=0140000000,3/108=0140000000) CAM-B3LYP/6-31G(d,p) 

TD

0 1
12 -5.62770850205021  1.22485251295130  0.22466513531353
 6 -4.99084920672067 -2.09007297199720 -0.27119018411841
 6 -3.58434989488949  1.16095863736374  2.88324976317632
 6 -6.25152157445745  4.50523854695470  0.81442380358036
 6 -7.97247816581658  1.10189887228723 -2.39872396629663
 7 -4.37054413891389 -0.24750067316732  1.04096426342634
 6 -4.23763898429843 -1.56158734013401  0.71486520502050
 6 -3.18993039473947 -2.24154535313531  1.54660024862486
 6 -2.94689884528453 -1.22630330003000  2.65106189278928
 6 -3.63515031503150  0.01123197059706  2.20006066466647
 6 -3.48066017401740 -1.75450214281428  4.10737859725973
 6 -1.89661450475048 -2.57459145234523  0.64824901100110
 6 -0.97773553645365 -3.48125321322132  1.37224110101010
 6  0.27036290369037 -3.82735760786079  0.63288144924492
 8  0.59126298019802 -3.26660634943494 -0.40649066446645
 8  1.15225690789079 -4.66795193999400  1.24082007050705
 7 -4.97521607260726  2.65811604830483  1.51563825042504
 6 -4.05636972417242  2.46142415841584  2.53281850765076
 6 -3.90145068226823  3.67109719221922  3.30021896629663
 6 -4.58470422612261  4.58481694719472  2.58592447664766
 6 -5.28739810221022  3.97783245974597  1.49962511441144
 6 -3.00097872277228  3.82206929062906  4.55971984248425
 6 -4.72020472047205  6.04917495169517  2.95045048184818
 8 -4.11061354865487  6.67472230243024  3.77261123362336
 7 -6.91389303890389  2.55973390589059 -0.61593426112611
 6 -7.10759295709571  3.89280968646865 -0.25817402050205
 6 -7.88101324152415  4.53485454225423 -1.26168897799780
 6 -8.45177821062106  3.58015714581458 -2.04426897929793
 6 -7.84312812431243  2.35123329742974 -1.63559732953295
 6 -8.32547482618262  5.91461283098310 -1.17166830143014
 6 -9.39783626202620  3.72791372967297 -3.19871241984198
 6 -8.71034001470147  4.05695705880588 -4.58717196389639
 7 -6.40380614791479 -0.16756193639364 -1.00657167756776
 6 -7.31104471117112 -0.07233813941394 -2.10066598919892
 6 -7.34709782638264 -1.35763091579158 -2.82465549014902
 6 -6.55929141284128 -2.20269404270427 -2.18413762366237
 6 -5.92329025252525 -1.35681971147115 -1.04154201890189
 6 -8.23319869456946 -1.51706149474947 -3.98073899329933
 6 -5.99938356545655 -3.52406151215122 -2.10625601950195
 8 -6.29511275187519 -4.45070004010401 -2.81941218691869
 6 -4.99833008650865 -3.60776254295430 -0.83455007580758
 6 -5.45603273087309 -4.70333553515352  0.15305245624562
 8 -5.78294247684768 -4.45959189258926  1.28597571787179
 8 -5.19767973117312 -5.92036592069207 -0.45377954935494
 6 -5.65295864506451 -7.01080467156716  0.43607114191419
 6  2.40935761736174 -5.17130339053905  0.70042802410241
 6  3.57699100920092 -4.15950745004500  1.00246153195320
 6  3.99323842754275 -3.23727354825483  0.11909428442844
 6  3.68776367366737 -3.18059124752475 -1.36823449224922
 6  5.19456366236624 -2.36548081628163  0.60458230913091
 6  6.55689129382938 -2.59066401940194 -0.15438511261126
 6  7.66078520522052 -1.74464611041104  0.42456629122912
 6  9.06691530003000 -2.04633061506151 -0.06336304950495
 6  9.59002608270827 -3.40254015651565  0.34122724772477
 6  9.94618005360536 -0.90655127602760  0.44566252965297
 6  11.34227738503850 -0.80758355345535 -0.19827513811381
 6  12.20465808640864  0.41206039653965  0.05559634783478
 6  13.54982437653765  0.32947263416342 -0.62353211041104
 6  14.43956212921292 -0.85015574557456 -0.21567825302530
 6  14.29060899909991  1.78922369456946 -0.22932057445745
 6  15.57471675257526  2.11955389068907 -0.92543965166517
 6  16.16930655035504  3.48860137013701 -0.52962405540554
 6  17.37782217691769  3.82077099259926 -1.45237628542854
 6  16.88181716381638  3.84089965266527 -2.91380370037004
 6  17.98366178537854  5.16690481648165 -1.01926288328833
 1 -2.64543004890489  1.07341420502050  3.55095270647065
 1 -6.45210609350935  5.57477367956796  0.81393115581558
 1 -8.59668486758676  1.28793305480548 -3.20309569046905
 1 -3.60882794799480 -3.32869598629863  1.74527026912691
 1 -1.93874496049605 -1.10942855105511  2.69655182118212
 1 -2.75960528572857 -2.63190977187719  4.50402034793479
 1 -3.31203780388039 -0.83702582028203  4.73748988488849
 1 -4.56749842564256 -2.04903282128213  4.13942716531653
 1 -2.22699986558656 -2.97560060506051 -0.31433916851685
 1 -1.39313001270127 -1.64133276067607  0.13308414971497
 1 -0.70352474257426 -2.97001697399740  2.30318485958596
 1 -1.52775225382538 -4.41987882418242  1.78583762046205
 1 -1.95456410851085  3.59009369606961  4.27474985608561
 1 -3.21415906990699  4.95579521862186  4.79709537243724
 1 -3.32179211171117  3.08728192229223  5.44029100590059
 1 -5.53245710501050  6.60561854435443  2.21048316411641
 1 -10.03281726422642  2.67059421132113 -3.34847600220022
 1 -10.19263674657466  4.52842037653765 -2.96256924952495
 1 -9.54138989988999  4.04501240124012 -5.27635394599460
 1 -8.29803376937694  5.04538647924792 -4.52830251205121
 1 -8.08480875577558  3.18931324522452 -4.81313542824282
 1 -8.08110469206921 -0.93652691039104 -4.79779974897490
 1 -8.22735236313631 -2.51056811711171 -4.52924226812681
 1 -9.31741499059906 -1.49511614621462 -3.69662394749475
 1 -3.90808258425843 -3.90741656465647 -1.26348127822782
 1  2.40850879467947 -6.04826211931193  1.22863125102510
 1  2.35007833443344 -5.23766229262926 -0.33179861496150
 1  4.05532151455145 -3.92063218551855  2.04716308040804
 1  2.64925237713771 -3.61257281218122 -1.62792544264426
 1  3.66714405240524 -2.10624532513251 -1.94481269876988
 1  4.37951045844584 -3.74420627692769 -1.87767922522252
 1  5.03241711071107 -1.31252679727973  0.25877626872687
 1  5.29812217061706 -2.38392270947095  1.68542242854285
 1  6.73312253225323 -3.71253555305531 -0.20255093339334
 1  6.47823666316632 -2.52286450245024 -1.25954564076408
 1  7.32141294289429 -0.48426498079808  0.03212196549655
 1  7.59301821202120 -1.84389263776378  1.67185465786579
 1  9.05105100470047 -1.91878991969197 -1.12022024072407
 1  8.88849101450145 -4.17889674957496  0.23484101390139
 1  10.42764579397940 -3.81291464616462 -0.25194277617762
 1  9.57123387098710 -3.36427215581558  1.47623858685869
 1  9.49858091899190  0.09193760416042  0.09560873527353
 1  9.89235819441944 -1.03971229052905  1.58311924922492
 1  11.93684561566157 -1.61195851755176  0.26676736893689
 1  11.34615055525552 -0.92672430793079 -1.27978882258226
 1  11.75532555065506  1.26132920472047 -0.37770498089809
 1  12.28520927962796  0.41856313961396  1.14844401950195
 1  13.50999174147415  0.49109385218522 -1.65286149094909
 1  14.70376060326033 -0.83391640894089  0.80574567206721
 1  13.83517390389039 -1.77355053395340 -0.63541979607961
 1  15.32011186768677 -0.78468179587959 -0.77268967196720
 1  13.61307055265527  2.61913021222122 -0.62225210251025
 1  14.54511212341234  1.78673508800880  0.86019484678468
 1  16.41345007210721  1.41052651415142 -0.67911572657266
 1  15.46619141464146  2.12572082348235 -2.03696722762276
 1  15.60190165226523  4.28600180788079 -0.68582986298630
 1  16.43235286918692  3.44361032043204  0.51955441424142
 1  18.16132594939494  3.02540604910491 -1.25248963686369
 1  16.05860299709971  4.57684496339634 -3.26984126302630
 1  17.79123151305130  4.24239063226323 -3.73834126772677
 1  16.57529221452145  2.85255016621662 -3.13870442364236
 1  18.31737961196119  5.10695134813481  0.02036120182018
 1  18.69554716551655  5.30416664316432 -1.94692683378338
 1  17.18625119491949  6.04623903400340 -1.09532788488849
 1 -5.40420830543054 -7.95180628002800  0.03259894389439
 1 -6.77100759205921 -6.82100148154816  0.60760060336034
 1 -5.05805802320232 -6.91387126332633  1.28730159855986
 8 -7.90562345764576  6.78852888428843 -0.55416884528453
 1 -9.25049843364337  6.03613102880288 -1.87516598409841

