%nproc=3
%Mem=2GB
# td=(NStates=1) iop(3/107=0140000000,3/108=0140000000) iop(3/107=0140000000,3/108=0140000000) CAM-B3LYP/6-31G(d,p) 

TD

0 1
12 -5.61632736393639  1.33122315001500  0.17647031583158
 6 -4.97669779157916 -2.08933289798980 -0.27391045614561
 6 -3.34447590749075  1.20415295679568  2.72605404360436
 6 -6.14794121642164  4.60728875197520  0.60483284448445
 6 -7.95464638263826  1.16850553295330 -2.34027812171217
 7 -4.33831091559156 -0.20236615971597  1.02973314031403
 6 -4.24803002340234 -1.63937511891189  0.62501622012201
 6 -3.20948234993499 -2.32355355395540  1.40909649824982
 6 -2.88486264166417 -1.41716238593859  2.64725151175118
 6 -3.42715951595159 -0.09327848044804  2.06813747234723
 6 -3.55216732473247 -1.72015870847085  3.98180604000400
 6 -1.90044488778878 -2.74307830103010  0.60501468756876
 6 -0.91289905280528 -3.52910799869987  1.42349622652265
 6  0.26969283668367 -3.99752462456246  0.58605676677668
 8  0.57737159105911 -3.48879856865687 -0.54626464186419
 8  1.07395907810781 -4.82900804560456  1.23292928142814
 7 -4.87260581158116  2.71984222092209  1.47936462306231
 6 -3.96421050825083  2.41147916391639  2.49402462826283
 6 -3.74046458365837  3.63637371987199  3.24014295869587
 6 -4.55951170687069  4.60440890639064  2.65847173137314
 6 -5.27080644304430  4.01285596209621  1.55426057795780
 6 -2.87108573347335  3.80713779747975  4.40199406990699
 6 -4.63392609260926  6.07051708590859  2.97420285708571
 8 -4.04009649694969  6.73336816701670  3.75696966946695
 7 -6.89859150875087  2.61936986948695 -0.75806847454745
 6 -6.91615381318132  3.94037444294429 -0.34333253635364
 6 -8.00394553475348  4.62879393619362 -1.24778758785879
 6 -8.44535756855686  3.60916004610461 -2.06027057945795
 6 -7.77110092159216  2.34052222632263 -1.69178294809481
 6 -8.27902018071807  6.03687505720572 -1.20165129972997
 6 -9.43285976437644  3.89777071537154 -3.28310085868587
 6 -8.81858083878388  3.86503786688669 -4.67568081478148
 7 -6.31055682298230 -0.06593177337734 -1.07506852725273
 6 -7.31278488518852 -0.03570447604760 -2.05929185178518
 6 -7.44069718631863 -1.27610276297630 -2.69584260886089
 6 -6.66910239393939 -2.15088886218622 -2.01400060996100
 6 -5.94950287378738 -1.39488351785178 -1.08101596629663
 6 -8.51412678737874 -1.56965675427543 -3.77606852625263
 6 -6.20226385348535 -3.47145625162516 -1.97469286318632
 8 -6.50933417401740 -4.45878084818482 -2.64553479917992
 6 -5.02327258075808 -3.52736450315032 -0.91376799759976
 6 -5.25625275287529 -4.65680088168817  0.12651980298030
 8 -5.56699088168817 -4.48294422782278  1.22833995429543
 8 -4.95811577477748 -5.82649653375338 -0.31400557195720
 6 -5.24477782698270 -7.01884547564756  0.54289182398240
 6  2.36425310691069 -5.13953021322132  0.62566054735474
 6  3.40771408150815 -4.17296879617962  1.00835212101210
 6  3.97639674337434 -3.23357317821782  0.18056043104310
 6  3.64253915121512 -3.06763995239524 -1.19724739353935
 6  5.16665087108711 -2.51545581378138  0.60245209610961
 6  6.52367797249725 -2.91599655265527  0.01386171207121
 6  7.53386251295130 -1.89147079287929  0.55883971857186
 6  9.03278188668867 -2.06498248024802  0.00554384118412
 6  9.51177825792579 -3.51286118861886  0.12713583858386
 6  9.98160359595960 -0.95729635053505  0.48809677307731
 6  11.30646380368037 -0.98143093819382 -0.21649696029603
 6  12.20726834743474  0.31136032653265  0.26005679387939
 6  13.50774016811681  0.37001668856886 -0.64187394459446
 6  14.40979915291529 -0.70816154615462 -0.25036172137214
 6  14.10782072027203  1.69422419461946 -0.20473811621162
 6  15.27794707560756  2.15997793309331 -1.05323243094309
 6  15.86946656635664  3.56122863286329 -0.65225631863186
 6  17.20596499119912  3.98037695319532 -1.41618266606661
 6  17.12011099319932  4.06813237593759 -2.85823814381438
 6  17.69778319751975  5.34897302330233 -0.81786274327433
 1 -2.91068657455746  1.10217708130813  3.80500811201120
 1 -6.26259714261426  5.65506170837084  0.70432019471947
 1 -8.88424362346235  1.17623188468847 -3.05099047994800
 1 -3.66148321352135 -3.17865098179818  1.93572931503150
 1 -1.70687177317732 -1.13454106230623  2.80212237823782
 1 -3.15942526772677 -2.71276785768577  4.42850279617962
 1 -3.58833543364336 -0.90851296899690  4.67310344624462
 1 -4.68076975277528 -1.81413933193319  3.56574979757976
 1 -2.14008117371737 -3.39040208520852 -0.20612834743474
 1 -1.26715741544154 -1.82646127352735  0.35430627192719
 1 -0.42516690679068 -3.11256122842284  2.36825136623662
 1 -1.52447192579258 -4.37849468576858  2.07970700740074
 1 -1.77784643674367  3.62057674437444  4.16280866196620
 1 -3.10715836983698  4.94536417551755  4.89550521342134
 1 -3.05144507700770  3.12807600170017  5.06945392219222
 1 -5.32024588388839  6.69589757225723  2.17077919371937
 1 -10.10901488398840  3.04904205610561 -3.25427658225823
 1 -10.14375185808581  4.67850538503850 -3.25268826142614
 1 -9.57660342124212  3.90964886488649 -5.42502881348135
 1 -8.22066603260326  4.86300824142414 -4.70470015181518
 1 -8.21367164206421  3.14923923782378 -4.70255437013701
 1 -8.29385596719672 -0.97991124882488 -4.68546851585158
 1 -8.53273290119012 -2.57909496979698 -4.10853019691969
 1 -9.38090133923392 -1.18636527112711 -3.29882416751675
 1 -4.30509228522852 -3.87535335833583 -1.74239917001700
 1  2.70886883068307 -6.17508480158016  0.79455784368437
 1  2.16308963556356 -5.05214374077408 -0.48868430353035
 1  3.85784176657666 -4.15583570587059  2.05625398949895
 1  2.58942639453945 -3.19540109500950 -1.50500315041504
 1  4.00027736573657 -1.93043774437444 -1.43769198669867
 1  4.38902140954095 -3.70531238753875 -1.79129058635864
 1  4.78519238823882 -1.33939948454846  0.27364775587559
 1  5.11160351875187 -2.13869818701870  1.84317820412041
 1  6.79384860486049 -3.94451875137514  0.18651797349735
 1  6.49309814931493 -2.91753396939694 -1.16167585378538
 1  7.18010881248125 -0.85328188248825  0.28910766406641
 1  7.60631954215422 -2.14669291779178  1.72868034043404
 1  9.09207510711071 -2.00846888758876 -1.09141736043604
 1  8.97647981338134 -4.21637049694970 -0.27673014321432
 1  10.45414844424442 -3.67675102980298 -0.29401698359836
 1  9.60370711831183 -3.59862559115912  1.18771973497350
 1  9.53622468336834  0.04557296769677  0.27682685708571
 1  10.06106506510651 -1.06147446674667  1.47748868616862
 1  11.95052698379838 -1.82838015971597 -0.15731503930393
 1  10.93173911411141 -0.89966160166017 -1.36736758045805
 1  11.50108012611261  1.01713478527853  0.00037282688269
 1  12.32436319501950  0.24908619191919  1.34271344644464
 1  13.36925766806680  0.41064580738074 -1.61425763056306
 1  14.87508773597360 -0.44706772407241  0.71979707720772
 1  13.85000538703870 -1.66280945984598 -0.41778803290329
 1  15.30393024952495 -0.49968329602960 -0.82745514851485
 1  13.21701094669467  2.47441574077408 -0.29525940324032
 1  14.41582919511951  1.79641605610561  0.90130895819582
 1  16.22943167026703  1.41612707420742 -0.96612442744274
 1  15.10043483898390  2.17534578597860 -2.12541607250725
 1  15.32038350045004  4.54433764146415 -0.99113039303930
 1  16.22186182008201  3.59859581898190  0.44556701550155
 1  17.80001981878188  3.11997550605060 -1.20490487838784
 1  16.24824196099610  4.66216349524953 -3.38402268116812
 1  18.08534092399240  4.56902329552955 -3.20569800340034
 1  17.11394607990799  2.90047495869587 -3.16972752595260
 1  17.89477735173517  5.33043369636964  0.17848701440144
 1  18.68423603440344  5.72527875437544 -1.33040518161816
 1  16.85434800460046  6.18807321742174 -1.06291464356436
 1 -4.96998488308831 -7.84600569997000 -0.16279059505951
 1 -6.32684317561756 -7.09935931733173  0.81243108640864
 1 -4.72524474187419 -6.98624850105011  1.50744361276128
 8 -7.82644553985399  6.83227325872587 -0.36268969736974
 1 -9.02932631643164  6.24317173287329 -1.97678614611461

