%nproc=3
%Mem=2GB
# td=(NStates=1) iop(3/107=0140000000,3/108=0140000000) iop(3/107=0140000000,3/108=0140000000) CAM-B3LYP/6-31G(d,p) 

TD

0 1
12 -5.71895762696270  1.19686971467147  0.26099876867687
 6 -5.05493561536154 -2.13442740744074 -0.32968603370337
 6 -3.50926238613861  1.19444198569857  2.80995243344334
 6 -6.46345276757676  4.56942496559656  0.75761812301230
 6 -8.06746766476648  1.21060974337434 -2.31694578847885
 7 -4.32265935043504 -0.27537346044604  1.01734190119012
 6 -4.28135335573557 -1.60522170357036  0.69846356485649
 6 -3.21104250595060 -2.32854405300530  1.52311790039004
 6 -2.98047220262026 -1.34786545624562  2.65222200880088
 6 -3.66152295229523 -0.07937709030903  2.19154981358136
 6 -3.52138424642464 -1.77230392299230  3.98108596799680
 6 -1.94579942324232 -2.53403739693969  0.76987117321732
 6 -0.95081284418442 -3.38176326422642  1.48871274817482
 6  0.24957082448245 -3.77646251835183  0.69631779287929
 8  0.44272812671267 -3.44567425622562 -0.48382839823982
 8  1.05216689888989 -4.55477062186219  1.36644263276328
 7 -4.96185473647365  2.65633587028703  1.51057774437444
 6 -4.05941002820282  2.35227324332433  2.59884511031103
 6 -3.84091462866287  3.59565964846485  3.16510545494549
 6 -4.65141089678968  4.60718918441844  2.59118500270027
 6 -5.40665002740274  3.96170084658466  1.56143129502950
 6 -2.80269889478948  3.86814389808981  4.26695056555656
 6 -4.89940264026403  5.96380641484148  3.08093353015302
 8 -4.28421090839084  6.62434726492649  3.88741271377138
 7 -6.86989863946395  2.58351628412841 -0.70074274197420
 6 -6.93255545334533  3.89234964046405 -0.37965616871687
 6 -8.01127626782678  4.62500355715571 -1.23966677577758
 6 -8.39060209300930  3.61965109520952 -2.14002855525553
 6 -7.78994280578058  2.42419059315932 -1.72485625542554
 6 -8.36354863356336  6.04156552625262 -1.25393652825283
 6 -9.34534101250125  3.80859179747975 -3.25393794239424
 6 -8.83651263196320  4.00269163226323 -4.70336358305831
 7 -6.41049681698170 -0.11201638183818 -1.04582560296030
 6 -7.46247985468547 -0.02292319791979 -2.06066198879888
 6 -7.50458357495750 -1.30161531423142 -2.74886791139114
 6 -6.58380386408641 -2.11765553885389 -2.13234244414441
 6 -5.91547947144714 -1.40089411891189 -1.09593745844584
 6 -8.48521389608961 -1.69213900250025 -3.77105802520252
 6 -6.11692531963196 -3.56267537353735 -2.07679307320732
 8 -6.48505174577458 -4.52658762886289 -2.72416266196620
 6 -5.01103135663566 -3.57485925262526 -0.88024464526453
 6 -5.18609573717372 -4.72832803440344  0.03929108010801
 8 -5.72238642124212 -4.55127106050605  1.19118623892389
 8 -4.92123208640864 -5.91752563666367 -0.35655982738274
 6 -5.28940228942894 -7.00895448654865  0.49674720952095
 6  2.34516119771977 -4.95261152135213  0.79967794909491
 6  3.42924623472347 -3.91802330163016  1.08696998279828
 6  4.00362946664666 -3.11479130003000  0.22682505750575
 6  3.82991788908891 -3.08960214861486 -1.28475614441444
 6  5.26161036703670 -2.21551581978198  0.60290214111411
 6  6.55024062876288 -2.70425537853785 -0.04765443954395
 6  7.76915604230423 -1.83779542534253  0.43263709830983
 6  9.05006361486149 -1.99616559855986 -0.18248496169617
 6  9.51463854395439 -3.51981188368837  0.06177930293029
 6  10.05177061266127 -0.95597621852185  0.35008297169717
 6  11.37478063536354 -0.81379417451745 -0.39072438303830
 6  12.28312593319332  0.23410260076008  0.09477026522652
 6  13.53277267136714  0.44722440934093 -0.67970772797280
 6  14.61033920692069 -0.71728245824582 -0.34496118131813
 6  14.26609654785478  1.73086785898590 -0.18679632203220
 6  15.51147042794279  2.09815175047505 -1.10900800850085
 6  16.13504312401240  3.46583909390939 -0.69194028702870
 6  17.44054844954496  3.81496041154115 -1.32588363616362
 6  17.40765974807481  3.84506006870687 -2.86625894589459
 6  18.10350376957696  5.02591071707171 -0.66604756175618
 1 -2.70489599549955  1.08009487308731  3.59015662686269
 1 -6.74587547044704  5.60411661386139  0.92543230593059
 1 -8.82714791389139  1.13614787628763 -3.23136851775178
 1 -3.57838490369037 -3.34722783948395  1.65689143124313
 1 -1.88989007500750 -1.23037064526453  2.87252941894190
 1 -2.91343066826683 -2.58983556445645  4.19547949384938
 1 -3.43081968206821 -1.10484260196020  4.91122725862586
 1 -4.68314999079908 -2.02760067806781  3.92343556615662
 1 -2.18075524112411 -3.07655070007001 -0.29760749534954
 1 -1.50588128782878 -1.50765939333933  0.56621746304630
 1 -0.71465585568557 -2.70784075637564  2.37914245534553
 1 -1.36179565816582 -4.43692052835284  1.79048808550855
 1 -1.93892254435444  3.53571825852585  3.89806218731873
 1 -2.66645429942994  4.91699133823382  4.68039370227023
 1 -3.05471540404040  3.22758595269527  5.13819079587959
 1 -5.78996285558556  6.40082806530653  2.65825794159416
 1 -9.85263924642464  2.88343549544954 -3.08002915751575
 1 -10.08545602850285  4.62102963746375 -2.99143213581358
 1 -9.90952671357136  4.39120702070207 -5.35911222182218
 1 -8.29766373237324  5.00318225882588 -4.75656533833383
 1 -8.38141841674167  3.07756207010701 -5.12171628632863
 1 -8.23924050565057 -0.91449470717072 -4.50423039203920
 1 -8.33400302820282 -2.71896895719572 -4.32943228712871
 1 -9.54138738783878 -1.56515314991499 -3.33294757985799
 1 -3.97537931393139 -3.75891171417142 -1.30693562366237
 1  2.46951489528953 -5.85244253735373  1.32075046294629
 1  2.13823715031503 -5.20575910231023 -0.30005544064406
 1  3.67898388078808 -3.72455257755776  2.18692705680568
 1  2.83495094699470 -3.65712726762676 -1.65752840294029
 1  3.72109944794479 -1.92279698029803 -1.38620683818382
 1  4.75513802120212 -3.46920877717772 -1.79662111941194
 1  4.97424129312931 -1.18251379597960  0.43594398549855
 1  5.14951731013101 -2.23116743394339  1.69331321762176
 1  6.78987820782078 -3.73151745124512  0.33269259095910
 1  6.66327516701670 -2.72536475247525 -1.09724941114111
 1  7.24663546514651 -0.92086864116412  0.39081783508351
 1  7.71202011221122 -1.95029327782778  1.45759323172317
 1  8.90435633523352 -1.85917395809581 -1.35295351405141
 1  8.83039520492049 -4.24465332523252 -0.17127959815982
 1  10.56066909630963 -3.66078943364336 -0.55187276917692
 1  9.70953770137014 -3.53643937253725  1.10748171117112
 1  9.42419348024802 -0.01617320692069  0.42751192559256
 1  10.28524748334834 -1.14926324562456  1.38228916621662
 1  11.83552548364837 -1.85643296499650 -0.12230153795380
 1  11.17177311751175 -0.67229886538654 -1.55496634033403
 1  11.63843386148615  1.23171624342434 -0.04851206160616
 1  12.61077183588359 -0.04828354505451  1.19510868596860
 1  13.42575331763176  0.42197694049405 -1.77830403520352
 1  14.58287851505150 -0.88069108640864  0.61149624712471
 1  14.33266365286529 -1.63690686958696 -0.87670392449245
 1  15.64866472297230 -0.35450877857786 -0.91687409040904
 1  13.42775202080208  2.48854715391539 -0.11573145044504
 1  14.44612222442244  1.63757017151715  0.73159198649865
 1  16.33048177527753  1.33688915041504 -1.14077189218922
 1  15.06182097759776  2.24634288568857 -2.02789632053205
 1  15.36330779287929  4.24543775147515 -0.83566484648465
 1  16.34959459335933  3.34675063446345  0.35603806260626
 1  18.17660747754775  2.99277278577858 -1.12645703360336
 1  16.62995013181318  4.65294257315732 -3.12564684358436
 1  18.42981537143714  4.07012340554055 -3.30998843244324
 1  17.07600228552855  2.97332224342434 -3.41767232043204
 1  18.28320619461946  4.83955460846084  0.53332249794979
 1  19.01575918671867  5.46473269976998 -0.93624576567657
 1  17.30123269306931  5.70082449254926 -0.82105045714571
 1 -5.03807169176918 -7.83185428482848 -0.10374469046905
 1 -6.26940743204320 -7.20551993339334  0.85798564186419
 1 -4.70883310071007 -7.04243411961196  1.38020088848885
 8 -7.88688158345835  6.85758578997900 -0.46521995039504
 1 -9.20672405620562  6.30869828552855 -1.97374584208421

