%nproc=3
%Mem=2GB
# td=(NStates=1) iop(3/107=0140000000,3/108=0140000000) iop(3/107=0140000000,3/108=0140000000) CAM-B3LYP/6-31G(d,p) 

TD

0 1
12 -5.69214494569457  1.17726775447545  0.21788445724572
 6 -4.92479260106011 -2.13972793749375 -0.38676174127413
 6 -3.50335179507951  1.08805134663466  2.79747118531853
 6 -6.11026744904490  4.66024404750475  0.64004636583658
 6 -7.97976889488949  1.18942762516252 -2.36323041694169
 7 -4.50368745324532 -0.23108903200320  1.14920508750875
 6 -4.32559778017802 -1.60845202660266  0.72907662616262
 6 -3.28090949264926 -2.41655285388539  1.53609919851985
 6 -3.01958611401140 -1.33871454115412  2.69703649024903
 6 -3.66355315531553 -0.18366751935194  2.11349200780078
 6 -3.39481158915892 -1.88287498009801  4.09950781018102
 6 -1.93443828712871 -2.67216120932093  0.65265945204520
 6 -1.01639940284028 -3.63994908280828  1.45648952585259
 6  0.26945281268127 -3.98368324042404  0.69777793889389
 8  0.47547140104010 -3.53339302810281 -0.40284029942994
 8  0.98092977517752 -4.82817796259626  1.41256724522452
 7 -4.96019457045705  2.56090632733273  1.51003769036904
 6 -4.07434152135214  2.41978999499950  2.51690691649165
 6 -3.71182171937194  3.61789187168717  3.16720566496650
 6 -4.51702745844584  4.53544200970097  2.56991287548755
 6 -5.16162552495250  3.97344202070207  1.49533468536854
 6 -2.75518414331433  3.81871895559556  4.38591246174617
 6 -4.46235893589359  6.00593062726273  2.83986942374237
 8 -3.93048553585359  6.60670550075008  3.82159613211321
 7 -6.89427107670767  2.62476040854085 -0.72720538823882
 6 -6.86784898269827  4.06317672317232 -0.40970917401740
 6 -7.85630077027703  4.61166222302230 -1.26437924702470
 6 -8.34984801760176  3.70877000710071 -2.10228478087809
 6 -7.64172798429843  2.45297347144714 -1.81844561436144
 6 -8.41211349004901  5.98409977967797 -1.11128226282628
 6 -9.39301577997800  3.88181912021202 -3.21531408000800
 6 -8.79480846154616  3.89639100220022 -4.59902314901490
 7 -6.26761252855285 -0.15142032223222 -1.13847486788679
 6 -7.34313792049205 -0.01760266586659 -2.18747467006701
 6 -7.56997011361136 -1.29884503720372 -2.67070009460946
 6 -6.60083556725673 -2.11988576187619 -2.10427963786379
 6 -5.82919084258426 -1.39635366486649 -1.21819968466847
 6 -8.49940531523152 -1.46704649324933 -3.82361328072807
 6 -6.13725735283528 -3.51357046304631 -2.03433882778278
 8 -6.47764100470047 -4.48025299539954 -2.75096534223422
 6 -5.00550080358036 -3.56091785848585 -0.88410503130313
 6 -5.40344747234723 -4.60805600720072  0.22021917291729
 8 -5.67116129872987 -4.40590652405240  1.36379349964996
 8 -5.23805376857686 -5.86725060916092 -0.45903007440744
 6 -5.44361771097110 -6.98433202430243  0.41299883468347
 6  2.23226990859086 -5.11316757695770  0.68199618091809
 6  3.34545785588559 -4.19735123442344  1.00636192199220
 6  4.07104620832083 -3.44887470837084  0.16208858385839
 6  3.66637153445344 -3.07123031143114 -1.19683735253525
 6  5.17701190719072 -2.55592986118612  0.76301815271527
 6  6.61528713341334 -2.88030298329833  0.11295162106211
 6  7.63657278397840 -1.79160080588059  0.46776061066107
 6  9.02657126562656 -1.91353733573357 -0.18100481368137
 6  9.63096017611761 -3.21006090859086  0.29996312131213
 6  9.87763319891989 -0.80616123702370  0.24549251265127
 6  11.34902806010601 -0.71700449554955 -0.37674298489849
 6  12.09775739633963  0.53779296979698  0.08038882708271
 6  13.58250764486449  0.49436912381238 -0.55582533973397
 6  14.48282645564557 -0.74028475847585 -0.31329801500150
 6  14.26798673687369  1.84774954715472 -0.11825946834683
 6  15.50782006290629  2.13636557185719 -0.95091219891989
 6  16.02200181988199  3.54712722272227 -0.65881697469747
 6  17.35291968666867  3.90179909540954 -1.40666171397140
 6  17.02014099619962  4.05477103980398 -2.97659997999800
 6  17.86775019421942  5.19775790179018 -0.78061901890189
 1 -2.76940244614461  1.11095795939594  3.49481709290929
 1 -6.43634451735174  5.88562476467647  0.70876063876388
 1 -8.76091129022902  1.31171543304330 -3.16801218211821
 1 -3.60123718891889 -3.23347646434644  2.05784152625263
 1 -1.92164325032503 -1.04366197439744  2.64913707970797
 1 -3.04623394859486 -2.85068164906491  4.37293723962396
 1 -3.18150475057506 -1.21997411511151  4.95560169606961
 1 -4.37068874467447 -1.94826274427443  4.14027725032503
 1 -2.29015618121812 -3.06469951495149 -0.21755949054906
 1 -1.42634333403340 -1.76398502590259  0.29915075637564
 1 -0.75501989208921 -3.32736270857086  2.53626816791679
 1 -1.37834731333133 -4.74827166346635  1.54090312701270
 1 -1.63957260936094  3.45301998869887  4.26015839693969
 1 -2.50602825682568  4.88312795189519  4.55922158505851
 1 -2.96542647514752  3.33202639673967  5.31801877867787
 1 -4.96268012731273  6.52624060656066  2.04070618641864
 1 -10.17465144764476  3.11736888878888 -3.21060221482148
 1 -10.18227571047105  4.79943747824782 -3.07368036063606
 1 -9.57380314121412  3.86913481348135 -5.39410572117212
 1 -8.11338530453045  4.64123606420642 -4.71685136693669
 1 -8.07908818371837  2.93969828372837 -4.66833094779478
 1 -8.30414699629963 -0.83046630433043 -4.73482345134514
 1 -8.37829745764576 -2.61417847814782 -4.22156150005000
 1 -9.53824707380738 -1.19725636023602 -3.62610689578958
 1 -4.27466924292429 -4.04542036503650 -1.50604553465347
 1  2.49947789158916 -6.11767906100610  1.08236662456246
 1  2.00186351295130 -5.11019954635464 -0.46742217731773
 1  3.76432241464146 -4.31321144344434  1.99142750685068
 1  2.79870732263226 -3.58151970687069 -1.37232988308831
 1  3.66828416641664 -2.12367706830683 -1.52471068856886
 1  4.63137564496450 -3.26766862316232 -1.92131358865887
 1  4.98050191919192 -1.55303084768477  0.53860425152515
 1  5.19236159455946 -2.67138145534553  1.91786567286729
 1  7.04825404540454 -3.92166646614661  0.35310463216322
 1  6.33715255475547 -2.76389860586059 -0.82741242744274
 1  7.08368917051705 -0.94173072737274  0.25646439973997
 1  7.77897680788079 -1.75136338483848  1.59945741814181
 1  8.85908180778078 -1.88260630133013 -1.21620983968397
 1  9.10805297069707 -4.11837069696970 -0.19182165236524
 1  10.76282931233123 -3.31621497619762 -0.02077965986599
 1  10.01039778737874 -3.43682941154115  1.40020098309831
 1  9.51606266716672  0.21142955335534  0.02040121452145
 1  9.99046800540054 -0.92644096339634  1.35124606190619
 1  11.90088201930193 -1.64779210091009 -0.13434274207421
 1  11.11895783598360 -0.44418605410541 -1.44908575227523
 1  11.46460647874787  1.33352642444244 -0.44268147854785
 1  12.21704246294630  0.50481176447645  1.11570074517452
 1  13.47982872517252  0.64147889068907 -1.69385559035904
 1  14.65873610081008 -0.75816883418342  0.65816091359136
 1  13.97836822332233 -1.69577275617562 -0.47017327142714
 1  15.45908576507651 -0.95220854855485 -0.83747615061506
 1  13.45327457305731  2.50677897709771 -0.32687256455646
 1  14.59122673487349  2.01819823432343  0.91548037533753
 1  16.13708243534353  1.40588605010501 -0.76502431743174
 1  15.15692048754875  2.19388764016402 -2.06220975187519
 1  15.18153961606161  4.14200740844084 -1.03617489748975
 1  16.18141777567757  3.71341730113011  0.54085654445445
 1  18.01155097189719  2.96346985548555 -1.20041442934293
 1  16.38106524332433  4.80423770267027 -3.18963324222422
 1  17.86831922182218  4.37199359255925 -3.42642007560756
 1  16.87778246354635  3.08584349554955 -3.44391494469447
 1  17.70442831683168  5.08840949394939  0.33547271297130
 1  18.93909151995200  5.27883410991099 -1.16661880298030
 1  17.24364693449345  6.17565197529753 -1.16078443054305
 1 -5.11503938853885 -7.80007110651065 -0.23494781078108
 1 -6.40352084338434 -6.96928631003100  0.99954979827983
 1 -4.58594081148115 -6.83777365356536  1.04820768916892
 8 -7.88915181048105  6.91548157955796 -0.45371880028003
 1 -9.27546092989299  6.26897431313131 -1.87233570107011

