%nproc=3
%Mem=2GB
# td=(NStates=1) iop(3/107=0140000000,3/108=0140000000) iop(3/107=0140000000,3/108=0140000000) CAM-B3LYP/6-31G(d,p) 

TD

0 1
12 -5.64934066526653  1.24007403510351  0.25402807160716
 6 -4.91355147694769 -2.14187815251525 -0.33928699379938
 6 -3.35270673057306  1.19966250775077  2.89947138533853
 6 -6.21192761506151  4.58580660376038  0.60839320052005
 6 -7.94478539653965  1.15069375177518 -2.33298739263926
 7 -4.30522760726073 -0.27820374347435  1.06769693669367
 6 -4.23119834023402 -1.61891307270727  0.71156487498750
 6 -3.12641404310431 -2.35957715631563  1.46588217681768
 6 -2.88995315071507 -1.31003167286729  2.68986577317732
 6 -3.56659345934593 -0.01634078667867  2.18164882348235
 6 -3.48427053505351 -1.75809250185018  3.89540740014001
 6 -1.95536037933793 -2.67818181138114  0.67197138323832
 6 -0.86867463036304 -3.47655274317432  1.52177605450545
 6  0.24174004140414 -3.79534440654065  0.58708686978698
 8  0.43159701360136 -3.36863655245525 -0.49990000540054
 8  1.06863854605461 -4.77817296209621  1.19835582408241
 7 -4.93262181318132  2.62442267896790  1.43515020162016
 6 -3.97337142434243  2.43958197419742  2.42417764356436
 6 -3.65018555575558  3.64308439093909  3.11754069846985
 6 -4.45863161886189  4.69558802430243  2.46193207740774
 6 -5.28051741414141  3.98608328482848  1.49863501540154
 6 -2.69304792969297  3.87065414911491  4.21249512001200
 6 -4.56865956595660  6.12624265846585  2.82226766356636
 8 -4.09579206650665  6.72224705490549  3.78323229572957
 7 -6.83591524112411  2.57888582108211 -0.61175384308431
 6 -6.87396959475948  3.90281068656866 -0.41499970307031
 6 -7.94218935913591  4.64431548834883 -1.03565637473747
 6 -8.40664369716972  3.63520265036504 -2.00539509190919
 6 -7.65222903440344  2.34929310341034 -1.61278504830483
 6 -8.29550182888289  5.96620799049905 -1.14393552815282
 6 -9.30575705410541  3.81692263056306 -3.16044859345935
 6 -8.77082606330633  3.98432979607961 -4.52819606630663
 7 -6.32915868316832 -0.16137131733173 -1.15059608000800
 6 -7.23716732343234  0.05348444284428 -2.12033795639564
 6 -7.38321143774377 -1.28619377207721 -2.76929995459546
 6 -6.65703118681868 -2.16136991029103 -2.12849205910591
 6 -5.94822274577458 -1.37617164666467 -1.05587345204520
 6 -8.44074944964497 -1.68202799139914 -3.83482440184018
 6 -6.18005163226323 -3.54602370837084 -2.01232662656266
 8 -6.59173241384138 -4.54457942804280 -2.51207145284528
 6 -4.90277053055306 -3.56243801050105 -0.87553417421742
 6 -5.26794392199220 -4.64759996159616  0.15894304530453
 8 -5.68930311291129 -4.51821775517552  1.22676979727973
 8 -5.01424138733873 -5.87399128322832 -0.38409258065807
 6 -5.40827417661766 -7.07845143624362  0.33588112291229
 6  2.27822450405040 -5.16595285548555  0.61117909920992
 6  3.51812512261226 -4.35783728302830  0.96255754155416
 6  4.00581968566857 -3.32825264616462  0.19692206720672
 6  3.57378227552755 -3.21603479187919 -1.28641631043104
 6  5.02085629162916 -2.35669993819382  0.71670352125212
 6  6.32052765746575 -2.72042699569957  0.12908323422342
 6  7.62016114281428 -1.95013665946595  0.66395022962296
 6  8.92862147064707 -2.04632061406141 -0.06999371257126
 6  9.59169624972497 -3.31595149764976  0.20324344934493
 6  9.83328876447645 -0.84418503940394  0.37241520492049
 6  11.29531268856886 -0.88364115921592 -0.32496780738074
 6  12.12327994859486  0.23256244674467  0.11051183938394
 6  13.41204059815982  0.51127081398140 -0.71543130033003
 6  14.43034120712071 -0.69446017601760 -0.35386207140714
 6  13.98955889408941  1.82502727492749 -0.31805944834483
 6  15.34055333623362  2.26401833713371 -0.94770187788779
 6  15.80519013871387  3.66753926392639 -0.60557165016502
 6  17.19142353705370  3.92883179867987 -1.28213926172617
 6  17.25712469456946  3.92008757145715 -2.82547486748675
 6  17.88793221242124  5.20038816481648 -0.74954591159116
 1 -2.71850735663566  1.12892975657566  3.73981159235924
 1 -6.47133801670167  5.55807200940094  0.82538230093009
 1 -8.88217341644164  1.18891315281528 -3.06650203110311
 1 -3.50320738593859 -3.36340945764576  1.90421616371637
 1 -1.90961204720472 -1.15059266746675  2.75462762876288
 1 -2.88911823702370 -2.66763334423442  4.36737668356836
 1 -3.52322892299230 -0.97142926062606  4.71450758665867
 1 -4.38061973777378 -2.23975189318932  3.70471369396940
 1 -2.45055222082208 -3.28927197219722 -0.01280901550155
 1 -1.65422612231223 -1.59165779317932  0.29800064136414
 1 -0.52015640574057 -2.76713668596860  2.38016255735574
 1 -1.48497797639764 -4.40206704300430  1.72835187188719
 1 -1.53604225632563  3.80134482118212  4.17024940604060
 1 -2.64836249024903  4.95919555865587  4.58798446134613
 1 -2.92118205070507  3.38187138123812  5.07046402320232
 1 -5.32606646594659  6.56522450495050  1.99353146894689
 1 -9.80491447394740  2.66597374927493 -3.06313746834683
 1 -10.18465594849485  4.49796733123312 -3.16298929152915
 1 -9.79103486438644  3.98962686268627 -5.20314662526253
 1 -8.07696166216622  4.97195913651365 -4.70281996379638
 1 -8.03525380028003  3.11087540144014 -4.65453956865687
 1 -8.53589017061706 -0.86685994369437 -4.78863883288329
 1 -8.26469609750975 -2.62856991729173 -4.27595693959396
 1 -9.48668191729173 -1.61698833343334 -3.59386367146715
 1 -4.16079785578558 -3.95931175417542 -1.49043397349735
 1  2.27598554235424 -6.25685297839784  0.72618100600060
 1  2.00045337193719 -4.86329485588559 -0.47480291539154
 1  3.78958494089409 -4.59142926522652  2.07651601570157
 1  2.38644609650965 -3.44330588548855 -1.47551020112011
 1  3.66723406140614 -2.06106080668067 -1.77740595809581
 1  4.13813632103210 -3.79190104640464 -1.95417687498750
 1  4.81766563556356 -1.44950049464946  0.47944833593359
 1  5.19001135953595 -2.54251856905691  1.89388327462746
 1  6.49096831683168 -3.80411471097110 -0.05043572187219
 1  6.47854669416942 -2.42055427142714 -1.05338502470247
 1  7.34687548914891 -0.88937549184918  0.93172192549255
 1  7.86351526172617 -2.12284053255325  1.72272974537454
 1  8.74218011761176 -1.84415245594560 -1.08385660436044
 1  8.83444560996100 -4.11268012791279  0.08342587238724
 1  10.43189621902190 -3.72552590729073 -0.54529211111111
 1  10.01608835643564 -3.51641737033703  1.14667563056306
 1  9.27810887178718  0.05280369076908  0.16252542694269
 1  9.96984594319432 -0.73521184048405  1.51485242254225
 1  11.74743667476748 -1.67562488418842 -0.11845115291529
 1  10.98941488168817 -0.79802143764376 -1.26348719241924
 1  11.61363138123812  1.19374244604460  0.03284607420742
 1  12.24493525222522 -0.08947766446645  1.21762093719372
 1  13.14092483478348  0.48392313511351 -1.87515372017202
 1  14.77298752595260 -0.82520553785379  0.70373547104710
 1  13.81303168966897 -1.65859903880388 -0.61700795489549
 1  15.33262311881188 -0.78159148684868 -1.07757016001600
 1  13.24593383898390  2.61849014821482 -0.45203508080808
 1  14.15000261246125  1.68541495599560  0.98907773507351
 1  16.23362208930893  1.68214367586759 -0.69590740574057
 1  15.31363615911591  2.11219947134714 -2.06544007490749
 1  15.10495195729573  4.55414862256226 -0.78149942994299
 1  15.93689332323232  3.76268222762276  0.48669112791279
 1  17.89070888768877  3.23129663816382 -0.72115650355035
 1  16.66307344414441  4.68499577847785 -3.43858813771377
 1  18.36345873577358  4.11958835203520 -3.14505193879388
 1  16.87748243354335  3.01473638483848 -3.24053460666067
 1  17.91783965796580  5.19717037003700  0.36150531623162
 1  18.87084469526953  5.27035326182618 -1.31855399649965
 1  17.27669023882388  5.90467487758776 -1.07595594769477
 1 -5.12783066766677 -7.97047814721472 -0.38062237823782
 1 -6.46058654995499 -6.93926330773077  0.30513035633563
 1 -5.10918313571357 -7.07051692789279  1.41355422382238
 8 -7.75867876317632  6.81833186458646 -0.41223465186519
 1 -9.02550593439344  6.34747216291629 -1.87212568006801

