%nproc=3
%Mem=2GB
# td=(NStates=1) iop(3/107=0140000000,3/108=0140000000) iop(3/107=0140000000,3/108=0140000000) CAM-B3LYP/6-31G(d,p) 

TD

0 1
12 -5.64602033323332  1.18330835853585  0.17028969776978
 6 -5.00264038583858 -2.11643560826083 -0.30562362746275
 6 -3.24900636053605  1.22343488498850  2.71489292749275
 6 -6.23579000130013  4.46272429552955  0.72332469366937
 6 -7.91405232323232  1.19211789418942 -2.44975906980698
 7 -4.28426551105110 -0.22503842694269  1.10012017901790
 6 -4.25334055445545 -1.61750293169317  0.66663038153815
 6 -3.12311371307131 -2.26521772037204  1.44930051865187
 6 -2.89397355275528 -1.28203887358736  2.58184497109711
 6 -3.45399219921992  0.01834268166817  2.11192185078508
 6 -3.51259336733673 -1.80916760936094  3.94135199459946
 6 -1.85280012331233 -2.65102909610961  0.61493567966797
 6 -1.01890965386539 -3.61156624452445  1.40769464636464
 6  0.23409927732773 -3.92048692079208  0.55421358245825
 8  0.56351020492049 -3.47199688848885 -0.53051306670667
 8  1.03932561476148 -4.74776992179218  1.30122611111111
 7 -4.81892044304430  2.62180241694169  1.42992967956796
 6 -3.91155524272427  2.40461847784779  2.35136036183618
 6 -3.67005754295430  3.59502958545855  3.13699264366437
 6 -4.53696945264526  4.64143260876088  2.60343622782278
 6 -5.21995135753575  3.93336801330133  1.53470862276228
 6 -2.72407103200320  3.81708879257926  4.24130800130013
 6 -4.57333003300330  6.03252328652865  3.01189662646265
 8 -4.04763725102510  6.59570440064006  3.87433140564056
 7 -6.86508815841584  2.59164709720972 -0.64723739143914
 6 -6.94345654345434  3.87348775427543 -0.25762396549655
 6 -7.95210035023502  4.49734079087909 -1.24856766586659
 6 -8.38310134293429  3.56004513461346 -2.13151770417042
 6 -7.68217202870287  2.37652582668267 -1.70727449724972
 6 -8.33360563926393  5.94227559725973 -1.17585872047205
 6 -9.38078455685569  3.73732467076708 -3.17145969456946
 6 -8.58157713841384  4.15164652775278 -4.53533678037804
 7 -6.27157292459246 -0.10357553775378 -1.26065708610861
 6 -7.41765537223722  0.00556965136514 -2.09022494509451
 6 -7.56206932353235 -1.37785293799380 -2.68975199979998
 6 -6.69354483818382 -2.21052482578258 -2.00592980288029
 6 -5.91440936443644 -1.35720975047505 -1.13272113681368
 6 -8.61791716641664 -1.58714850345035 -3.70089100850085
 6 -6.18848247534754 -3.58724783078308 -1.98249364326433
 8 -6.56744998559856 -4.50974594469447 -2.59272951865187
 6 -5.01151140464046 -3.53377514421442 -0.88081470227023
 6 -5.29520664826483 -4.57491269286929  0.12511966296630
 8 -5.78831301390139 -4.41676761016102  1.22241936223622
 8 -5.01260122332233 -5.79690357445745 -0.31129530093009
 6 -5.25494884408441 -6.87884147524752  0.53381091589159
 6  2.34421110271027 -5.06282254245425  0.60203818511851
 6  3.44724803490349 -3.99013051235123  0.98934021982198
 6  4.04444354805481 -3.24613443434343  0.10071244624462
 6  3.75519041634163 -3.14499768816882 -1.32147981678168
 6  5.18402260826083 -2.40108437663766  0.60926277717772
 6  6.55805140984098 -2.74302925592559  0.04134446034603
 6  7.61635076177618 -1.77630927672767  0.72122595719572
 6  8.98933754225423 -1.97786376837684 -0.01474818801880
 6  9.46491357145715 -3.44919482198220  0.13426655165517
 6  9.94252968856886 -0.87661828272827  0.58590655405541
 6  11.23419657695769 -0.80842363746375 -0.14163947454745
 6  12.05382300290029  0.30405959645965  0.24470525872587
 6  13.37916731083108  0.43034272117212 -0.60677043424342
 6  14.36358453145315 -0.81789251925193 -0.48410509570957
 6  14.12975291349135  1.72262703490349 -0.23326096849685
 6  15.44257353825382  1.98836077137714 -0.88633574127413
 6  15.90399001870187  3.48460097009701 -0.65707680068007
 6  17.12511690639064  3.92551146664666 -1.42195324312431
 6  17.09078806090609  4.08076363906391 -2.87780010001000
 6  17.70885430463046  5.24201232723272 -0.84327528452845
 1 -2.68510401630163  1.44745160876088  3.56551416261626
 1 -6.29008989188919  5.57389359155916  0.57586734943494
 1 -8.65277047614762  1.17292155365537 -3.29906528742874
 1 -3.52310937613761 -3.23647676437644  1.74536027812781
 1 -1.65848693469347 -1.29894750295030  2.78113027902790
 1 -3.09510883608361 -2.62040862176218  4.23190313621362
 1 -3.34969156925693 -1.06455857355736  4.81668780468047
 1 -4.56640831663166 -1.86085400340034  3.97024024662466
 1 -2.14878204380438 -3.13821686668667 -0.52198993359336
 1 -1.31439213891389 -1.79914854225423  0.43316415771577
 1 -0.45478986908691 -3.36220619291929  2.36182072317232
 1 -1.57009648824883 -4.55449228552855  1.63494253095310
 1 -1.64389304140414  3.24083877057706  4.30041242234223
 1 -2.88119577357736  4.89163880298030  4.46056171907191
 1 -3.60119005150515  3.50480367446745  5.13235021182118
 1 -5.20488434773477  6.53998198069807  2.19028114391439
 1 -10.06799078157816  2.88773592549255 -3.26241739633963
 1 -9.97229471237124  4.70897843234323 -2.89891288388839
 1 -9.38477423832383  3.84417231723172 -5.14035034563456
 1 -8.13947791379138  5.21147308790879 -4.55831551335134
 1 -7.71485176007601  3.45472978687869 -4.78084219891989
 1 -8.28353493509351 -1.22994625232523 -4.70830079907991
 1 -8.67329695759576 -2.62094915521552 -3.86744608850885
 1 -9.63670691979198 -1.18069470407041 -3.47214149924993
 1 -3.99185096109611 -3.93515933893389 -1.19575450555055
 1  2.67144508830883 -5.89661695479548  1.20750913881388
 1  2.35865919251925 -5.13002152855286 -0.51173660876088
 1  3.85532151455146 -3.85110523282328  2.04600296439644
 1  2.69787723962396 -3.37850940584058 -1.42631528162816
 1  4.10070740874087 -2.21745644624462 -1.80803902140214
 1  4.29338184558456 -3.88743059935994 -2.00433189048905
 1  5.11480534953495 -1.41481702630263  0.34090448154815
 1  5.09667202560256 -2.27236155335533  1.74255814211421
 1  6.96590581058106 -3.83366766626663  0.40845016671667
 1  6.49394823432343 -2.72243445944594 -1.09230891709171
 1  7.18162896449645 -0.75122167646765  0.33562231553155
 1  7.71632054225423 -1.96673492199220  1.61600907330733
 1  8.89329522912291 -1.66076411711171 -0.99465768446845
 1  8.62635480088009 -4.06500536043604 -0.76028849904990
 1  10.55949897929793 -3.60847420212021 -0.09274685658566
 1  9.15948269586959 -3.78026375497550  1.17508847184718
 1  9.37827888878888  0.17036544694469  0.53331250565056
 1  10.18695765436544 -1.36395471477148  1.65631656895690
 1  11.77006893799380 -1.88888621032103 -0.10246955475548
 1  11.06999293949395 -0.71959359485949 -1.30664150785078
 1  11.47836785488549  1.32353542534253  0.19613240284028
 1  12.24339509820982  0.29811109440944  1.21440061516152
 1  13.01850259255925  0.64191893469347 -1.59915612041204
 1  14.71265149234924 -1.01289430673067  0.63537863536354
 1  13.82820320682068 -1.76226940584058 -1.02790904500450
 1  15.46363622012201 -0.77952127982798 -0.82460486348635
 1  13.60133937953795  2.51167946714672 -0.57665754305430
 1  14.31419903210321  1.89407582208221  0.79888871617162
 1  16.35235396249625  1.46786224772477 -0.45193300830083
 1  15.56706150165017  1.76564481588159 -1.91006453735374
 1  15.24746620872087  4.19056226392639 -1.04080536053605
 1  16.11985161906190  3.79363532293229  0.52430488928893
 1  17.99554937173717  3.09648315681568 -1.01858624652465
 1  16.33841097789779  4.82411969086909 -2.89096337523752
 1  18.15928831873187  4.54809120232023 -3.38653608720872
 1  16.71832651795179  3.25963087428743 -3.48888944214421
 1  17.82154002800280  5.34971562456246  0.43610277597760
 1  18.87892550335033  5.43945017151715 -1.20316245734573
 1  17.20088265806581  6.12952736283628 -1.23250160226023
 1 -5.32367025162516 -7.74206530593059  0.17581326532653
 1 -6.42019251055105 -6.57703708510851  0.67776762006201
 1 -4.62648486588659 -6.89260913711371  1.49167203560356
 8 -7.94170706600660  6.82051208260826 -0.42878630703070
 1 -9.07392077587759  6.08615603130313 -1.91523999149915

