%nproc=3
%Mem=2GB
# td=(NStates=1) iop(3/107=0140000000,3/108=0140000000) iop(3/107=0140000000,3/108=0140000000) CAM-B3LYP/6-31G(d,p) 

TD

0 1
12 -5.71822755395540  1.19304933263326  0.27188985778578
 6 -4.89965008680868 -2.13265723042304 -0.46249931503150
 6 -3.33874533443344  1.23533607510751  2.77725916411641
 6 -6.19077549984998  4.47497552065207  0.67774013521352
 6 -8.16058697669767  1.14773345574557 -2.32726682058206
 7 -4.25565264976498 -0.25643156625663  1.08562872987299
 6 -4.24524974537454 -1.60904208560856  0.64588830733073
 6 -3.22918432013201 -2.28524972357236  1.48084367296730
 6 -2.82407656305631 -1.34266493619362  2.60209699629963
 6 -3.45215201520152 -0.01350050265027  2.18008866746675
 6 -3.38313042104210 -1.69904659725973  3.97172503190319
 6 -1.94982982628263 -2.72407640084008  0.70076426252625
 6 -0.97635539843984 -3.53771885978598  1.47941181808181
 6  0.28121398879888 -3.85414028612861  0.62516067716772
 8  0.50761461536154 -3.29516920572057 -0.49032904830483
 8  1.14171585378538 -4.69358450325032  1.27076306480648
 7 -4.87429598059806  2.65455569226923  1.43003969056906
 6 -3.96870095729573  2.49263727972797  2.41220644644464
 6 -3.67546808400840  3.70420050255025  3.14514345874587
 6 -4.54385014071407  4.68834730023002  2.58812469666967
 6 -5.32535189758976  3.94292896939694  1.52097724962496
 6 -2.68896752165216  3.88417550125012  4.31514538503850
 6 -4.62799549954996  6.03700373457346  2.92022745954595
 8 -3.91054354165417  6.72180701090109  3.67177114961496
 7 -6.90798244784478  2.64302223472347 -0.74051671937194
 6 -6.99486168396840  3.91304170967097 -0.32578078117812
 6 -8.00115525572557  4.56532758955896 -1.12346515561556
 6 -8.58811184398440  3.61236036613661 -2.04152870527053
 6 -7.87481129262926  2.35479365346535 -1.73858762856286
 6 -8.42182446114612  5.93403477317732 -1.13706484108411
 6 -9.59402588098810  3.75579651795180 -3.04168671727173
 6 -8.99329831053105  3.88944030713071 -4.57591083778378
 7 -6.43497926522652 -0.18230341054105 -1.08543956435644
 6 -7.41220482718272 -0.01915282088209 -2.15230115271527
 6 -7.53934705130513 -1.41330648334834 -2.78294131873187
 6 -6.64043952765277 -2.19394316761676 -2.13688289818982
 6 -5.95049297279728 -1.41957598709871 -1.14761262596260
 6 -8.55862123682368 -1.77677746634663 -3.80995191459146
 6 -6.11110473757376 -3.54643374937494 -1.99711510541054
 8 -6.54965820642064 -4.48504347444744 -2.68885913161316
 6 -4.96186644014401 -3.59001076777678 -0.85827244804480
 6 -5.36472359996000 -4.65922112371237  0.24353150415041
 8 -5.87755193779378 -4.36319225262526  1.25138225852585
 8 -5.14052401560156 -5.85953983808381 -0.30430460186019
 6 -5.45000835003500 -7.00058364946495  0.63027056185619
 6  2.29199588118812 -4.99862612281228  0.46611459275928
 6  3.42413572367237 -4.11666316561656  0.87185847164716
 6  4.06453555725573 -3.22014183508351  0.02787516251625
 6  3.65821071837184 -3.04616780518052 -1.34247191599160
 6  5.22215642164216 -2.34616888508851  0.53814566546655
 6  6.53712931763176 -2.60667562056206 -0.21230090419042
 6  7.68394752145215 -1.86666831263126  0.55768960356036
 6  9.01756036453645 -2.04803078507851 -0.17003371657166
 6  9.69452653275327 -3.50507040954095  0.01784490949095
 6  9.99481491709171 -0.93824444534453  0.43634159755976
 6  11.34239739703970 -0.96390918601860 -0.30045535613561
 6  12.12113973457346  0.36234542504250  0.12029281748175
 6  13.52297169126913  0.40476016291629 -0.47019677687769
 6  14.42442061506151 -0.74430516051605 -0.13216990219022
 6  14.26871680988099  1.86010078227823 -0.05110275267527
 6  15.46945622652265  2.18060999629963 -0.84120122782278
 6  16.05582520222022  3.49479198919892 -0.67544863786379
 6  17.40005440014001  3.83008192369237 -1.30215126292629
 6  17.25681466356636  3.96388195089509 -2.80375269526953
 6  18.00296371557156  5.16166429242924 -0.70049100610061
 1 -3.00175568146815  1.32728959255926  3.92222983418342
 1 -6.26806768966897  5.72835903810381  0.63033279597960
 1 -8.90087528662866  1.05641990349035 -3.21782716361636
 1 -3.49474653985399 -3.34738785548555  2.11528727082708
 1 -1.68847993399340 -1.39402701090109  2.76116828282828
 1 -2.74173349854986 -2.53330991189119  4.26290623652365
 1 -3.05126172627263 -0.74548666636664  4.67309344524452
 1 -4.47341901770177 -1.88186610461046  3.99291251385138
 1 -2.30110727632763 -3.45907895289529  0.00265253065307
 1 -1.36295699539954 -1.93706233363336  0.15331617291729
 1 -0.42457684778478 -3.03583355565557  2.30508504960496
 1 -1.30817029562956 -4.45291212751275  1.75089412611261
 1 -1.66062471457146  3.15294998169817  4.16272865396540
 1 -2.68491614561456  4.88740837993799  4.55040070297030
 1 -2.97634756725673  3.27510070417042  5.13676065286529
 1 -5.46234009330933  6.85516349884988  2.28345046084608
 1 -10.14026800930093  3.13846099799980 -3.21964311891189
 1 -9.92229971287129  4.73051058555855 -2.54938793139314
 1 -9.66803256415642  3.87297519751975 -5.23649996059606
 1 -8.27629159515952  4.71278321892189 -4.45673535533553
 1 -8.52776305120512  2.94883919781978 -4.93974808950895
 1 -8.43433001460146 -1.46371962966297 -4.67955792479248
 1 -8.46799642754275 -2.90145720602060 -3.87336668056806
 1 -9.47254050315031 -1.67394402900290 -3.49448373347335
 1 -3.99503127912791 -4.03142896589659 -1.40664559465947
 1  2.43793173697370 -6.00412770587059  0.76488487638764
 1  1.96844017061706 -4.92082060846085 -0.60188562366237
 1  3.65384136653665 -4.00218034033403  1.91795015911591
 1  2.89836728862886 -3.77659921482148 -1.61114376447645
 1  3.39840717871787 -1.89475417601760 -1.59349756725673
 1  4.59287179457946 -3.27305916221622 -2.20820227752775
 1  4.94014788378838 -1.40551609620962  0.42805319641964
 1  5.35888824722472 -2.66453077027703  1.59801368766877
 1  6.76860608060806 -3.79354365386539 -0.05594627292729
 1  6.48486732623262 -2.53304552055205 -1.23838352455245
 1  7.58601940354035 -0.82804935923592  0.50670942424242
 1  7.88013692389239 -2.20352860136014  1.73926139853985
 1  9.07348324792479 -1.67435547624763 -1.27960617931793
 1  8.95409757515752 -4.15294415431543 -0.19129159935994
 1  10.48478150755076 -3.70753410811081 -0.72895047694769
 1  10.06502324992499 -3.45231095969597  1.08101906490649
 1  9.61865292619262 -0.04691628122812  0.44300347474747
 1  10.07781674027403 -1.02094041334133  1.51657259455946
 1  11.92235416651665 -1.79600692239224  0.12687337953795
 1  11.18766470667067 -0.82502413791379 -1.42012285598560
 1  11.54436445454545  1.23402647444744  0.06338912851285
 1  12.26732749144914  0.15842712601260  1.28631780688069
 1  13.36523726602660  0.62714745754575 -1.62370857565757
 1  14.38875910311031 -0.86326934423442  1.00982608010801
 1  14.07502788928893 -1.67430060896090 -0.42004825892589
 1  15.41977183368337 -0.63238656635664 -0.42906530953095
 1  13.42400164576458  2.58519681888189 -0.00445032233223
 1  14.52882049424943  1.77240365486549  0.91291011831183
 1  16.26768549564956  1.31913737523752 -0.70169798479848
 1  15.22072686818682  1.98296654805481 -1.93469700060006
 1  15.29713117521752  4.35826903460346 -0.96772805280528
 1  16.42710234413441  3.43422938233823  0.49940239903990
 1  17.94155397219722  2.92254576307631 -0.89877426532653
 1  16.59258639543954  4.79752703160316 -3.24503878277828
 1  18.10197258715872  4.09312570577058 -3.30966840044004
 1  16.69007369266927  3.05801071227123 -3.11930248344834
 1  18.17837571157116  5.05493614661466  0.47521668736874
 1  18.79346695749575  5.44989121562156 -1.01795393649365
 1  17.26456902670267  6.07348175827583 -0.80224857695770
 1 -5.35277316191619 -7.82811391079108  0.12471815581558
 1 -6.53774426572657 -6.79484886628663  0.78825866916692
 1 -4.91464368176818 -6.84021389758976  1.52853572197220
 8 -7.86355925122512  6.86162619401940 -0.42769619801980
 1 -9.25932931673167  6.29335675137514 -1.76948541604160

