%nproc=3
%Mem=2GB
# td=(NStates=1) iop(3/107=0140000000,3/108=0140000000) iop(3/107=0140000000,3/108=0140000000) CAM-B3LYP/6-31G(d,p) 

TD

0 1
12 -5.70456618781878  1.26351637933793  0.35273794259426
 6 -4.91024114591459 -2.11780574527453 -0.43482654775478
 6 -3.50015147504750  1.10936347784778  2.86008744694469
 6 -6.16479290159016  4.62180020312031  0.65906826802680
 6 -8.06138705670567  1.12847152955296 -2.24204829872987
 7 -4.32199928442844 -0.29176509960996  0.96834700170017
 6 -4.18198341874187 -1.76355753715372  0.60555427392739
 6 -3.18075947764777 -2.35548674727473  1.41242683128313
 6 -2.90436459185919 -1.37469813951395  2.62672945954595
 6 -3.51683848384838 -0.08568772137214  2.11379203780378
 6 -3.40395250325033 -1.78533522612261  4.03598145754575
 6 -1.96733157645765 -2.77591158435844  0.61342552865287
 6 -1.02880064296430 -3.67845293319332  1.46057993489349
 6  0.27908377577758 -4.04639951205121  0.69082724382438
 8  0.54394824872487 -3.55473516231623 -0.42759277467747
 8  1.13337501970197 -4.86494163896390  1.36316230473047
 7 -4.93563211421142  2.61068130483048  1.52706939353935
 6 -4.04146823402340  2.41117913391339  2.54702992879288
 6 -3.72117265446545  3.63100318281828  3.16360530493049
 6 -4.38642439813981  4.67832629812981  2.51186707090709
 6 -5.18632799519952  3.94385906240624  1.48775392729273
 6 -2.74389301420142  3.78398548224822  4.27067093759376
 6 -4.55764846484649  6.09130916511651  2.79342477927793
 8 -4.04456694399440  6.51616644684468  3.82688666116612
 7 -6.86051770137014  2.61944987748775 -0.70625329302930
 6 -6.96980917871787  3.92097250275028 -0.31075927902790
 6 -7.81428656885689  4.67172822962296 -1.16667947704770
 6 -8.45245827862786  3.63644277437744 -1.96411096349635
 6 -7.75926973847385  2.42423059715972 -1.65439920972097
 6 -8.17146942564256  6.05201657135714 -1.25133626822682
 6 -9.41294777317732  3.97417835613561 -3.13470601920192
 6 -8.75045402610261  3.98747011011101 -4.49989323602360
 7 -6.25448121542154 -0.15013019321932 -1.10122114251425
 6 -7.40481408810881 -0.07697860346035 -2.04025994859486
 6 -7.53018613521352 -1.34241939463946 -2.74946797139714
 6 -6.58828431213121 -2.17931170447045 -2.16644585448545
 6 -5.96781470497050 -1.45412944244424 -1.10711857655766
 6 -8.55211058575858 -1.61310109870987 -3.80297121652165
 6 -6.16523015011501 -3.54506361236124 -2.19096449034903
 8 -6.49846308690869 -4.57384235433543 -2.70512075777578
 6 -5.06062631613161 -3.55277704440444 -0.94639125992599
 6 -5.43583071067107 -4.52909811141114  0.00855800680068
 8 -5.89573375597560 -4.40389632303230  1.09983710401040
 8 -5.10967093029303 -5.79066295039504 -0.50254442584258
 6 -5.44375772497250 -6.75104869596960  0.51091862666267
 6  2.37094377597760 -5.12150841104110  0.68904688598860
 6  3.43800711081108 -4.17583908320832  0.99501078687869
 6  4.03113221692169 -3.33419324022402  0.26476885188519
 6  3.61824672197220 -3.12640582898290 -1.20273794259426
 6  5.13860806680668 -2.42337660586059  0.67559941084108
 6  6.48097370207021 -2.77033198619862  0.10011033693369
 6  7.57919704640464 -1.72591423722372  0.72857669226923
 6  9.00727933643364 -2.05807178917892  0.01498478527853
 6  9.68786586668667 -3.43373327582758  0.44890801580158
 6  9.91228666426643 -0.83355397629763  0.41884984838484
 6  11.32023518081808 -0.89245204030403 -0.17954326492649
 6  12.18481610221022  0.34617380788079  0.22927371557156
 6  13.45662505660566  0.53226291319132 -0.66541629882988
 6  14.39934810781078 -0.67911864186419 -0.47245393059306
 6  14.17712765096510  1.87709248144815 -0.29090673307331
 6  15.39360864176418  2.24014594989499 -1.10197730543054
 6  15.97577719741974  3.56025853585359 -0.73914500750075
 6  17.22960735543554  3.93363227872787 -1.42045309310931
 6  17.12271125322532  4.20190575327533 -2.92769508950895
 6  17.95267868706870  5.14732285828583 -0.86442739973997
 1 -2.92698820472047  1.17474433803380  3.52733034423442
 1 -6.42114299719972  5.66817301950195  0.80415017771777
 1 -8.90993619271927  1.08193245474547 -2.86442182308231
 1 -3.52118918411841 -3.37663077977798  1.78996473857386
 1 -1.79563064906491 -1.21270887908791  2.57316948294830
 1 -2.98044736993699 -2.82996957785779  4.14727467336734
 1 -3.09997659775978 -1.24353647134713  4.91618775467547
 1 -4.50338201400140 -1.88394631263126  4.03853707630763
 1 -2.29336650225022 -3.02984602960296 -0.34311204580458
 1 -1.53120382008201 -1.81750037743774  0.30971181248125
 1 -0.68690308040804 -3.49497947024702  2.61018555965597
 1 -1.51428090669067 -4.59634647094709  1.73931296799680
 1 -1.74096274837484  3.32770745744574  4.03605598669867
 1 -2.45269292329233  4.93487312641264  4.28005366826683
 1 -3.05827576007601  3.40559375347535  5.13332030883088
 1 -5.13590745004500  6.52320030253025  2.14281639743974
 1 -10.29456343884388  3.20019717161716 -3.10471162576258
 1 -10.00662814571457  4.82872040654065 -2.85888888148815
 1 -9.44177993889389  4.27780568056806 -5.33550986158616
 1 -8.06930089608961  4.89610155075508 -4.57559724152415
 1 -8.25664593949395  3.17603191709171 -4.89356347104710
 1 -8.31719830143014 -1.15407866556656 -4.78274824382438
 1 -8.71742137003700 -2.70362742304230 -4.14054339823982
 1 -9.61844509360936 -1.31640827542754 -3.43279756485649
 1 -4.02137391339134 -3.95088091109111 -1.37038196829683
 1  2.55462340614061 -6.05674296739674  1.32100048794879
 1  2.08549187578758 -5.55838436483648 -0.19498493359336
 1  3.70646662906291 -4.16836695899590  2.03905226932693
 1  2.49104655655566 -3.49662121702170 -1.32500515061506
 1  3.75408274627463 -2.10929563016302 -1.69953817131713
 1  4.19335184258426 -3.68732058835884 -1.78481993929393
 1  4.95868973797380 -1.42236778137814  0.47138752985299
 1  5.07529988838884 -2.39052336953695  1.79213309960996
 1  6.75915513551355 -3.73071737123712  0.62469179087909
 1  6.37794663416342 -2.78728094409441 -1.01542122832283
 1  7.31570237183718 -0.77727428172817  0.52619137243724
 1  7.51235014521452 -1.52668091659166  1.85187265966597
 1  8.77441334093409 -1.91667970867087 -0.97656587528753
 1  8.74647681308131 -4.30564942484248  0.49164669446945
 1  10.49071210061006 -3.71552490719072 -0.25979356125613
 1  9.97934468206821 -3.42936866546655  1.65569653265327
 1  9.47398845974597  0.16123453385338  0.31674084848485
 1  9.88671763036304 -1.01939025832583  1.58459939723972
 1  11.81670360146015 -1.82858017971797 -0.07598690649065
 1  11.22593853405341 -0.77223885938594 -1.21462230593059
 1  11.60470048814881  1.21517458925893  0.11757454705471
 1  12.72875363406341  0.19216049934993  1.36174534963496
 1  13.06015675797580  0.42324706750675 -1.64554075887589
 1  14.62085231243124 -0.74838785608561  0.66131122862286
 1  13.99213960046005 -1.62119529842984 -0.68068432253225
 1  15.27540739723972 -0.40833416111611 -1.03736613961396
 1  13.50107935353535  2.63631193039304 -0.67830770807081
 1  14.47560517271727  1.85859227372737  0.77184601190119
 1  16.08463719081908  1.53193865536554 -0.97689550455045
 1  15.27234202970297  2.31802005340534 -2.22976650755075
 1  15.11346280838084  4.31108431613161 -0.69739101910191
 1  16.15315494939494  3.93443940334033  0.46812927172717
 1  17.72945276207621  3.26167967646765 -1.11345573347335
 1  16.28826596339634  5.00162744164416 -3.04035831473147
 1  18.15269765966597  4.36905329852985 -3.59132656625663
 1  16.88597328262826  3.33111802300230 -3.51896244944494
 1  18.18384625862586  5.08732938593859  0.18766793249325
 1  18.83915152595259  5.22061828832883 -1.43392553365337
 1  17.30727329712971  6.06178058815882 -0.85393374547455
 1 -4.98294617921792 -7.68634973437344  0.23579926392639
 1 -6.51712220352035 -6.83258263966397  0.43661350465047
 1 -5.17651986938694 -6.35662553875387  1.48338120652065
 8 -7.71673456875688  6.92597262866287 -0.55628905730573
 1 -8.95560894469447  6.30245766146615 -2.00892936043604

