%nproc=3
%Mem=2GB
# td=(NStates=1) iop(3/107=0140000000,3/108=0140000000) iop(3/107=0140000000,3/108=0140000000) CAM-B3LYP/6-31G(d,p) 

TD

0 1
12 -5.63277900910091  1.23433346104610  0.20256292509251
 6 -4.98106822862286 -2.08755271997200 -0.36660972607261
 6 -3.30676213611361  1.22133467496750  2.78394983318332
 6 -6.24127054935494  4.59958798189819  0.59826218741874
 6 -7.99701061906191  1.20467915031503 -2.38490258415842
 7 -4.31631871637164 -0.29529545264526  1.18322848984898
 6 -4.21370659105911 -1.60978215961596  0.67834155265527
 6 -3.13163456515652 -2.35551675027503  1.40937652625263
 6 -2.87879203460346 -1.37306797649765  2.65337212381238
 6 -3.51839863986399 -0.09441859445945  2.23003366196620
 6 -3.68600070807081 -1.73070976357636  4.02587044644464
 6 -1.92785762906291 -2.61862585578558  0.56223040914091
 6 -1.01217898079808 -3.65818090599060  1.36078995589559
 6  0.24169003640364 -3.98694356645665  0.55926408750875
 8  0.48348220212021 -3.63577326612661 -0.59006902230223
 8  1.08106978917892 -4.85753089788979  1.35068105660566
 7 -5.02217076807681  2.57107734443444  1.45578226482648
 6 -4.01803589078908  2.42365038103810  2.54779000480048
 6 -3.74404494169417  3.71280136263626  3.22387133153315
 6 -4.54620037573757  4.69101756725673  2.53705959015902
 6 -5.27889725212521  3.97824250075008  1.53437858975898
 6 -2.74305293019302  3.92519960366037  4.31720559105911
 6 -4.63423612361236  6.11510154435444  3.00806624342434
 8 -3.96528901620162  6.59139396959696  3.86826079857986
 7 -6.87210886048605  2.59806773927393 -0.68971163886389
 6 -6.93946614441444  3.98143854935494 -0.38280648374837
 6 -7.89029416961696  4.63509456625663 -1.22148495759576
 6 -8.50334336713671  3.68132726282628 -2.03337789018902
 6 -7.78067187868787  2.46308448254825 -1.66051982178218
 6 -8.26813909260926  6.07736910661066 -1.06561769636964
 6 -9.40301678007801  3.82666360466047 -3.17170971957196
 6 -8.85810479117912  4.02596395949595 -4.60982422912291
 7 -6.31998776607661 -0.19405458565857 -1.23974499489949
 6 -7.32384599129913 -0.01462236783678 -2.08172409500950
 6 -7.53183630023002 -1.36697184988499 -2.80076310091009
 6 -6.68150363406341 -2.22254602790279 -2.16574578447845
 6 -5.98603652715272 -1.40034406390639 -1.16046391109111
 6 -8.46375174987499 -1.68076786538654 -3.86735765516552
 6 -6.14229785688569 -3.54575368136814 -2.07649304320432
 8 -6.41978521912191 -4.58175314541454 -2.67692793849385
 6 -5.02577283078308 -3.51819358605861 -0.96703332413241
 6 -5.37082421002100 -4.59776497809781  0.05504265526553
 8 -5.73131731433143 -4.35993192659266  1.16706382668267
 8 -5.11125108830883 -5.80899478357836 -0.33495766716672
 6 -5.35595894509451 -6.86546013711371  0.47794532933293
 6  2.31103778537854 -5.28913517371737  0.70149813111311
 6  3.45068837893789 -4.19783128242824  1.01323260906091
 6  4.04981408510851 -3.43522334323432  0.14094646964696
 6  3.72241713901390 -3.24162735113511 -1.42222989178918
 6  5.06456066206621 -2.42919718791879  0.69662151305131
 6  6.55730133483348 -2.79765471847185  0.20596092199220
 6  7.65882500920092 -1.76335798159816  0.75836967156716
 6  8.98793740224022 -1.89109509150915  0.04618790559056
 6  9.63536061616162 -3.34667456995700  0.47353047804780
 6  9.98841427702770 -0.77919854075408  0.51446941034103
 6  11.30862401970197 -0.83266606170617 -0.24261957255726
 6  12.17977559815982  0.37960715121512  0.12667345554555
 6  13.51941133523352  0.52852253915392 -0.64871462866287
 6  14.41110928392839 -0.70879160916092 -0.51950863606361
 6  14.17247718591859  1.91480625282528 -0.20219786218622
 6  15.46412569346935  2.18709064436444 -1.14135124282428
 6  16.11815143484348  3.42692520252025 -0.70708180118012
 6  17.36415080978098  3.85610452595260 -1.45958700650065
 6  17.20395937803780  3.94001956465647 -2.90837315731573
 6  17.82766618581858  5.28871699769977 -0.85148610561056
 1 -2.69561506740674  1.26751361496150  3.59504711591159
 1 -6.36176705960596  5.65182138433843  0.59056881958196
 1 -8.65857105620562  1.05091935343534 -3.26124150505051
 1 -3.57746481168117 -3.41431454815482  1.77537327942794
 1 -1.78715980198020 -1.23646125432543  2.97246941294129
 1 -3.24421374657466 -2.80823740464046  4.49169911581158
 1 -3.38344494459446 -1.01883400110011  4.70233636953695
 1 -4.74008568436844 -2.00592851085108  3.95973919651965
 1 -2.27051421702170 -3.15777882288229 -0.29173690829083
 1 -1.35830653035303 -1.76132475987599  0.35589643094309
 1 -0.67791218131813 -3.05330530283028  2.36917145824582
 1 -1.84055353395340 -4.52474931123112  1.60922995969597
 1 -1.81083973607361  3.68813350005001  3.86668905000500
 1 -2.79303695769577  5.02458209730973  4.46195185808581
 1 -3.03711364386439  3.39009220332033  5.26740371717172
 1 -5.20926478577858  6.83137111961196  2.30018213401340
 1 -9.95978996149615  2.98780593249325 -3.09225037963796
 1 -10.11787927082708  4.73930146464646 -2.90216320892089
 1 -9.59224498539854  4.11568946894689 -5.15084139473947
 1 -8.17133109910991  4.83174511511151 -4.67952763456346
 1 -8.30511078597860  3.07919223312331 -4.83727784248425
 1 -8.53263984558456 -0.84163742144215 -4.90144011301130
 1 -8.14195382328233 -2.49131619191919 -4.26411575547555
 1 -9.48051130023002 -1.75675230983098 -3.50010429552955
 1 -4.19025080108011 -3.90974679767977 -1.47940287038704
 1  2.64599254305431 -6.17658495159516  1.32821120902090
 1  2.18132145874587 -5.20810933733373 -0.35039047414741
 1  3.51787777017702 -4.17327745004500  2.16672503660366
 1  2.81784923682368 -3.81937349224923 -1.61863451355136
 1  4.15377271527153 -2.22281698229823 -1.58885710321032
 1  4.41686419381938 -3.84936679297930 -1.98247970527053
 1  4.83693756275628 -1.42628817341734  0.43790418151815
 1  4.97788014641464 -2.45109942714271  1.86249013531353
 1  6.76200542054205 -3.80711501100110  0.56161548324833
 1  6.55639447894789 -2.86060827682768 -0.84680436663666
 1  7.26371717331733 -0.79979653395340  0.41381013431343
 1  7.63858276847685 -2.02774102260226  1.80605807820782
 1  8.66202210181018 -1.98529657035704 -1.03556177487749
 1  9.06015818121812 -4.13021188108811  0.17724525432543
 1  10.65660869026903 -3.37824117881788  0.25659807790779
 1  9.69139588718872 -3.34278000660066  1.58254921792179
 1  9.57517857875787  0.32482089248925  0.41607078147815
 1  10.11335029362936 -0.63487180648065  1.60831176847685
 1  11.82610454155416 -1.67658498019802  0.17577827002700
 1  11.12167810801080 -0.70678231373137 -1.30039088278828
 1  11.66235625372537  1.49414248604860 -0.01160837123712
 1  12.41889264796480  0.35153643694369  1.24557373247325
 1  13.17439818211821  0.81788653145315 -1.57726393119312
 1  14.55344557175718 -1.09158217551755  0.66516161366137
 1  13.97141752825283 -1.51342452135213 -1.08095434953495
 1  15.42259211571157 -0.47222054975497 -1.00651305430543
 1  13.61390063566357  2.93724202340234 -0.21862173947395
 1  14.49151676387639  1.70405682018202  0.77553638093809
 1  16.11932065916591  1.17891335283528 -1.18918673367337
 1  14.97535233073307  2.49198745014501 -2.28308183908391
 1  15.35393685578558  4.14182739043904 -0.94391567156716
 1  16.23528316221622  3.45935189458946  0.40981344014401
 1  18.02991280808081  3.10267377587759 -1.28604299219922
 1  16.49480661746174  4.70508778767877 -3.11937621652165
 1  18.09505189508951  3.93433982718272 -3.31991942554255
 1  16.78608329362936  2.98011292249225 -3.33848440164016
 1  17.87186506050605  5.07506815981598  0.38364753045305
 1  18.83353096389639  5.67181340784078 -1.25661780288029
 1  16.86184875467547  5.91415582568257 -0.95718407050705
 1 -5.09041692629263 -7.79648074747475 -0.01688600460046
 1 -6.44309480078008 -6.80990037143714  0.83688353165317
 1 -4.65820803820382 -6.73080295649565  1.25799866826683
 8 -7.85191808710871  6.80444047544754 -0.23903733213321
 1 -8.94444782858286  6.42543995969597 -1.84895336283628

