%nproc=3
%Mem=2GB
# td=(NStates=1) iop(3/107=0140000000,3/108=0140000000) iop(3/107=0140000000,3/108=0140000000) CAM-B3LYP/6-31G(d,p) 

TD

0 1
12 -5.59382511371137  1.25492552025203  0.16439910871087
 6 -5.03154327612761 -2.18994295899590 -0.35611867696770
 6 -3.39785124502450  1.35182772427243  2.72952439063906
 6 -6.06037245954596  4.59197722082208  0.62264462566257
 6 -7.97817873587359  1.23112179457946 -2.31151524542454
 7 -4.43255033953395 -0.30433635673567  1.06261642864286
 6 -4.28837405780578 -1.58320950235024  0.71726544504450
 6 -3.21071247294729 -2.29828102670267  1.49101469006901
 6 -2.99709386478648 -1.37370804050405  2.74410119671967
 6 -3.57253405340534  0.00870171757176  2.11224188278828
 6 -3.57687979597960 -1.64282097469747  4.02484034343434
 6 -1.93983882718272 -2.56940093329333  0.67166135223522
 6 -1.01877964086409 -3.54223931183118  1.43830770767077
 6  0.29588545594559 -3.90678555065507  0.62554071517152
 8  0.49803365726573 -3.45975566436644 -0.49896991239124
 8  1.04423610581058 -4.62282742754275  1.40979696819682
 7 -4.87892644364436  2.63597383408341  1.46511319791979
 6 -4.02144623182318  2.46218423442344  2.31668689448945
 6 -3.70023056025603  3.68530861336134  3.12332127652765
 6 -4.44050980668067  4.67826629212921  2.52095797999800
 6 -5.23885324772477  3.97361203770377  1.56337148904890
 6 -2.61546017091709  3.82223930763076  4.25740961146115
 6 -4.58680138013801  6.11554158835884  2.90269570637064
 8 -3.92388487578758  6.57304213441344  3.84805877837784
 7 -6.87191884148415  2.66139407190719 -0.66319898759876
 6 -6.84854705250525  3.92463286878688 -0.38231643474347
 6 -7.82232737293729  4.64218527532753 -1.25399820892089
 6 -8.37267029982998  3.65128425852585 -2.04598915131513
 6 -7.81460527202720  2.37524569866987 -1.65896966676668
 6 -8.14469674837484  6.11652302200220 -1.31915304990499
 6 -9.43803028142814  3.80946188448845 -3.00899344794479
 6 -8.91337031773177  4.10555191829183 -4.47694094079408
 7 -6.29601536883688 -0.12584776497650 -1.15801682208221
 6 -7.24624823152315  0.02600169456946 -2.09248517111711
 6 -7.58430154675468 -1.34674982768277 -2.64257728232823
 6 -6.71076656035604 -2.21202497579758 -1.99830904080408
 6 -5.96412433593359 -1.45923995349535 -1.08827669236924
 6 -8.43345872057206 -1.63565335393539 -3.81519243864386
 6 -6.16908053515352 -3.63670277627763 -2.02940833473347
 8 -6.52667590819082 -4.62231720182018 -2.63090333603360
 6 -5.09350960446045 -3.63019478617862 -0.87557417821782
 6 -5.24048117571757 -4.71445664726473  0.10520767176718
 8 -5.69565374797480 -4.57763369676968  1.27028414871487
 8 -5.05672563576358 -5.92005588968897 -0.45823999539954
 6 -5.51053440264026 -7.02547613871387  0.33645117991799
 6  2.33279996159616 -5.19692595279528  0.73041102240224
 6  3.51152446254625 -4.25281678097810  0.97761904770477
 6  4.06122522622262 -3.41616143704370  0.17133950895089
 6  3.79731462876288 -3.27656084448445 -1.29061673047305
 6  5.21242544854485 -2.55639990819082  0.71060291119112
 6  6.55120072477248 -2.78492344534453  0.06627695359536
 6  7.57798692539254 -1.82097374317432  0.70811464606461
 6  8.99085769426943 -2.03422940494049  0.04224751155116
 6  9.58082516261626 -3.43216311881188  0.24580770577058
 6  9.93839927552755 -0.92171279217922  0.46679464286429
 6  11.27420057735774 -1.05280807590759 -0.29077438803880
 6  12.16496411701170  0.22048123862386  0.08491928012801
 6  13.57176657075708  0.32625231213121 -0.71261101830183
 6  14.48196636963696 -0.87714844484448 -0.63299998519852
 6  14.21261119931993  1.72292706490649 -0.19068671107111
 6  15.32893217411741  2.25109704500450 -1.09815692339234
 6  15.85333495319532  3.63425593559356 -0.58673976697670
 6  17.11279567426743  4.15373428892889 -1.37448849664966
 6  16.87121610371037  4.48987455015502 -2.91048336833683
 6  17.76806022522252  5.29313743974397 -0.53188414541454
 1 -2.63435894179418  1.30083694729473  3.40975858705871
 1 -6.29239012191219  5.62212841504150  0.75843560626063
 1 -8.84587978707871  1.25654991649165 -2.99796517741774
 1 -3.62254932013201 -3.36786990369037  1.71527726982698
 1 -1.83583466946695 -1.26544415261526  2.76972913891389
 1 -3.38404772997300 -2.77158373927393  4.72101204710471
 1 -3.60945754585459 -0.70682279998000  4.60646678257826
 1 -4.63800547634763 -2.01025894389439  3.76236945954595
 1 -2.15336250185018 -3.07176022102210 -0.24423215781578
 1 -1.41602230193019 -1.66112473987399  0.51575241654165
 1 -0.65229962006201 -3.38042801510151  2.51098563966397
 1 -1.55848532713271 -4.46936377267727  1.70582961966197
 1 -1.58485713781378  3.89361404810481  3.79386176727673
 1 -2.91877953195320  4.58335797489749  4.80182584548455
 1 -2.49441937443744  2.73191638573857  4.93755073187319
 1 -5.32338619791979  6.62589057155716  2.34289640544054
 1 -10.17288127062706  2.95211236313631 -3.15730688528853
 1 -9.77781526442644  4.69511704620462 -2.89113210581058
 1 -9.85095085598560  4.71479937993799 -5.22702901350135
 1 -7.92056602260226  4.97271921252125 -4.35735541734173
 1 -8.48798907380738  3.07944225812581 -5.09482359705971
 1 -8.12344892649265 -1.22851610931093 -4.79980994999500
 1 -8.40485011291129 -2.87051411171117 -3.90552989688969
 1 -9.29232248134814 -1.31679831443144 -3.50315460056006
 1 -4.06022779877988 -3.73461928492849 -1.43214814491449
 1  2.42896083988399 -6.33030032313231  1.12547093499350
 1  2.01440476707671 -5.34820334673467 -0.34739017411741
 1  3.99957593999400 -4.07136725902590  1.85686405050505
 1  2.92960041194119 -3.77210876577658 -1.82321497159716
 1  3.85408274627463 -2.26796149674967 -1.54008222572257
 1  4.60635314271427 -3.76107796409641 -1.55838729602960
 1  5.06843071207121 -1.62229777437744  0.42330272137214
 1  5.29121147954795 -2.79707402460246  1.80486437273727
 1  6.90642986298630 -3.94595889538954  0.32529185088509
 1  6.35532437193719 -2.73334555055506 -0.97001668786879
 1  7.10504130573057 -0.79728628292829  0.46349510281028
 1  7.53945285548555 -2.00653890239024  1.80617809020902
 1  8.84674057365737 -1.97521556225623 -1.14595281398140
 1  8.97531969736974 -4.27310617051705 -0.20822329252925
 1  10.60105313471347 -3.53305666036604 -0.11840942284228
 1  9.58705545314531 -3.52100782938294  1.37077804080408
 1  9.49673073397340  0.06212462286229  0.04130330473047
 1  10.11941089968997 -0.84255257455746  1.54455539283928
 1  11.73703563466347 -1.83350067176718 -0.00034934273427
 1  11.16150209040904 -0.88691032653265 -1.33212405610561
 1  11.50475049314931  1.17193026482648  0.03825661526153
 1  12.33993475217522  0.13598488178818  1.12992216731673
 1  13.07531827412741  0.36803154595460 -1.52661886668667
 1  14.89470969816982 -1.07078009530953  0.43592869036904
 1  13.93110349684969 -1.82258543744374 -0.82283853795380
 1  15.32448230473047 -0.62776610431043 -1.07743014601460
 1  13.35629487508751  2.41451975117512 -0.17980785808581
 1  14.40956856905690  1.54929134363436  0.86002482978298
 1  16.24215294239424  1.49396485798580 -1.09964777977798
 1  14.99398419391939  2.03638188958896 -2.02724625552555
 1  15.03788525062506  4.50035324302430 -0.67446872687269
 1  16.11121075497550  3.44061002040204  0.55922838163816
 1  17.87289710651065  3.35570907940794 -1.24292868076808
 1  16.28737587438744  5.42994027292729 -3.19635391429143
 1  17.79434182408241  4.52853924712471 -3.52361979557956
 1  16.33189787508751  3.63472838403840 -3.48270882408241
 1  17.93383125712571  4.87091774477448  0.48773793949395
 1  18.80616822762276  5.49873610011001 -1.02094423552355
 1  17.29962253205321  6.26699110921092 -0.73806215831583
 1 -5.09857774237424 -7.83844494389439 -0.21352566856686
 1 -6.72121261256126 -7.14790417181718  0.38991883518352
 1 -4.92469468686869 -6.88987886408641  1.36767963636364
 8 -7.72377527282728  6.96856688808881 -0.56626005440544
 1 -8.90424380818082  6.32510992669267 -2.01187965546555

