%nproc=3
%Mem=2GB
# td=(NStates=1) iop(3/107=0140000000,3/108=0140000000) iop(3/107=0140000000,3/108=0140000000) CAM-B3LYP/6-31G(d,p) 

TD

0 1
12 -5.60218594979498  1.22465249294929  0.29369203800380
 6 -5.08816893869387 -2.16172013671367 -0.41253431853185
 6 -3.15861732163216  1.22944548604860  2.59047048524853
 6 -6.20271669396940  4.59918794189419  0.57887024822482
 6 -8.04778569656966  1.18464714711471 -2.27897199109911
 7 -4.39645673017302 -0.36653257635764  0.90108027502750
 6 -4.32976819721972 -1.67842902430243  0.61727544604460
 6 -3.19881128282828 -2.36794799339934  1.38112370097010
 6 -2.78688284368437 -1.26307697739774  2.54178096469647
 6 -3.41772857285729 -0.04681383398340  2.00051070967097
 6 -3.44172628062806 -1.74531122372237  3.84280213961396
 6 -1.99947479077908 -2.84684867806781  0.55567975407541
 6 -0.95248301120112 -3.63812890079008  1.43521739863986
 6  0.18966483388339 -3.88876374847485  0.57388554965497
 8  0.40754460836084 -3.51584127292729 -0.57103711911191
 8  1.02726440864086 -4.84058920372037  1.17794378287829
 7 -4.85640419141914  2.67576781348135  1.35631231783178
 6 -3.86694078127813  2.47027504350435  2.45854107990799
 6 -3.54345488268827  3.71793187568757  3.02979192359236
 6 -4.39863561926193  4.67139560506051  2.44310019421942
 6 -5.25779514191419  3.91829650615061  1.43232838473847
 6 -2.52317094199420  3.87056414011401  4.24125799629963
 6 -4.58250095009501  6.07078711291129  2.88665410221022
 8 -3.94950743804380  6.56830166036604  3.80627459996000
 7 -6.79154080368037  2.59945787828783 -0.78458112581258
 6 -7.00520271807181  3.90821122662266 -0.33773197629763
 6 -7.97203234343434  4.56934799159916 -1.09291210031003
 6 -8.53220625342534  3.65863499359936 -2.00515506790679
 6 -7.91293510501050  2.38947712181218 -1.67256102590259
 6 -8.34650692939294  5.98791016071607 -1.05723685828583
 6 -9.53691016941694  3.81945288358836 -2.97575012361236
 6 -9.07521650235024  3.79409077217722 -4.42567581428143
 7 -6.33341910921092 -0.09167434763476 -1.12638365876588
 6 -7.37500110681068 -0.06177708330833 -2.04773069566957
 6 -7.63218633523352 -1.32603775647565 -2.68028105270527
 6 -6.74447993169317 -2.18328210151015 -2.07359656955696
 6 -5.98916684018402 -1.33863789328933 -1.12380024472447
 6 -8.56519189388939 -1.49178896749675 -3.73912483188319
 6 -6.27187081418142 -3.62311141714171 -1.99014440834083
 8 -6.58159139973997 -4.55072004210421 -2.63720396609661
 6 -5.07166742024202 -3.48170993769377 -0.92598921972197
 6 -5.30016714431443 -4.69301450305031  0.12687983898390
 8 -5.66421060366037 -4.46403233663366  1.32090921122112
 8 -5.08713867706771 -5.89753363746375 -0.39171334273427
 6 -5.52846619581958 -6.89084267536754  0.50605814061406
 6  2.26770345194519 -5.04633089328933  0.56880486178618
 6  3.44976828692869 -4.12630412971297  0.91134242004200
 6  4.04004310801080 -3.21646146704670  0.15697807280728
 6  3.70146504380438 -3.11363455185519 -1.35993366216622
 6  5.13810801680168 -2.35431970017002  0.69514136503650
 6  6.56425202990299 -2.71485643864386  0.08275860176018
 6  7.57227635433543 -1.70795244104410  0.61215505010501
 6  9.07786639513951 -1.87601358335834  0.08253153995400
 6  9.68811589168917 -3.23709361186119  0.35663878887889
 6  10.04773020862086 -0.83043366426643  0.56529449284928
 6  11.36137929522952 -0.86463925902590 -0.18220353095310
 6  12.29648726932693  0.25781497199720  0.26292708090809
 6  13.54544393849385  0.40158984588459 -0.45112486968697
 6  14.46726489948995 -0.82258298829883 -0.02465915111511
 6  14.24899483768377  1.77091186338634 -0.20329797219722
 6  15.46979626052605  2.19480141544154 -1.11165827352735
 6  15.95924554425442  3.55470798079808 -0.76159725272527
 6  17.42271666636664  3.88390730623062 -1.40988203600360
 6  17.19089807190719  3.90404596729673 -2.91274359435944
 6  17.87372079127913  5.16420454645465 -0.75616657365737
 1 -2.40132563846385  1.20387725132513  3.39269688088809
 1 -6.19237011991199  5.56990319251925  0.69166892959296
 1 -8.73929912901290  1.13254751625163 -3.19672505340534
 1 -3.87978504370437 -3.03444656135614  1.80092583468347
 1 -1.73163424942494 -1.16383399159916  2.50963312931293
 1 -2.83840316551655 -2.60799738063806  4.29461940784078
 1 -3.22561916201620 -0.97776989468947  4.50770690659066
 1 -4.39539121492149 -1.90595851385139  3.46902012461246
 1 -2.46969413501350 -3.59069211421142 -0.15049278387839
 1 -1.63170387008701 -1.93116174357436  0.09589043034303
 1 -0.54692908300830 -2.93836380868087  2.31002554365437
 1 -1.29354883348335 -4.53340017631763  1.80769980668067
 1 -1.63497214931493  3.60129481618162  3.80238261936194
 1 -2.65925357935794  4.80479011811181  4.47533319621962
 1 -2.94343427592759  3.34024721882188  5.08428540534053
 1 -5.21057491679168  6.83244122662266  2.17491960776078
 1 -10.17414139663966  3.06042319421942 -2.77771892649265
 1 -10.03606108900890  4.74700223472347 -2.64635762836284
 1 -10.02360812171217  4.14617251725172 -5.06278258885889
 1 -8.37256122212221  4.76831877247725 -4.93373305510551
 1 -8.32620289518952  3.09604391829183 -4.76665077977798
 1 -8.40190677227723 -0.83944720242024 -4.55449541854185
 1 -8.62216184408441 -2.45509256955696 -4.19026837073707
 1 -9.63407665676568 -1.24151078567857 -3.59272355745575
 1 -4.22399417541754 -3.83945976897690 -1.56278120822082
 1  2.76380432423242 -5.92469976307631  1.02696108400840
 1  1.84930825742574 -5.18471699809981 -0.46615205030503
 1  3.82188817121712 -4.19730985328533  1.84867323142314
 1  2.48207565946595 -3.26009756465647 -1.68858150825083
 1  3.88870620862086 -2.12554725532553 -1.68343656115612
 1  4.35847835523552 -3.63629548584858 -1.96612807010701
 1  4.92140600960096 -1.31514705930593  0.34252464356436
 1  4.94861722012201 -2.16181049824982  1.80750463676368
 1  7.04347356735674 -3.61932623212321  0.71692101380138
 1  6.46594543404340 -3.07109932593259 -0.99049873607361
 1  7.13210401200120 -0.67973452775278  0.26741549484948
 1  7.74575348554855 -1.50441869036904  1.87896536893689
 1  8.90217611721172 -1.77920596129613 -1.17087530623062
 1  8.79770193559356 -3.86555541544154  0.19805733553355
 1  10.55665869526953 -3.32507586228623 -0.22800038193819
 1  9.92182893049305 -3.29667539613961  1.33393435643564
 1  9.67403846474647  0.19113752415242  0.58851802620262
 1  10.40777973657366 -0.85505382468247  1.69278021532153
 1  11.99909184028403 -1.60750807250725 -0.23112242004200
 1  11.16759269946995 -0.62673430893089 -1.29285012871287
 1  11.54222424052405  1.19323239503950  0.22041483108311
 1  12.47586834553455  0.09553083638364  1.24023319841984
 1  13.43826456875687  0.26817155995600 -1.38415462026203
 1  14.78948917611761 -0.72354537183718  0.99103420092009
 1  13.84803519001900 -1.64580775967597 -0.51938819291929
 1  15.43763361986199 -0.68744207190719 -0.43317572057206
 1  13.50049929552955  2.63198149734973 -0.15872574987499
 1  14.56892450465046  1.85052146664666  0.90342917021702
 1  16.25505423252325  1.44156961846185 -1.03334114911491
 1  15.09729452495250  2.19433768516852 -2.04931846274627
 1  15.25404686678668  4.32506571427143 -0.84161544154415
 1  16.00002963686368  3.67542350175018  0.31000345914591
 1  18.00136995379538  3.22220572907291 -1.16702109000900
 1  16.43515065186519  4.64852213111311 -3.36116039493949
 1  18.06788917881788  4.10084647784778 -3.46662409600960
 1  16.90112479777978  2.95416032723272 -3.20181073427343
 1  18.13202107610761  4.91357201020102  0.27756692239224
 1  18.90398800960096  5.55403162966297 -1.06515865696570
 1  17.24699726952695  6.05390980108011 -0.67750610271027
 1 -5.07069495409541 -7.86488758815882  0.10458614261426
 1 -6.58788928022802 -7.02040142154215  0.69679952325233
 1 -5.04663688108811 -6.71261113731373  1.41919478787879
 8 -8.01403429872987  6.78579861126113 -0.30185361376138
 1 -9.20073345714571  6.10344776047605 -1.62722118961896

