%nproc=3
%Mem=2GB
# td=(NStates=1) iop(3/107=0140000000,3/108=0140000000) iop(3/107=0140000000,3/108=0140000000) CAM-B3LYP/6-31G(d,p) 

TD

0 1
12 -5.77610334153415  1.22284231193119  0.21488415721572
 6 -5.08544866666667 -2.16379034373437 -0.38408147324732
 6 -3.47467892779278  1.08036057755776  2.76071750995099
 6 -6.16222264456446  4.54187221032103  0.61773413461346
 6 -7.98822974097410  1.21268995139514 -2.42524661856186
 7 -4.46617370187019 -0.35613153625363  1.02173234023402
 6 -4.28985420582058 -1.68402958435844  0.67729144764476
 6 -3.33623502520252 -2.40223142174217  1.55418100670067
 6 -3.01534568996900 -1.34937560726073  2.61260804740474
 6 -3.75438223822382 -0.12644179677968  2.13492415101510
 6 -3.51413352135214 -1.78009470207021  3.99770763016302
 6 -2.01978682198220 -2.66751074427443  0.70113429952995
 6 -0.98081584448445 -3.52893798169817  1.38039191609161
 6  0.14873074047405 -3.92655752785278  0.44784294539454
 8  0.44911876577658 -3.46813650245025 -0.60838085348535
 8  1.03663534573457 -4.73063820862086  1.14633062156216
 7 -4.96748529952995  2.61832206890689  1.53570025662566
 6 -3.97990207740774  2.39975799179918  2.48222344814481
 6 -3.67813835103510  3.58733881638164  3.20888983338334
 6 -4.40649640534053  4.58029649514951  2.64244012821282
 6 -5.14054341674167  3.97145182168217  1.53730888278828
 6 -2.74859348424842  3.64709179287929  4.38936280678068
 6 -4.54045674567457  6.01258129232923  2.99846528332833
 8 -3.75106759405941  6.50306513671367  3.82321629412941
 7 -6.91090273987399  2.55723365586559 -0.68532119981998
 6 -6.91650384818482  3.95059546504650 -0.34750295339534
 6 -7.84787992819282  4.67378843564356 -1.22138494759476
 6 -8.36651968476848  3.70457958805881 -2.02292684508451
 6 -7.77199101060106  2.38010618471847 -1.74583835363536
 6 -8.12690496919692  6.12143351305131 -1.25747688228823
 6 -9.35534201260126  3.88208914721472 -3.19771231983198
 6 -8.72738171887189  3.93289465256526 -4.45297854455445
 7 -6.38947471477148 -0.09752493269327 -1.13784480488049
 6 -7.29879348604860  0.07134622902290 -2.17719364196420
 6 -7.59816293289329 -1.37625277797780 -2.73615664026403
 6 -6.76405188888889 -2.15509928322832 -2.05571478137814
 6 -6.10145806930693 -1.38592262176218 -1.13083094779478
 6 -8.52996837153715 -1.62987277587759 -3.79916083548355
 6 -6.17942156925693 -3.60034914091409 -2.11141653555356
 8 -6.46173941454145 -4.59398436853685 -2.66114636033603
 6 -5.04892514601460 -3.59310107680768 -0.82480910171017
 6 -5.35001212881288 -4.74424962656266  0.16576372737274
 8 -5.86426060866087 -4.53958989238924  1.25933305360536
 8 -5.09907987118712 -5.87875175927593 -0.37738190959096
 6 -5.36105945514552 -6.99537312841284  0.56847438223822
 6  2.22061874347435 -5.08221448164816  0.62168014931493
 6  3.34165747584758 -4.15863736303630  1.06998828462846
 6  3.98058716241624 -3.24783460436044  0.32855523052305
 6  3.76863176047605 -3.03153634203420 -1.18177584638464
 6  5.15098930493049 -2.37998226642664  0.82248409930993
 6  6.46956256095610 -2.63439839283928  0.14178450435043
 6  7.57845697239724 -1.76748839463946  0.74069790439044
 6  9.00158876737674 -1.97680366236624 -0.06395310851085
 6  9.68766584668467 -3.40600050255025  0.31730485548555
 6  9.97404283988399 -0.84022464336434  0.36263422682268
 6  11.41622477977798 -0.78107090219022 -0.23792910351035
 6  12.22170979157916  0.39606879737974  0.20093088128813
 6  13.51989138323832  0.51849153605361 -0.55800555775578
 6  14.43461163416342 -0.59929065906591 -0.32590927612761
 6  14.21740167836784  1.86976174837484 -0.18163580598060
 6  15.61970125102510  2.21790372567257 -0.96782389008901
 6  16.15966558625863  3.55165767576758 -0.69944103710371
 6  17.38708310301030  3.92309122462246 -1.43178422622262
 6  17.20893987608761  3.89914547724772 -3.09068138813881
 6  17.89778319751975  5.38532665866587 -0.94160511751175
 1 -2.69199470537054  1.05813267686769  3.68011562276228
 1 -6.45671655455546  5.58456465866587  0.62363212591259
 1 -8.79450464956496  1.27213147464747 -3.25606098699870
 1 -3.65093215841584 -3.38076119281928  1.83687943004300
 1 -1.86104719071907 -1.04195180338034  2.71804397039704
 1 -3.03157248244825 -2.60564714561456  4.49812975887589
 1 -3.46362296239624 -1.00210232793279  4.75729186508651
 1 -4.69155083088309 -2.07676559455946  4.03854707730773
 1 -2.43265043064306 -3.40211325632563 -0.13841157575758
 1 -1.76369706940694 -1.76828545594559  0.22672351365137
 1 -0.61263565366537 -3.19372934523452  2.35373991509151
 1 -1.45661514011401 -4.37386422272227  1.60658969566957
 1 -1.83469212131213  2.92170685738574  4.26009839093909
 1 -2.50480813481348  4.70672031113111  4.74314997789779
 1 -3.30800073257326  3.18723191729173  5.26248322512251
 1 -5.33798765806581  6.61591957445745  2.43163527932793
 1 -9.93326730923092  2.98788594049405 -3.14979613421342
 1 -10.05177266016602  4.71639917441744 -3.08020101270127
 1 -9.35273103400340  4.29115701570157 -5.33172948354836
 1 -7.80585455145514  4.76365830643064 -4.45029471127113
 1 -8.10176045094510  2.89803411731173 -4.75437955265526
 1 -8.52783936553655 -0.95965922362236 -4.65625559455946
 1 -8.18624825272527 -2.74402146244624 -4.48908825272527
 1 -9.64642789188919 -1.76042267686769 -3.40183446854685
 1 -4.23011478747875 -4.06214203720372 -1.39598452855285
 1  2.42201014481448 -6.11364865796580  1.08938732663266
 1  2.28478180478048 -5.14698322472247 -0.41233666876688
 1  3.55678166056606 -4.24663478577858  2.04156252035204
 1  2.75594304620462 -3.19553110801080 -1.42333498359836
 1  3.86424376237624 -2.02083678427843 -1.47063528102810
 1  4.32969547694769 -3.86871872817282 -1.85508696599660
 1  4.96590045904590 -1.30621616621662  0.67601799289929
 1  5.24111647004700 -2.56399071627163  1.85713960026003
 1  6.61911113111311 -3.59743404290429 -0.07220789908991
 1  6.14455329482948 -2.25695791179118 -1.09184887108711
 1  7.30766156775678 -0.78036459075908  0.52413116641664
 1  7.83456236643664 -2.01571982048205  1.87342481488149
 1  8.85668156775678 -1.87555559625963 -1.29095731443144
 1  9.01633379877988 -4.47493635353535  0.26505403520352
 1  10.52654568396840 -3.53295665036504 -0.22844042594259
 1  10.07301404900490 -3.31179690829083  1.52931389438944
 1  9.65289635053505  0.14515292569257  0.33348252265227
 1  9.98612757135714 -1.01549986928693  1.51265220252025
 1  12.15459739083908 -1.73634095579558 -0.21637094489449
 1  11.37296323652365 -1.07699933543354 -1.29144998869887
 1  11.62534255235524  1.39437250905091 -0.02849005940594
 1  12.51312207090709  0.41216249954995  1.29575875097510
 1  13.08081882418242  0.55371011381138 -1.56520272507251
 1  14.52904313151315 -0.72962597989799  0.85594069156916
 1  14.15999638613861 -1.69004218311831 -0.74265051915192
 1  15.53425328182818 -0.66960028772877 -0.71872427542754
 1  13.52327157275728  2.66582488168817 -0.42059193649365
 1  14.62898051025103  1.88562497699770  1.02310113741374
 1  16.49446817391739  1.61585704720472 -0.71941975697570
 1  15.47803259875988  2.10362861426143 -2.13637716861686
 1  15.47688915101510  4.26341954965497 -1.09659093909391
 1  16.23337297119712  3.63698965836584  0.51294375317532
 1  18.05126494329433  3.08507201570157 -1.33084747264726
 1  16.15873301010101  4.26473375227523 -3.35083936283628
 1  18.14361675157516  4.38188458165816 -3.37586502010201
 1  17.23351803710371  2.91937684888489 -3.28959951315132
 1  18.29415728972897  5.20882153515351  0.09916908260826
 1  18.75121273207321  5.78995522202220 -1.67132927402740
 1  17.08877144694469  6.05568997909791 -1.06345469756976
 1 -5.13548143274327 -7.88333943334333 -0.17117143314331
 1 -6.48000849214921 -6.84400378177818  0.71826166946695
 1 -4.78112032943294 -6.84396427262726  1.31050391879188
 8 -7.72482537783778  7.03877390879088 -0.52689611801180
 1 -8.73013639743974  6.33559097479748 -2.21995046254625

