%nproc=3
%Mem=2GB
# td=(NStates=1) iop(3/107=0140000000,3/108=0140000000) iop(3/107=0140000000,3/108=0140000000) CAM-B3LYP/6-31G(d,p) 

TD

0 1
12 -5.55225095629563  1.25750577827783  0.11486415521552
 6 -5.03424354615461 -2.16044000870087 -0.44496756185619
 6 -3.60039149904991  1.11542408390839  2.89400083828383
 6 -6.30265668796880  4.59797782088209  0.66187854905491
 6 -7.98983990199020  1.13431211361136 -2.30346444034403
 7 -4.32347943244324 -0.20441636473647  1.01049121612161
 6 -4.20811603200320 -1.54644582598260  0.61954567306731
 6 -3.15605700740074 -2.21395259385939  1.44526011461146
 6 -2.93271742714271 -1.29025969566957  2.64292107870787
 6 -3.69839663966397 -0.02566171877188  2.15959661826183
 6 -3.45737784578458 -1.80012670527053  4.09360722012201
 6 -1.95493033633363 -2.61843583678368  0.57931211731173
 6 -1.00397816071607 -3.46144123202320  1.42644652155216
 6  0.26274214161416 -3.77987285938594  0.52832099319932
 8  0.43476733063306 -3.42582227102710 -0.58306832223222
 8  1.07526920912091 -4.70375552035204  1.21094708320832
 7 -5.01755030603060  2.67895813251325  1.47490417701770
 6 -4.12380646784678  2.42989100510051  2.45456068186819
 6 -3.78904944214421  3.64718480098010  3.16575551995200
 6 -4.64059981568157  4.63020148564856  2.65441132533253
 6 -5.36035539793979  3.98987366386639  1.53857900980098
 6 -2.69815844074407  3.83110019371937  4.26014988548855
 6 -4.71900460046005  6.12797283148315  2.95655109190919
 8 -4.11765425272527  6.61528635883588  3.85139911241124
 7 -6.72351400100010  2.65626355885589 -0.83115578327833
 6 -7.00298249604961  3.94675508100810 -0.41720992409241
 6 -8.02719785998600  4.62437349414942 -1.14067687678768
 6 -8.51783481628163  3.64896402650265 -1.94928948134813
 6 -7.78733254475448  2.38624679877988 -1.68798256805681
 6 -8.47297957665767  6.01213258295830 -1.14428556315632
 6 -9.58092457085709  3.77707864616462 -3.05682823142314
 6 -8.75579456015602  4.00735209830983 -4.45284853155315
 7 -6.29003477077708 -0.09120430063006 -1.06949797019702
 6 -7.23223683038304 -0.06769767536754 -2.02564848744874
 6 -7.38600171677168 -1.38173332603260 -2.76076910151015
 6 -6.63688917261726 -2.17490126342634 -2.10551976187619
 6 -5.90227815131513 -1.39949397889789 -1.10346821152115
 6 -8.38736411111111 -1.63043283188319 -3.82337325672567
 6 -6.25047867496750 -3.56873597959796 -2.01739713361336
 8 -6.47344058465847 -4.56761173127313 -2.62386263196320
 6 -4.98134838833883 -3.58037980468047 -0.98630525132513
 6 -5.28605573317332 -4.61677687928793  0.12403955495550
 8 -5.74334851745174 -4.53705963936394  1.21544866516652
 8 -5.01225118831883 -5.81840572467247 -0.32281645304530
 6 -5.10009335853585 -6.92330592169217  0.53444097889789
 6  2.27130381198120 -5.01243750395040  0.58696667796780
 6  3.36345965606561 -4.05558705800580  0.95696698249825
 6  4.08073717741774 -3.31384120502050  0.12460483548355
 6  3.84982988028803 -3.10041322972297 -1.39043671247125
 6  5.14669887588759 -2.45605987418742  0.71253310421042
 6  6.54211981668167 -2.73463841684168 -0.04094376847685
 6  7.70014914161416 -1.87322896869687  0.67553138773877
 6  9.09481809030903 -2.15520150215022  0.08993228002800
 6  9.66243332343234 -3.53441334383438  0.41719484448445
 6  10.08425386098610 -1.05417603850385  0.57920588398840
 6  11.38354151145114 -0.94461725682568 -0.21305661626163
 6  12.21952957355736  0.19942913341334  0.16890767896790
 6  13.56843623772377  0.53008269516952 -0.52603236043604
 6  14.45129330233023 -0.79780051005101 -0.35876256145615
 6  14.18533847204720  1.79295406760676 -0.17900554295430
 6  15.31807108800880  2.09504143944394 -1.09092620032003
 6  15.98890851055105  3.51602411241124 -0.67940903390339
 6  17.31178557325732  3.84493340884088 -1.47421846964696
 6  17.16500548264827  3.99097466016602 -2.88375069506951
 6  17.80588400760076  5.27194532053205 -0.91271222822282
 1 -2.90995650155015  1.25175203880388  3.81763937513751
 1 -6.49394027692769  5.58334453665367  1.02734249694970
 1 -8.72830802990299  1.02360662216222 -2.94222960386039
 1 -3.70151721692169 -3.27433054975497  1.71032677477748
 1 -1.72672375837584 -0.74723233143314  2.78777094309431
 1 -2.98997832303230 -2.84088066896690  4.30682062796280
 1 -2.95909250935093 -1.10111222892289  4.82942907880788
 1 -4.66003767956796 -1.86150406840684  4.27470069266927
 1 -2.47784495009501 -3.17403044804480 -0.07471520612061
 1 -1.52299299899990 -1.75271389878988  0.36780762206221
 1 -0.68532292239224 -2.78375834813481  2.34699924102410
 1 -1.38722820142014 -4.45725256155615  1.59622865956596
 1 -1.81927057915792  3.42135682238224  4.01230361146115
 1 -2.57414506850685  4.84680431953195  4.59980564346435
 1 -2.94574450695070  3.18119131323132  5.25143212001200
 1 -5.48677253655366  6.72043002550255  2.31734385018502
 1 -10.26832081458146  2.71022817471747 -3.32627378197820
 1 -10.50409789268927  4.58929646414641 -3.01770476307631
 1 -9.41405716661666  4.01796969696970 -5.36034234483448
 1 -8.36853081908191  5.17059900050005 -4.26504618641864
 1 -7.98878915381538  3.28683299719972 -4.72554666936694
 1 -8.27305388698870 -0.78371162886289 -4.79438940794079
 1 -8.12870249814982 -2.52942000230023 -4.10162950685068
 1 -9.37039028812881 -1.68947558215822 -3.65562984808481
 1 -4.07898967496750 -3.77018284128413 -1.47602253235324
 1  2.47754569836984 -6.04953224632463  0.99145753365337
 1  2.07730105670567 -5.16165469186919 -0.60459589468947
 1  3.54929091149115 -4.00766088838884  2.07876624072407
 1  2.66587403930393 -3.18652020692069 -1.85721837193719
 1  4.17889522752275 -1.95021972257226 -1.67967618511851
 1  4.45691819921992 -3.61586344264426 -2.10318177547755
 1  4.93932780178018 -1.46076162076208  0.53076346744674
 1  5.41896425482548 -2.87785210241024  1.67293117941794
 1  6.81359057905791 -3.78233253275328  0.00979030073007
 1  6.51037987748775 -2.65904812081208 -1.20612029822982
 1  7.43022382398240 -0.97663421772177  0.38363711701170
 1  7.49468837903790 -2.07679592809281  1.79616708910891
 1  8.85312121172117 -1.81704974567457 -1.02359057775778
 1  9.13167533293329 -4.37830669056906  0.18311584138414
 1  10.48895192459246 -3.58330168486849 -0.04621220312031
 1  9.82506925452545 -3.62739846844685  1.44362532553255
 1  9.84267532843284  0.06115452585259  0.51681085548555
 1  10.44360331893189 -1.27537585688569  1.71737267456746
 1  11.70049198029803 -1.83730105180518 -0.22196150395040
 1  11.08700464066407 -0.83560519601960 -1.46931777547755
 1  11.60910092819282  1.11741481328133  0.14620741034103
 1  12.32341310001000  0.14600588388839  1.27694686978698
 1  13.39489023132313  0.51877662046205 -1.78960516531653
 1  14.69966019321932 -1.05736875417542  0.80343544104410
 1  13.97709809630963 -1.79455263416342 -0.70409666376638
 1  15.45432528902890 -0.53099642734273 -0.78224062706271
 1  13.42435168076808  2.55140343954396 -0.42373225052505
 1  14.38897650985098  1.84132054655466  0.81449027632763
 1  16.13317204430443  1.26788224972497 -0.87996581158116
 1  15.12101689718972  2.30609886128613 -2.17385091599160
 1  15.18613007510751  4.22641584928493 -0.84823610361036
 1  16.22794242814281  3.74206016541654  0.52547500630063
 1  17.92682249904990  3.04142765126513 -1.24123851175117
 1  16.39025616241624  4.63249052795280 -3.28193247214721
 1  18.20048243814381  4.20690708390839 -3.47607504110411
 1  16.75929061436144  3.20171508270827 -3.47975852905291
 1  17.85651352535253  5.31686233923392  0.33409257495750
 1  18.86960457125713  5.50831705820582 -1.18288042914291
 1  17.24958752855285  6.03094750485049 -1.32640099219922
 1 -4.59424730933093 -7.85144624402440 -0.07413172917292
 1 -6.12113260456046 -7.29459884128413  0.81575141844184
 1 -4.51388360576058 -6.89958983518352  1.59556242464246
 8 -7.89996289158916  6.93006303770377 -0.51318474687469
 1 -9.23341672547255  6.20163757945795 -1.91850031753175

