%nproc=3
%Mem=2GB
# td=(NStates=1) iop(3/107=0140000000,3/108=0140000000) iop(3/107=0140000000,3/108=0140000000) CAM-B3LYP/6-31G(d,p) 

TD

0 1
12 -5.63998973017302  1.23993402110211  0.20886355515552
 6 -5.01624174597460 -2.21572553725373 -0.42667573267327
 6 -3.43287474737474  1.21142368386839  2.69897133533353
 6 -6.30525694799480  4.50709873297330  0.64496685788579
 6 -8.06076699469947  1.19528821122112 -2.31277537143714
 7 -4.50050713521352 -0.30651657475748  1.01718188518852
 6 -4.24492971337134 -1.51998317971797  0.56546026452645
 6 -3.13597499919992 -2.23547474607461  1.41035662426243
 6 -2.94260841624162 -1.24243491319132  2.57563435003500
 6 -3.60741754175418 -0.00291944454445  2.03104376297630
 6 -3.50607271527153 -1.83505019761976  3.90843870327033
 6 -1.82949779307931 -2.50245423862386  0.58360254635464
 6 -0.90024778767877 -3.44813990189019  1.34924880178018
 6  0.32804867226723 -3.82652752485249  0.54489265036504
 8  0.60613446734673 -3.36603629242924 -0.55777579297930
 8  1.12072375457546 -4.63708885368537  1.32447843634363
 7 -5.07404595559556  2.64852508920892  1.46870355695570
 6 -4.08497258445845  2.42497051305131  2.43835906170617
 6 -3.70727126432643  3.74320440294029  3.04914385878588
 6 -4.60641639733973  4.66823528902890  2.56828271247125
 6 -5.42710207260726  3.98222289878988  1.52783793569357
 6 -2.77559618451845  3.79267635133513  4.21069493999400
 6 -4.72888558855886  6.05918595279528  2.93279871667167
 8 -4.07114960226023  6.56278110831083  3.85238921142114
 7 -6.95859750935093  2.58102603510351 -0.64424709240924
 6 -6.95434763256326  3.85021542704270 -0.31519972307231
 6 -7.89466460666067  4.65452650945095 -1.29014182328233
 6 -8.49201223402340  3.65761489158916 -2.01322587498750
 6 -7.84861867336734  2.38929710381038 -1.63617738753875
 6 -8.23375565426543  6.10704207390739 -1.25544667926793
 6 -9.52904938333833  3.83852479077908 -3.14211676027603
 6 -8.85468444914491  4.07543890699070 -4.49888313501350
 7 -6.46915268256826 -0.11059623982398 -1.03162418281828
 6 -7.54170777747775 -0.05883678927893 -1.92656857945795
 6 -7.68100121672167 -1.34588974167417 -2.63413643824382
 6 -6.71530701440144 -2.17018079137914 -2.05502471237124
 6 -6.03152107560756 -1.44733876337634 -1.06723458815882
 6 -8.62927830253025 -1.68416820542054 -3.71921284068407
 6 -6.26428005510551 -3.56941604760476 -2.06006140004000
 8 -6.59339257985799 -4.60016498659866 -2.72162240794079
 6 -5.01591184468447 -3.58432019871987 -0.98426504730473
 6 -5.20858798639864 -4.68698389999000  0.00479763076308
 8 -5.59795397799780 -4.50960689408941  1.18590571087109
 8 -4.95052501570157 -5.87468135223522 -0.48432260366037
 6 -5.32817616681668 -7.00985457655766  0.39246678147815
 6  2.39084576617662 -5.01023728392839  0.64691267256726
 6  3.46858016811681 -4.13637513681368  1.13896518231823
 6  4.14443354705471 -3.29395921682168  0.31231360636064
 6  3.66286118341834 -3.00640382878288 -1.06813448224822
 6  5.28343254925493 -2.49405367356736  0.86207805870587
 6  6.56778238293829 -2.69758471147115  0.20558088398840
 6  7.75725485218522 -1.88911055685569  0.61703553815382
 6  9.13776238473847 -2.03096907890789 -0.05515222842284
 6  9.70368744884488 -3.48498840134013  0.26016914191419
 6  10.02112754835484 -0.97921854275428  0.47810577397740
 6  11.48231138843884 -0.99222201730173 -0.12866817741774
 6  12.26705432603260  0.22450164066407  0.21221200940094
 6  13.57627702180218  0.38906859375938 -0.58779853705371
 6  14.43605177817782 -0.79282001200120 -0.33209989518952
 6  14.36564650285029  1.63271804400440 -0.07620526292629
 6  15.58454773567357  2.04358629392939 -1.00100720842084
 6  16.08109772947295  3.60747325732573 -0.68897999099910
 6  17.34303869856986  3.89859877537754 -1.49630067786779
 6  17.05730471257126  4.04686024872487 -2.96030835083508
 6  17.91050446964696  5.24223234923492 -1.01350230723072
 1 -2.73917942384238  1.16191305490549  3.43447105830583
 1 -6.33493437633763  5.64858106030603  0.57796755945595
 1 -8.53955915501550  1.33798806030603 -3.26871225212521
 1 -3.70463752895289 -3.24738785548555  1.90722646474647
 1 -1.71150223622362 -0.94210181838184  2.71370353635364
 1 -2.98181750695069 -2.74208078897890  4.20683062896290
 1 -3.37695429552955 -1.12954507220722  4.68590472637264
 1 -4.64148582438244 -2.00435835383538  3.77158038063806
 1 -2.06416358195820 -2.56643968896890 -0.54127186178618
 1 -1.35152585228523 -1.30346897429743  0.48749959125913
 1 -0.51744613471347 -2.81335130743074  2.20568510961096
 1 -1.49722920152015 -4.28404524082408  1.79762879957996
 1 -1.80750940304030  3.41375606230623  4.07764014511451
 1 -2.68199585358536  4.76007564666467  4.58435409830983
 1 -3.33008294079408  3.26855004910491  5.23692066886689
 1 -5.56972083138314  6.74079206170617  2.42249436523652
 1 -10.23394737723772  3.07507465936594 -3.30674182878288
 1 -10.10792827572757  4.89546708120812 -2.76381937453745
 1 -9.55707146804681  4.18164606460646 -5.36268257885789
 1 -8.11184515051505  4.91827376797680 -4.37921760356036
 1 -8.04806508140814  3.29626394029403 -4.72050616531653
 1 -8.51209779137914 -1.23151640934093 -4.83831380038004
 1 -8.51872150005000 -2.73709076937694 -3.82239158305831
 1 -9.65382863196320 -1.56110274487449 -3.26697098219822
 1 -4.20040181618162 -3.79482530553055 -1.57496242634263
 1  2.24976292009201 -6.16111340444044  0.97253564146415
 1  2.17909123572357 -4.85322384878488 -0.45104053915391
 1  3.68672465486549 -4.15106522882288  2.15167353145315
 1  2.83976142804280 -3.35005656055606 -1.40149279937994
 1  3.63091042904290 -1.86588128872887 -1.16479469696970
 1  4.35194770217022 -3.23891574787479 -1.71101255855586
 1  4.98074194319432 -1.44917046164616  0.74071446254625
 1  5.44280663906391 -2.70392470967097  1.92644653095310
 1  6.85204442444244 -3.70647494699470  0.02902222392239
 1  6.46505534503450 -2.50081229722972 -0.98848853505350
 1  7.40047084868487 -0.89896645094510  0.55876462976298
 1  8.17615652585258 -2.12386063456346  1.55481295369537
 1  9.12469836943694 -1.88982702340234 -1.23137135583558
 1  9.11408357375737 -4.21557041694169 -0.36540901110111
 1  10.85820885028503 -3.72136549124913 -0.05414299619962
 1  9.61551829942994 -3.63960968956896  1.30397136013601
 1  9.70224128502850 -0.05632722232223  0.34847402180218
 1  10.02959191779178 -1.18350666996700  1.60500143744374
 1  12.00396232733273 -1.73895121682168  0.16037672987299
 1  11.58040398059806 -1.01241287678768 -1.16042688638864
 1  11.57025704380438  1.00620369216922 -0.09245645604561
 1  12.48339909860986 -0.00957967466747  1.31158033313331
 1  13.24872561486148  0.66392113491349 -1.72262846764676
 1  14.74890511771177 -0.86000901820182  0.73873897139714
 1  13.98735912241224 -1.79044222312231 -0.46743299739974
 1  15.51334119061906 -0.77868119581958 -0.93045544854486
 1  13.71394063966397  2.61643994319432  0.05939606230623
 1  14.79935754795479  1.42252866736674  1.11742056935694
 1  16.36110483758376  1.32739820132013 -0.90336815181518
 1  15.23101789728973  2.18020627202720 -1.94289782068207
 1  15.18178964106411  4.25622883058306 -0.84138541854185
 1  16.51964159805981  3.73955991539154  0.18145060386039
 1  17.95538535533553  3.04964847334733 -1.02815720362036
 1  16.11228836563656  4.77874515341534 -2.96104038293829
 1  17.84796718661866  4.30664705790579 -3.60446788038804
 1  16.51922660796080  3.09410432163216 -3.23375392859286
 1  18.04251212521252  5.08623927692769  0.11937110281028
 1  19.09695730653065  5.37914414091409 -1.36767890899090
 1  17.38536110591059  6.12101651175118 -1.28058641074107
 1 -4.81996988158816 -7.84807590699070 -0.17590190619062
 1 -6.35173566486649 -7.37157653905391  0.49398924222422
 1 -4.80470268766877 -6.97822769896990  1.30509337773777
 8 -7.95368826412641  6.84183421482148 -0.30482391079108
 1 -8.85476886068607  6.50685810151015 -2.10703917141714

