%nproc=3
%Mem=2GB
# td=(NStates=1) iop(3/107=0140000000,3/108=0140000000) iop(3/107=0140000000,3/108=0140000000) CAM-B3LYP/6-31G(d,p) 

TD

0 1
12 -5.77701343254325  1.17623765146515  0.24384705350535
 6 -5.03639376117612 -2.10876484118412 -0.34846791189119
 6 -3.48440990089009  1.14817735923592  2.76471790999100
 6 -6.27664408670867  4.62878090119012  0.69446180738074
 6 -8.06559747774777  1.16248493089309 -2.29254334823482
 7 -4.44084116861686 -0.20819674277428  1.08099826682668
 6 -4.32172739313931 -1.55712689408941  0.70851456995700
 6 -3.18390979267927 -2.32333353195320  1.53632922152215
 6 -2.90954510991099 -1.24993566326633  2.66332311891189
 6 -3.67142394239424 -0.00873002560256  2.17734839343934
 6 -3.44744685268527 -1.62147884048405  3.96847470687069
 6 -2.01939678297830 -2.67055104830483  0.66031021712171
 6 -0.93183094599460 -3.53696878477848  1.43194707160716
 6  0.35977184458446 -3.87504237633763  0.65708386948695
 8  0.51724557845785 -3.36838652745275 -0.41017103250325
 8  1.18998068026803 -4.63466861166117  1.28975496399640
 7 -4.95155370637064  2.58699893659366  1.45138182478248
 6 -4.04638872607261  2.47605562156216  2.51703692949295
 6 -3.73307384458446  3.74832491499150  3.06389533393339
 6 -4.61567732343234  4.64489295479548  2.63075896009601
 6 -5.28172753515352  3.94857953445345  1.47334248614861
 6 -2.78407703260326  3.81766885058506  4.22485635613561
 6 -4.61565426542654  6.08432846704671  2.88122355915592
 8 -4.04692718001800  6.72408723892389  3.70974494699470
 7 -6.91609325892589  2.55957388988899 -0.66620928862886
 6 -7.01834403220322  3.91529193469347 -0.33583178627863
 6 -7.98677381758176  4.54804586138614 -1.19983279237924
 6 -8.59438247104710  3.57250638073807 -1.98352290469047
 6 -7.84848866036604  2.39606778087809 -1.69154292409241
 6 -8.52241452015202  5.99690105980598 -1.20904203880388
 6 -9.58903538193819  3.78218915721572 -3.18167071567157
 6 -8.80619960066007  3.82935429852985 -4.48512175887589
 7 -6.47918368566857 -0.16049122932293 -0.99502052245225
 6 -7.48084169086909 -0.05361626722672 -2.03553947654765
 6 -7.66501961856186 -1.39468462116212 -2.64526755135514
 6 -6.77419290299030 -2.16881065436544 -1.97302651255125
 6 -6.07446537003700 -1.43716774627463 -1.01601946664666
 6 -8.63733910861086 -1.63540332893289 -3.78600952035204
 6 -6.18619224632463 -3.53028213421342 -2.01736713061306
 8 -6.40509374997500 -4.52435740584058 -2.62160240594059
 6 -5.05911616511651 -3.52140390709071 -0.89687630843084
 6 -5.19283641124112 -4.59791499309931  0.04289144014401
 8 -5.66409059165917 -4.55472140554055  1.13974109440944
 8 -5.00677064026403 -5.90943482758276 -0.56851102250225
 6 -5.25489883908391 -7.00071366246625  0.29223675847585
 6  2.40123680528053 -5.00187644784478  0.60767874917492
 6  3.45206851695170 -4.10213171247125  0.92398368416842
 6  3.98788789248925 -3.22397221812181  0.09852222722272
 6  3.64283918121812 -3.00160334873487 -1.36202387118712
 6  5.08130233623362 -2.29253352155215  0.61511336223622
 6  6.47481308600860 -2.56954190719072 -0.07139681378138
 6  7.66636576327633 -1.74904655045505  0.51671550615062
 6  9.03653226172617 -1.92933891589159 -0.11175788898890
 6  9.60511759185919 -3.39889979247925  0.12940606560656
 6  9.99834527012701 -0.83197381828183  0.39017698109811
 6  11.40855401270127 -0.74619741484148 -0.28690400100010
 6  12.30705832643264  0.25655484598460  0.29809059725973
 6  13.71604099819982  0.33980366726673 -0.48800855805581
 6  14.61272944594459 -0.89059978997900 -0.20970765596560
 6  14.38048798699870  1.77060183238324 -0.07765540794079
 6  15.61299057995800  2.09342127742774 -1.07761486918692
 6  16.18566818651865  3.41947445744574 -0.69344043704370
 6  17.58576297099710  3.75290420592059 -1.34633568136814
 6  17.36636561866187  3.97275283798380 -2.83970629062906
 6  18.09314273347335  5.00156828282828 -0.73784474147415
 1 -2.67690319621962  1.04288115171517  3.58161577277728
 1 -6.39511039393939  5.71717791999200  0.84466422912291
 1 -8.79465466456646  0.91771603310331 -3.03432881378138
 1 -3.54022108730873 -3.19207232393239  1.81754749684968
 1 -1.84334542054205 -1.03422103030303  2.78896106210621
 1 -2.99760908610861 -2.50455703660366  4.19975992189219
 1 -3.41599819991999 -0.83044516221622  4.85533166906691
 1 -4.54717639343934 -1.90817873587359  3.94476769936994
 1 -2.15699286488649 -3.35709875487549  0.00926319171917
 1 -1.41731243094309 -1.81017964536454  0.24007484878488
 1 -0.47519190929093 -3.17643761606161  2.50429497059706
 1 -1.46421590019002 -4.51638847514751  1.80888992569257
 1 -1.95165381748175  3.31882656935694  4.00934331543154
 1 -2.28442609660966  4.81776141524152  4.59237490039004
 1 -3.36937687018702  3.20631382548255  5.01469844664466
 1 -5.19299315861586  6.71028901140114  2.03082519831983
 1 -10.31035501800180  3.17272442434243 -3.10664181878188
 1 -10.28367585048505  4.67494502900290 -3.12432542514251
 1 -9.47975373627363  3.97710561056106 -5.33259957055706
 1 -8.23475744174417  4.80242218281828 -4.32762244404440
 1 -8.24426470137014  2.87746206010601 -4.68917303200320
 1 -8.67208378997900 -0.84155741344134 -4.55838580758076
 1 -8.68811843974397 -2.55016207650765 -4.04769411331133
 1 -9.62206545564556 -1.63054968956896 -3.42647693279328
 1 -4.03787556355636 -3.83838966196620 -1.45037996809681
 1  2.76158410221022 -5.87543483658366  1.16651503940394
 1  2.22875620222022 -5.25974450085009 -0.36837227232723
 1  3.95929191159116 -4.03382350465046  1.92056042014201
 1  2.71409886178618 -3.39790134503450 -1.30442309240924
 1  3.57072441044104 -1.87889258985899 -1.73449166666667
 1  4.31824433183318 -3.42093394969497 -2.19659111641164
 1  4.79466333533353 -1.14881042564256  0.35226561766177
 1  5.29638199659966 -2.48524284148415  1.77159104540454
 1  6.64468368836884 -3.59777407690769  0.07065638733873
 1  6.44372321182118 -2.45536775277528 -1.10141982818282
 1  7.33844464606461 -0.75244179847985  0.56817557085709
 1  7.86824573477348 -1.87235548404840  1.45913338573857
 1  8.94064996459646 -1.69019706040604 -1.20247846654665
 1  8.93029519491949 -4.14664352425243 -0.16622909310931
 1  10.62716574597460 -3.49425277997800 -0.17005458735874
 1  9.41411815941594 -3.52566829542954  1.27099806280628
 1  9.53575463636364  0.08255666606661  0.34730390479048
 1  10.08813777237724 -0.81563988328833  1.55152608990899
 1  11.91350328142814 -1.75873319501950 -0.32226153395340
 1  11.42306824702470 -0.52255389088909 -1.48068891259126
 1  11.95486550465046  1.29257232903290  0.16538932853285
 1  12.62950370907091 -0.10224894159416  1.36688586368637
 1  13.50895163746375  0.47828257105711 -1.60508671347135
 1  14.95108533573358 -0.89877289458946  0.68614371187119
 1  14.08966935343534 -1.82510568946895 -0.87706396049605
 1  15.50584044054405 -0.67414074177418 -0.77599000200020
 1  13.57965721132113  2.51048934813481 -0.05595547284729
 1  14.85525313751375  1.66469288378838  1.07828665596560
 1  16.32762148924892  1.23661912341234 -0.94699251425143
 1  15.29845464096410  1.93855210661066 -2.19218274917492
 1  15.47448891099110  4.11634484218422 -1.03277455745575
 1  16.21561119501950  3.47820377977798  0.42473493229323
 1  18.32184200100010  2.98490199869987 -0.87058144604460
 1  16.61690882768277  4.78480575947595 -3.23026730563056
 1  18.29985237513751  4.08018441164116 -3.25846327992799
 1  16.96125081038103  3.23412832403240 -3.43343389658966
 1  18.42089996399640  4.86729738273827  0.41499066476648
 1  19.11629924072407  5.28520474697470 -1.09719186028603
 1  17.63294586438644  6.04478888898890 -0.76508486058606
 1 -4.60286817141714 -7.98883998339834 -0.24892920892089
 1 -6.29837032833283 -7.24530391179118  0.43456329962996
 1 -4.65964818221822 -6.74955483168317  1.28439130753075
 8 -8.05812870817082  6.75565559695970 -0.43573700210021
 1 -9.25903928772877  6.38255567126713 -1.85918438593859

