%nproc=3
%Mem=2GB
# td=(NStates=1) iop(3/107=0140000000,3/108=0140000000) iop(3/107=0140000000,3/108=0140000000) CAM-B3LYP/6-31G(d,p) 

TD

0 1
12 -5.63815954715472  1.13392342004200  0.21808447724772
 6 -5.01719184098410 -2.13231719641964 -0.34506757185719
 6 -3.40340180008001  1.13538608010801  2.75366680488049
 6 -6.21313773607361  4.50902892599260  0.63723608480848
 6 -8.03675459345935  1.09028771117112 -2.31657575147515
 7 -4.28569565406541 -0.26132205530553  0.99250941794179
 6 -4.22363758415842 -1.58074925632563  0.66374009250925
 6 -3.29616101780178 -2.37403860246025  1.43498908750875
 6 -2.97615177057706 -1.38522919261926  2.64324111071107
 6 -3.52602940294029 -0.04003315591559  2.07661832043204
 6 -3.59497160516052 -1.71716840944094  3.96534439383938
 6 -1.87621246454645 -2.63602759595960  0.75148933503350
 6 -0.95293305620562 -3.65813090099010  1.40921479837984
 6  0.23602947034703 -3.99451432353235  0.54721288238824
 8  0.42597645154515 -3.51406109490949 -0.50357037243724
 8  1.09194087628763 -4.73856900170017  1.30149613811381
 7 -4.82203075407541  2.61200143684368  1.39476616321632
 6 -4.01513560076008  2.45160317631763  2.46546177197720
 6 -3.73838437563756  3.69422950545054  3.26409535393539
 6 -4.51846760246025  4.62609107460746  2.62929881408141
 6 -5.14113347574757  3.92231690819082  1.51524667656766
 6 -2.78497712261226  3.72674975867587  4.46035990649065
 6 -4.63607630763076  6.09302933713371  2.94523996079608
 8 -3.78787127442744  6.74470930113011  3.67745171767177
 7 -6.85351700130013  2.65450338283828 -0.75816848454846
 6 -6.94678687648765  3.92467287278728 -0.46942514561456
 6 -7.91422656285629  4.63025408220822 -1.27260006910691
 6 -8.48458149094910  3.63468259835984 -2.05505005740574
 6 -7.74780859235924  2.43323149724973 -1.76919068886889
 6 -8.25296757545755  5.99915128482848 -1.08955008960896
 6 -9.45174165256526  3.84838577687769 -3.08719126772677
 6 -8.82038101880188  4.14116547964796 -4.46823006970697
 7 -6.35702146944694 -0.17078225842584 -1.06888790919092
 6 -7.28871247794779 -0.01220212581258 -2.12544846744674
 6 -7.45616873347335 -1.30630578327833 -2.77221024562456
 6 -6.65999148284829 -2.20937471077108 -2.13765297519752
 6 -5.93259118261826 -1.41331536103610 -1.15445331003100
 6 -8.56459183388339 -1.63922371097110 -3.77494841424142
 6 -6.18660228732873 -3.57483658965897 -2.04172956685669
 8 -6.52331557215722 -4.50945591569157 -2.80906115181518
 6 -5.02031228472847 -3.62571433813381 -0.88487510831083
 6 -5.38081520912091 -4.60255545714571  0.04537168816882
 8 -5.91256543914391 -4.52213814721472  1.14123124342434
 8 -4.98614857805781 -5.92014589868987 -0.36335050645065
 6 -5.46056940614061 -6.96365995709571  0.51190872567257
 6  2.39946662826283 -5.12213847404740  0.67831581288129
 6  3.40133344344434 -4.12768426772677  1.17335862166217
 6  4.07231633533353 -3.29574939583958  0.30212258725873
 6  3.76989188648865 -3.07074026242624 -1.15402307110711
 6  5.11516572257226 -2.38933320152015  0.79130098099810
 6  6.56350195489549 -2.71270622362236  0.20586091199120
 6  7.59834896159616 -1.68608025382538  0.68212204680468
 6  9.04345295379538 -1.93190917291729 -0.02355906910691
 6  9.56844392449245 -3.38093799629963  0.23738686368637
 6  10.02673810941094 -0.86790741164116  0.52923088648865
 6  11.32249540684068 -0.73649644474447 -0.39233454405441
 6  12.21037865846585  0.43120231073107  0.14437522572257
 6  13.50134952905291  0.52759244614461 -0.64926468366837
 6  14.23850202320232 -0.81345207520752 -0.46223290849085
 6  14.39639957815782  1.71224599679968 -0.16968461086109
 6  15.48113739463946  2.13350528582858 -1.08589569726973
 6  15.99907952765276  3.48298080808081 -0.73925501850185
 6  17.27970236493649  3.95567448294829 -1.33599464726473
 6  17.19913889598960  3.88943450615061 -2.88410073007301
 6  17.64507792699270  5.38741686768677 -0.81885284228423
 1 -2.63932943884388  1.22539940354035  3.54437204840484
 1 -6.44158504140414  5.56913311551155  0.96570633333333
 1 -8.80849604870487  1.01935619711971 -3.08320370127013
 1 -3.67886495169517 -3.33820693739374  1.82337807990799
 1 -1.93285437143714 -1.37302491069107  2.62499466546655
 1 -3.13785311051105 -2.55658223912391  4.52086203210321
 1 -3.59045564566457 -0.85042716041604  4.79062519841984
 1 -4.87042871867187 -1.76542446044604  3.59743296589659
 1 -2.15675284088409 -3.19090213521352 -0.09118685328533
 1 -1.29962066176618 -1.66250487788779  0.40691153245325
 1 -0.58952334243424 -3.25454542684268  2.50356489758976
 1 -1.48002748134813 -4.58461529782978  1.80727976467647
 1 -1.64719337143714  3.84534922162216  4.20946332743274
 1 -2.98342599659966  4.92823246234623  4.91561722462246
 1 -3.05844577707771  3.05308850295029  5.24683165996600
 1 -5.63548740804080  6.47015499799980  2.48106022182218
 1 -10.21683566606661  3.15602275417542 -3.06517767236724
 1 -10.10649813271327  4.72495002950295 -2.82505549814981
 1 -9.62430819171917  4.07750565056506 -5.20441675227523
 1 -8.37451141714171  5.03499544014401 -4.65612529432943
 1 -7.98844911981198  3.32859717361736 -4.68910302500250
 1 -8.27245382698270 -1.17343060076008 -4.76151612061206
 1 -8.42911253915392 -2.84855191549155 -3.90853019691969
 1 -9.56015926502650 -1.55110174477448 -3.19671395649565
 1 -4.19588136413641 -3.75447127012701 -1.51954688478848
 1  2.38340628442844 -6.26721401450145  0.77450583848385
 1  2.15587891449145 -4.99941846824682 -0.39122455755576
 1  3.59497547994799 -4.22805292759276  2.26639500360036
 1  2.75224267616762 -3.36184773967397 -1.39365201530153
 1  4.03486082408241 -2.03075777637764 -1.26724494199420
 1  4.52345485288529 -3.73951580788079 -1.83952540984098
 1  4.87614148314831 -1.51503704830483  0.61279167026703
 1  5.05745810421042 -2.61909622682268  1.74283817011701
 1  6.93252247224722 -3.75490979047905  0.24187350905091
 1  6.47635647514751 -2.82019423542354 -0.97592727892789
 1  7.27367816941694 -0.74534108840884  0.51509026232623
 1  8.00097900810081 -1.86032428092809  1.90094756715672
 1  8.90906680628063 -1.98201624232423 -1.02190040874087
 1  8.92878504390439 -4.14067292719272 -0.18927139733973
 1  10.53525655505550 -3.55678903360336 -0.30547812971297
 1  9.54661140874087 -3.55443117171717  1.21257222022202
 1  9.34689575047505  0.04095250565056  0.58470764516452
 1  10.32617157575758 -1.16668498779878  1.72001293859386
 1  12.00129206030603 -1.64672199389939 -0.21935124292429
 1  11.12173811401140 -0.75504714021402 -1.56159700340034
 1  11.58101811991199  1.36564963676368 -0.04666187658766
 1  12.01097185588559  0.10681196449645  1.21302047714771
 1  13.22955369766977  0.72220696349635 -1.69977618241824
 1  14.38695892309231 -1.33948696599660  0.53079817731773
 1  13.88219860636064 -1.61365454435444 -1.38929518361836
 1  15.35146500300030 -0.33272660036004 -1.01909431243124
 1  13.64058330393039  2.35280357955796 -0.14349422672267
 1  14.77165477767777  1.59748616311631  0.99255808310831
 1  16.14408313541354  1.43517897939794 -1.09530734573457
 1  14.99872466796680  2.11244949634963 -2.14001753265326
 1  15.15682714481448  4.36004921262126 -0.89571085108511
 1  16.10539017291729  3.63419937933793  0.26367882668267
 1  18.19542935973598  3.28988249674968 -1.07838222612261
 1  16.40405754255426  4.62379965886589 -3.17401168006801
 1  18.23968635853585  4.17236362956296 -3.30864829842984
 1  17.30862554785478  2.92456736793679 -3.32255280848085
 1  17.88345621962196  5.40827148014801  0.13956312201220
 1  18.62527013781378  5.50052627912791 -1.35032717381738
 1  17.07974054385438  6.28056246634663 -1.05390374247425
 1 -5.06056394099410 -7.82012311171117 -0.09539385538554
 1 -6.62097258855886 -6.94229361076108  0.44414425772577
 1 -5.17749996739674 -6.67424730093009  1.64554742314231
 8 -7.71247414271427  6.90061009240924 -0.36822025042504
 1 -9.00397378117812  6.40702811851185 -1.76738520602060

