%nproc=3
%Mem=2GB
# td=(NStates=1) iop(3/107=0140000000,3/108=0140000000) iop(3/107=0140000000,3/108=0140000000) CAM-B3LYP/6-31G(d,p) 

TD

0 1
12 -5.59697542874287  1.22656268396840  0.13929659845985
 6 -5.15719584138414 -2.17865182988299 -0.30541360646065
 6 -3.37968942884288  1.18589113061306  2.67850928912891
 6 -6.19838626092609  4.56907493059306  0.59047140834083
 6 -8.18615953395340  1.10624930733073 -2.32128622252225
 7 -4.40512759725973 -0.30657658075808  0.99837000400040
 6 -4.26219143954395 -1.66895807720772  0.61820553905391
 6 -3.31582298399840 -2.42223342194219  1.48361394999500
 6 -2.98295245064506 -1.36833750345034  2.65493227982798
 6 -3.61797859785979 -0.15318447104710  2.12618327692769
 6 -3.54849695769577 -1.73735042764276  3.93861172057206
 6 -2.01236607990799 -2.72969696289629  0.61379556565657
 6 -0.93644140704070 -3.51780686858686  1.42508638553855
 6  0.21064693209321 -3.76771164326433  0.59672783388339
 8  0.39261311521152 -3.38340802960296 -0.52932294769477
 8  1.04057573977398 -4.62881802660266  1.20133612211221
 7 -4.81756030703070  2.57507774447445  1.40443713031303
 6 -3.91964605180518  2.38181619761976  2.42459768556856
 6 -3.68728926612661  3.65034511701170  3.12965190959096
 6 -4.54079983568357  4.55830429592959  2.49940582478248
 6 -5.20861022342234  3.90385506200620  1.44174932683268
 6 -2.79227785268527  3.87125420912091  4.25839971047105
 6 -4.62359505950595  5.94283431763176  2.93755919271927
 8 -4.10611309860986  6.55727055725573  3.84546851935193
 7 -6.95383703330333  2.74429236173617 -0.77962062976298
 6 -6.95757795559556  4.01988239373937 -0.41668987208721
 6 -7.91653679387939  4.66504756155616 -1.19596240534053
 6 -8.38785181798180  3.63791292139214 -2.08241279367937
 6 -7.83111692319232  2.45815398949895 -1.70182395219522
 6 -8.20484276297630  6.06240761046105 -1.06390752535254
 6 -9.47866434483448  3.83926486478648 -3.26046859545955
 6 -8.70450943164317  4.00420178327833 -4.61725497219722
 7 -6.39142490979098 -0.13691887208721 -1.05643666406641
 6 -7.40490409710971 -0.02452335793579 -1.98008393099310
 6 -7.70357347394739 -1.31718687138714 -2.55730875547555
 6 -6.69949543324332 -2.21953572687269 -1.98390760066007
 6 -6.02689061256126 -1.39077310681068 -1.06823468816882
 6 -8.68070344504451 -1.58815860446045 -3.64270518991899
 6 -6.29750337743774 -3.66050515651565 -2.03468886278628
 8 -6.59538277887789 -4.67831280138014 -2.60030027572757
 6 -5.10255050855085 -3.58254002070207 -0.86591321212121
 6 -5.34432155975598 -4.68206340794079  0.09620677167717
 8 -5.77956213881388 -4.49550548394839  1.23347046734673
 8 -4.92387235043504 -5.83369725382538 -0.45920009140914
 6 -5.03507685688569 -6.97549114021402  0.40454798959896
 6  2.28537521912191 -4.89873613381338  0.57161514281428
 6  3.35986929702970 -3.98448994829483  1.01115240104010
 6  4.07895699939994 -3.14836465736574  0.21906428142814
 6  3.65875077237724 -2.95387857625763 -1.18149581838184
 6  5.23125733173317 -2.33502777097710  0.64069592049205
 6  6.49347495219522 -2.72102705570557  0.04183450935094
 6  7.65779490619062 -1.88113975977598  0.58552238683868
 6  9.01628023652365 -1.96979296129613  0.02738602540254
 6  9.69564664476448 -3.30196009850985  0.29859298429843
 6  10.00406584218422 -0.92855347624762  0.57612557595760
 6  11.35699885718572 -0.80777357245725 -0.27151246184618
 6  12.27411503210321  0.31105029552955  0.16472726092609
 6  13.53722311641164  0.41761144804480 -0.53023278047805
 6  14.57974614761476 -0.79664039403940 -0.32968965416542
 6  14.32577251545155  1.80324509670967 -0.21682932533253
 6  15.61776105700570  2.04572650795080 -0.94999210691069
 6  16.14681430113011  3.44964747474747 -0.62016310931093
 6  17.39284367906791  3.86444536003600 -1.41995304310431
 6  17.12590157225723  3.94586014871487 -2.94956727672767
 6  17.90570398959896  5.25352347834783 -0.86090704770477
 1 -2.63798930483048  0.98821568516852  3.51862947414741
 1 -6.29601048394839  5.59138534073407  0.74622438513851
 1 -8.93366856595660  0.92095635713571 -3.05649103000300
 1 -3.62638970417042 -3.40428354505451  1.90359610171017
 1 -1.88984007000700 -1.33557116531653  2.76110827682768
 1 -3.13965329052905 -2.77450403130313  4.28544849074907
 1 -3.05160176027603 -1.00735285298530  4.72714885078508
 1 -4.65211688748875 -2.03407132513251  4.20060328292829
 1 -2.44167133273327 -3.42941598659866 -0.25083281788179
 1 -1.56694739443944 -1.89133776117612  0.31724256555656
 1 -0.50617500760076 -2.82729270157016  2.23313785488549
 1 -1.18694817341734 -4.46612344864486  1.77741677837784
 1 -1.77469612171217  3.85834052075207  3.92339472057206
 1 -3.05112276627663  4.79930957005701  4.86127179007901
 1 -3.05943587608761  2.88928212231223  5.00707768456846
 1 -5.24334819411941  6.53251123362336  2.52549466526653
 1 -10.06029001150115  2.87478463036304 -3.22967412201220
 1 -10.13611109400940  4.61135867036704 -3.15325831843184
 1 -9.48332409330933  4.04204210421042 -5.28739505010501
 1 -8.18377234323432  4.87340928152815 -4.66640632243224
 1 -8.01074134903490  2.99791410531053 -4.89642375707571
 1 -8.17317389898990 -0.91682494019402 -4.36293626262626
 1 -8.47073670157016 -2.57340440074007 -3.94830417431743
 1 -9.61197444654465 -1.58965560016002 -3.10494477957796
 1 -4.31633340934093 -3.87443326632663 -1.55261019111911
 1  2.71548949274927 -5.87269456255625  1.01946033393339
 1  2.04544787138714 -4.88786731313131 -0.58711414651465
 1  3.43871985438544 -4.06279640194019  1.85981434553455
 1  2.65373282518252 -3.25423697859786 -1.32808545864586
 1  3.57986532453245 -1.86957165776578 -1.62891110861086
 1  4.42908541594159 -3.43638549484949 -2.08652010931093
 1  5.09316318531853 -1.37701324592459  0.32781317241724
 1  5.23390574897490 -2.58089240644064  1.70642452875288
 1  6.72210143014301 -3.78707300680068  0.33918324002400
 1  6.45633447294729 -2.78518073407341 -1.09953964016402
 1  7.32758355995600 -0.86416297059706  0.31475022832283
 1  7.75270418061806 -1.87967621612161  1.82585005740574
 1  8.83622952255226 -1.79360740144014 -1.03539175787579
 1  9.10826299169917 -4.27374623452345 -0.01546401660166
 1  10.66684971437144 -3.19301265596560 -0.12680026192619
 1  9.80328707630763 -3.46992272087209  1.34970593359336
 1  9.54597565846585  0.02686109650965  0.53817299169917
 1  10.25893485208521 -1.22411073037304  1.58172911021102
 1  11.96377830893089 -1.84517183888389 -0.31633094089409
 1  11.06109204940494 -0.57091872737274 -1.35504634833483
 1  11.80647066516651  1.31080415221522  0.13514630423042
 1  12.41618237693769  0.02304358765877  1.08713788888889
 1  13.49211995429543  0.59906464926493 -1.63078928372837
 1  15.07395762296230 -0.78828184548455  0.78682377987799
 1  13.92112249874988 -1.76885006390639 -0.29782603670367
 1  15.46994685118512 -0.67522084978498 -1.13255565856586
 1  13.62967221282128  2.65865416461646 -0.58956883418342
 1  14.48083569576958  1.94247066156616  0.91711053835384
 1  16.44233296039604  1.57746320782078 -0.50864867986799
 1  15.14085888138814  2.09583783518352 -2.01337486838684
 1  15.38096955905591  4.24836804450445 -0.72721400140014
 1  16.57432706660666  3.45373133253325  0.45003746254625
 1  18.43386320312031  3.19739324782478 -1.19521390929093
 1  16.49870700750075  4.73023030193019 -3.18983326222622
 1  18.12720511041104  4.11719811301130 -3.37264469806981
 1  16.66449113441344  2.95873078427843 -3.32626317951795
 1  18.00708858285828  5.36114676767677  0.32090125582558
 1  18.78347595839584  5.72952917941794 -1.19713185428543
 1  16.92984555435543  5.85898030813081 -1.17036538863886
 1 -5.05389327392739 -7.98270937033703 -0.26201051705171
 1 -6.11049154045405 -7.04832421382138  0.96367621092109
 1 -4.36424864226423 -7.00758063426343  1.14586745514551
 8 -7.78508140344034  6.85934596599660 -0.28740216861686
 1 -8.91912529632963  6.34888230393039 -1.82931139863986

