%nproc=3
%Mem=2GB
# td=(NStates=1) iop(3/107=0140000000,3/108=0140000000) iop(3/107=0140000000,3/108=0140000000) CAM-B3LYP/6-31G(d,p) 

TD

0 1
12 -5.61101683288329  1.26773680138014  0.16454912371237
 6 -5.10742086388639 -2.11123508820882 -0.33595666076608
 6 -3.28141960186019  1.17121966346635  2.77465890409041
 6 -6.01329775207521  4.64713273637364  0.63406576777678
 6 -7.99735065306531  1.18379706210621 -2.22003609750975
 7 -4.35558264276428 -0.29432535563556  1.10534070107011
 6 -4.26160138053805 -1.59697087848785  0.71621534003400
 6 -3.25903730543054 -2.36337753635364  1.50831642024202
 6 -2.94191834723472 -1.37318798849885  2.60810759735974
 6 -3.52868966896690 -0.09976912951295  2.15277593619362
 6 -3.59914202220222 -1.73916060866087  3.91675953535354
 6 -1.94797964126413 -2.70160415361536  0.72830701680168
 6 -1.03099086198620 -3.64564965286529  1.44647852475248
 6  0.20739660706071 -4.02193706580658  0.57807596869687
 8  0.44143799769977 -3.46489617841784 -0.43237325272527
 8  0.93068475067507 -4.94143928872887  1.17499348784879
 7 -4.82171072207221  2.59084932163216  1.47639432603260
 6 -3.97693178037804  2.40740875687569  2.42976820262026
 6 -3.62180271747175  3.61230131263126  3.21717066146615
 6 -4.31559731543154  4.62090055555556  2.53461934613461
 6 -5.11459082148215  3.88822349884988  1.46825197709771
 6 -2.59362798769877  3.69327641134113  4.27617148764877
 6 -4.59913261326133  6.03104313851385  2.78193363016302
 8 -3.96011849914992  6.62527735793579  3.73891786428643
 7 -6.80726237583758  2.69250718321832 -0.70133280098010
 6 -6.82898509630963  4.10776118161816 -0.36006420952095
 6 -7.84360950115012  4.71809286608661 -1.25765857495750
 6 -8.35002803560356  3.72045117521752 -2.08955350775078
 6 -7.69306311781178  2.46603477757776 -1.71345511531153
 6 -8.23885616431643  6.10087145684568 -1.30013114771477
 6 -9.38361483988399  3.77709864816482 -3.25620816941694
 6 -8.72576155685569  4.08084944804480 -4.61919516621662
 7 -6.34760052735273 -0.08912409260926 -1.12558357875788
 6 -7.23178678537854 -0.06176708230823 -2.08007392999300
 6 -7.58746186278628 -1.31508666136614 -2.64075710031003
 6 -6.70504598829883 -2.17874164746475 -2.05028423832383
 6 -5.98478640214021 -1.41753578307831 -1.07812567726773
 6 -8.64620999569957 -1.53645343394339 -3.65373629302930
 6 -6.21805543264326 -3.50950005600560 -2.00216561046105
 8 -6.52595583618362 -4.50896586668667 -2.63764401010101
 6 -5.07673792729273 -3.54509627632763 -0.88271489228923
 6 -5.28997612521252 -4.66766196779678  0.18073522452245
 8 -5.69549373197320 -4.58188412181218  1.30169729002900
 8 -4.94551451465147 -5.89397328142814 -0.35821999339934
 6 -5.08134148334833 -6.96926051715171  0.63158069286929
 6  2.30044672627263 -5.22981924212421  0.65914389568957
 6  3.37715102520252 -4.33074457375738  0.91516280208021
 6  3.95530463416342 -3.39270909180918  0.16299867486749
 6  3.71006590389039 -3.32864605300530 -1.32830049884988
 6  5.06859106510651 -2.55176944514451  0.69980183108311
 6  6.46701230593059 -2.80747570057006  0.04827515341534
 6  7.52520164686469 -1.91434308010801  0.60278411301130
 6  8.97029563806381 -2.04172015401540 -0.07729444264426
 6  9.65711279137914 -3.48169807230723  0.27456058105811
 6  9.89631506710671 -0.88515913681368  0.38087605100510
 6  11.20107326462646 -0.75813860896090 -0.33314862546255
 6  12.13805142574257  0.41198038853885  0.03499428762876
 6  13.39600899499950  0.51085077197720 -0.65098485568557
 6  14.45399357235724 -0.65700643064306 -0.28957564276428
 6  13.99744968316832  1.89964473667367 -0.20118776117612
 6  15.31792107300730  2.26755869116912 -1.10409751745174
 6  15.91087070677068  3.63836634663466 -0.67971906490649
 6  17.33032742744274  4.02489140464046 -1.35106615441544
 6  17.08378736083608  4.09754531723172 -2.73951627162716
 6  17.82508592779278  5.33337146314631 -0.66231718871887
 1 -2.45375088098810  1.36282314591459  3.56928453965397
 1 -6.23948483138314  5.67223342554255  1.05838560126013
 1 -8.77962316141614  1.21707596909691 -2.93816919781978
 1 -3.84706177137714 -3.19441255795580  1.93185892799280
 1 -1.85280636663666 -1.35302291049105  2.82372453845384
 1 -3.28275760096010 -2.67462404330433  4.16096604250425
 1 -3.22552915301530 -1.09967208490849  4.60595673157316
 1 -4.68096977277728 -1.91498941694169  4.01147437003700
 1 -2.43649081468147 -3.21560460546055 -0.15840357495750
 1 -1.56736743644364 -1.71981060846085  0.32175301660166
 1 -0.79615400550055 -3.27730770307031  2.42738727982798
 1 -1.64057353595360 -4.54909174547455  1.84905394209421
 1 -1.54917356945695  3.22448713541354  3.92340472157216
 1 -2.45408306230623  4.80155979507951  4.50759642254225
 1 -3.00644057655765  2.97594078817882  5.01754873167317
 1 -5.44918877817782  6.47089507200720  2.22979509530953
 1 -9.98629261176118  2.92438959085909 -3.35124627922792
 1 -10.12712019491949  4.62645017951795 -3.05516850945095
 1 -9.54120988188819  4.24828272827283 -5.38522483308331
 1 -8.05343930993099  4.84378631923192 -4.36087576937694
 1 -8.08278855375538  3.31763607750775 -4.88267238193819
 1 -8.55046162776278 -0.81728498619862 -4.32485245424543
 1 -8.73324295219522 -2.48808586888689 -4.26391573547355
 1 -9.62909615871587 -1.59161579617962 -3.24743902900290
 1 -4.11740351635163 -3.72695851885188 -1.51339626972697
 1  2.54249219301930 -6.06604389748975  1.05856424432443
 1  2.05782910951095 -5.32565109150915 -0.43447888298830
 1  3.73775975837584 -4.40262038433843  1.96166453055306
 1  2.68965641754175 -3.74957651255125 -1.50821347144714
 1  3.71785912391239 -2.18437313791379 -1.36137435493549
 1  4.37425993339334 -3.79496135243524 -1.90409186648665
 1  4.99268313731373 -1.57479302390239  0.49946033713371
 1  5.23270562896290 -2.58756307350735  1.93516740304030
 1  6.66723594359436 -3.95303960346035  0.26297561926193
 1  6.32561140064006 -2.58335055105511 -1.09892957915792
 1  7.28374917651765 -0.73026958125813  0.43681243454345
 1  7.68338724892489 -2.13348159665967  1.67343481588159
 1  8.87536343594359 -1.92817085778578 -1.02285050375038
 1  8.75029719511951 -4.17544640454045  0.07044457425743
 1  10.54696772617262 -3.57778113281328 -0.35813339523952
 1  9.70989773737374 -3.58364409300930  1.31032199519952
 1  9.25909697059706  0.12559096949695  0.51021019541954
 1  10.08911787038704 -1.07751607090709  1.53179411671167
 1  11.72182411351135 -1.66854417611761 -0.30888019581958
 1  11.01912785298530 -0.56497813331333 -1.27305814951495
 1  11.73174319241924  1.34918799059906 -0.22752996339634
 1  12.16919767846785  0.53563484678468  1.25522469756976
 1  13.51006174847485  0.58809355215522 -1.73682988778878
 1  14.84921514871487 -0.53954697199720  0.75550064756476
 1  14.04410479697970 -1.77212039093909 -0.65507176127613
 1  15.26898675517552 -0.57812113981398 -0.83204560756076
 1  13.30396964256426  2.69669796899690 -0.23564344164416
 1  14.52659027122712  1.65540195469547  0.83651247854785
 1  16.10733946104610  1.40486594809481 -0.90335815081508
 1  15.10564536003600  2.33275152655266 -2.10892442334233
 1  15.21817327942794  4.49787299499950 -0.92693397339734
 1  16.19026866076608  3.61021698109811  0.44468692749275
 1  17.91293110991099  3.29849335783578 -1.06332071997200
 1  16.25538267506751  4.82962024092409 -2.98473275217522
 1  18.06280867076708  4.56046243944394 -3.36385381898190
 1  16.90843552885288  3.04118903010301 -3.13218377157716
 1  18.10307818181818  5.57943859685968  0.38149731543154
 1  18.70642825362536  5.69583581008101 -1.16327846894689
 1  17.05352792259226  6.01059546964696 -0.91125947804781
 1 -4.38684656925693 -7.80374147354735 -0.09235355135514
 1 -6.05250574187419 -7.03459284068407  0.91610145344534
 1 -4.47899011641164 -6.74750462666267  1.36136900530053
 8 -7.90550344564456  6.98352838423842 -0.50421384978498
 1 -9.21945532933293  6.41754917061706 -1.90758922642264

