%nproc=3
%Mem=2GB
# td=(NStates=1) iop(3/107=0140000000,3/108=0140000000) iop(3/107=0140000000,3/108=0140000000) CAM-B3LYP/6-31G(d,p) 

TD

0 1
12 -5.63282901410141  1.22017204490449  0.08657132593259
 6 -4.95219534133413 -2.15941990669067 -0.30455352045205
 6 -3.47498895879588  1.20798333983398  2.61303274147415
 6 -6.31592801510151  4.56691471457146  0.75224758595860
 6 -7.91984290229023  1.14406308870887 -2.38197229112911
 7 -4.48742582708271 -0.26022194529453  1.11384155115512
 6 -4.25996121652165 -1.56017719911991  0.66233995249525
 6 -3.15706710841084 -2.33068426702670  1.46761234983498
 6 -2.91758591399140 -1.29609027872787  2.60286707330733
 6 -3.60971777177718 -0.07813696629663  2.15322598119812
 6 -3.43962607060706 -1.83172986558656  4.02213007240724
 6 -1.87332217551755 -2.64836883008301  0.57075126122612
 6 -0.91792955585559 -3.53604869276928  1.44870874777478
 6  0.26182204960496 -3.85341021312131  0.56910507160716
 8  0.48758261216122 -3.36120580938094 -0.56381639703970
 8  1.01917359955996 -4.76487163196320  1.18545453395340
 7 -4.96378492949295  2.63835407210721  1.48423511011101
 6 -4.06410049724972  2.43001101710171  2.35534075987599
 6 -3.75842637983798  3.70796087858786  3.15505444984498
 6 -4.51483723942394  4.68327679317932  2.58977486168617
 6 -5.24736409880988  4.03231790829083  1.44474962686269
 6 -2.86510513541354  3.73391047474747  4.31634550505051
 6 -4.71593429342934  6.06186622082208  3.01435687248725
 8 -4.19246173347335  6.61478630883088  3.93084705720572
 7 -6.76051770137014  2.59434736723672 -0.71812448014801
 6 -6.93362556035604  3.95207561306131 -0.36965516861686
 6 -7.90965610581058  4.65994705150515 -1.26629943904390
 6 -8.26838987178718  3.66158528862886 -2.09346389878988
 6 -7.65599941144114  2.46190436453645 -1.76467023682368
 6 -8.30911319001900  5.97252862256226 -1.18950008460846
 6 -9.33712019041904  3.82415335363536 -3.08123067166717
 6 -8.75395437613761  3.85295665876588 -4.59489273597360
 7 -6.32613838113811 -0.14539972017202 -1.04426544694469
 6 -7.28507211391139 -0.07906881248125 -2.06550247284728
 6 -7.57263037963796 -1.29392454515452 -2.66101912651265
 6 -6.74033951765177 -2.19067284058406 -2.02473168306831
 6 -5.88188611211121 -1.43498752825283 -1.11808967366737
 6 -8.58415379007901 -1.65778556715672 -3.74588550795080
 6 -6.21103473057306 -3.58707781378138 -1.92450784468447
 8 -6.55876911751175 -4.69090406050605 -2.47307755345535
 6 -5.07067732123212 -3.53042480918092 -0.91106772757276
 6 -5.36449357695770 -4.61446664826483  0.14530168116812
 8 -5.82598678127813 -4.46094202760276  1.26713383368337
 8 -5.18905886908691 -5.89156304040404 -0.23930810221022
 6 -5.44924827402740 -6.98139173027303  0.63067060186019
 6  2.33509019061906 -5.10586684688469  0.59891787308731
 6  3.46648995909591 -4.11391289058906  0.99486077187719
 6  4.04497360106011 -3.28656847774778  0.22917529252925
 6  3.72465736303630 -3.07308049644964 -1.31781945074507
 6  5.22361656765677 -2.45000926912691  0.74224607550755
 6  6.50545615031503 -2.63293824682468 -0.08942861696170
 6  7.71903102980298 -1.83956560236024  0.49912374697470
 6  9.00827943644365 -1.98233421542154 -0.21802851605160
 6  9.59361644174417 -3.50759066156616 -0.04960183518352
 6  10.07003243884389 -0.93847446834683  0.39775773917392
 6  11.31281443874387 -0.76802959805981 -0.38305361596160
 6  12.20929855045505  0.36718590909091  0.08078886708671
 6  13.56997639173917  0.50869055595560 -0.45947570477048
 6  14.41226939993999 -0.74217494749475 -0.23716040124012
 6  14.24669460766077  1.82036680888089 -0.12579022142214
 6  15.52169145004500  2.00922285758576 -0.89051615931593
 6  16.07417703740374  3.50386289628963 -0.62930402340234
 6  17.39651404610461  3.88724764026403 -1.31656270407041
 6  17.20320930303031  4.08450401310131 -2.86619893989399
 6  18.01293471267127  5.15648377437744 -0.73690464746475
 1 -2.73797930383038  1.26387325092509  3.39048665986599
 1 -6.55158604150415  5.68929513171317  0.57119688238824
 1 -8.83403860296030  1.13811807330733 -3.00382576347635
 1 -3.73975104030403 -3.22066518321832  1.77001274337434
 1 -1.89573065906591 -1.08847645584558  2.79277144314431
 1 -2.85904522972297 -2.72234881578158  4.09751969786979
 1 -3.51268786888689 -0.98259037673767  4.76326246214621
 1 -4.57287896369637 -1.94683260126013  3.89649287188719
 1 -2.08344551015101 -3.22562560756076 -0.21784951955196
 1 -1.55853655335534 -1.64395302270227  0.21625246654666
 1 -0.67416180628063 -2.83953392569257  2.22885742684268
 1 -1.46787626622662 -4.40436727302730  1.93281231793179
 1 -1.96430508260826  3.61493618031803  4.05691807290729
 1 -2.83366102010201  4.77634727382738  4.76903256615662
 1 -2.98262819531953  3.01913510761076  5.37148412521252
 1 -5.51977583688369  6.64814279677968  2.68903101890189
 1 -10.04652863536354  2.94179133103310 -3.02717387198720
 1 -10.02554003690369  4.68171570607061 -3.08847183978398
 1 -9.53814957585759  4.33062096209621 -5.27320363096310
 1 -7.70070403640364  4.52304424502450 -4.80822050385039
 1 -8.34412468736874  2.77171148504850 -4.95556967166717
 1 -8.11490807240724 -1.38077133483348 -4.98495846484648
 1 -8.62187181508151 -2.90018707900790 -3.57306665056506
 1 -9.56637988708871 -1.07590422502250 -3.74038832393239
 1 -3.98730050605061 -4.04309013201320 -1.22820775087509
 1  2.49160710451045 -6.07095438853885  0.87912630053005
 1  2.18421174777478 -5.13067159355936 -0.74544998009801
 1  3.64570055245525 -4.24447456975698  2.12514087818782
 1  2.61898935083508 -3.29752130703070 -1.58447109720972
 1  4.25577291529153 -2.03712841344134 -1.48026624412441
 1  4.31760426782678 -3.70215207150715 -2.14329578687869
 1  4.87158102710271 -1.32319786438644  0.56273666476648
 1  5.57571993039304 -2.83026734393439  1.76452033833383
 1  6.62247146714671 -3.73771807130713 -0.27077775607561
 1  6.20860970047005 -2.29183139913991 -1.18350803700370
 1  7.46726752835284 -0.89095564986499  0.67482623592359
 1  7.88464737493749 -2.10776902540254  1.58512598499850
 1  8.94656055565557 -1.85554359505951 -1.36714493319332
 1  9.07668983438344 -4.20572943284328 -0.53518598879888
 1  10.53930696009601 -3.35271862656266 -0.51502908480848
 1  9.87562431003100 -3.64753048164817  1.12503346634663
 1  9.65131619251925  0.03707211761176  0.28843801820182
 1  10.24988394699470 -1.38068638793879  1.41743268056806
 1  11.90456238733873 -1.75280260196020 -0.22886219401940
 1  11.13462940314031 -0.58483011851185 -1.41000184388439
 1  11.48314833293329  1.20306337813781 -0.21114832523252
 1  12.26879763846385  0.40475175847585  1.29620879597960
 1  13.32648339063906  0.66108085088509 -1.58516472127213
 1  14.47106733393339 -0.79628264556456  0.92811790929093
 1  13.76266665316532 -1.48627180608061 -0.35291154525453
 1  15.26365622212221 -0.70703403110311 -0.88762116511651
 1  13.65855510111011  2.68061636083608 -0.48130800810081
 1  14.14320193239324  1.79074548904890  0.87552637993799
 1  16.13168189528953  1.22151761326133 -0.43116093109311
 1  15.36217101260126  2.11984023542354 -1.86858038893889
 1  15.26276773887389  4.13809701740174 -0.82386366636664
 1  16.36199583348335  3.65634159355936  0.50639309810981
 1  18.04127394419442  2.98905241374137 -1.23822821072107
 1  16.52428956575658  4.72553983288329 -3.26377065596560
 1  18.01847423732373  4.40652704590459 -3.42161959555956
 1  16.95757044234423  3.04575948714872 -3.22585313851385
 1  18.20911878587859  5.34318497149715  0.32123128882888
 1  18.83656126692669  5.56439266576658 -1.16766890799080
 1  17.30577314711471  6.01404581468147 -1.04848320042004
 1 -5.19282716731673 -7.87323842324232 -0.10769508550855
 1 -6.50481097239724 -6.97162654405441  0.88648849214921
 1 -4.82711492889289 -6.84951482768277  1.58052092049205
 8 -7.88162105740574  6.86868690009001 -0.40433386178618
 1 -9.02048543234323  6.37500491619162 -1.84653312081208

