%nproc=3
%Mem=2GB
# td=(NStates=1) iop(3/107=0140000000,3/108=0140000000) iop(3/107=0140000000,3/108=0140000000) CAM-B3LYP/6-31G(d,p) 

TD

0 1
12 -5.56762249344935  1.24017404510451  0.19781245004500
 6 -5.02193231503150 -2.18143210791079 -0.39305237033703
 6 -3.31238269816982  1.24997753925393  2.70110154835484
 6 -6.23183960626063  4.56732475557556  0.71490385158516
 6 -7.91910282828283  1.22308099049905 -2.37613170707071
 7 -4.31636872137214 -0.27568349144914  0.95113528052805
 6 -4.20217543794379 -1.60021120252025  0.64450816931693
 6 -3.14582598429843 -2.26108730733073  1.44592018061806
 6 -2.83008716411641 -1.25516618631863  2.54504129072907
 6 -3.38425522552255 -0.00452960556056  2.01135179377938
 6 -3.30037214521452 -1.68371506410641  3.81951981138114
 6 -1.91610645394539 -2.70719471267127  0.63740792689269
 6 -1.07045480838084 -3.74576966486649  1.40342421932193
 6  0.23970983838384 -3.90738561066107  0.56414457555756
 8  0.41376523042304 -3.42393208200820 -0.49561957735774
 8  1.05347702990299 -4.77526267106711  1.18634462296230
 7 -4.89620817181718  2.57488772547255  1.47236392299230
 6 -3.94745883308331  2.49848786478648  2.38506373217322
 6 -3.88780931813181  3.65867595009501  3.27732667706771
 6 -4.60544630033003  4.66291475697570  2.55056094029403
 6 -5.27502686508651  3.92538721522152  1.53706885878588
 6 -2.86244486938694  3.77996508020802  4.40414428492849
 6 -4.75381808180818  6.04614464866487  2.89117455425543
 8 -4.09196168346835  6.59825465566557  3.84930890339034
 7 -6.75617726732673  2.62115004750475 -0.74197686538654
 6 -6.90822302010201  3.94334473997400 -0.33013121622162
 6 -7.84338947914791  4.61408246504650 -1.23207601670167
 6 -8.30095312811281  3.64883401350135 -2.17420197259726
 6 -7.69995380688069  2.40306848094809 -1.68956272607261
 6 -8.26844912361236  5.97832920262026 -1.14543567816782
 6 -9.29127560596060  3.78972991129113 -3.21809435803580
 6 -8.64614359505951  4.07787915101510 -4.56323957065706
 7 -6.34117988528853 -0.14250943114311 -1.11089210961096
 6 -7.29015262196220 -0.01102200780078 -2.12316823942394
 6 -7.55166828342834 -1.31790694339434 -2.75360838543854
 6 -6.71017650135014 -2.14567834113411 -2.08607781768177
 6 -6.01737966146615 -1.42339636913691 -1.06460432513251
 6 -8.47629300400040 -1.67747753635364 -3.72957387678768
 6 -6.24605823292329 -3.52492159815982 -1.90083547744774
 8 -6.69286252685268 -4.58902387248725 -2.41552179787979
 6 -5.04843509700970 -3.51706347304731 -0.89109573037304
 6 -5.32284941254125 -4.61449665126513  0.17891504250425
 8 -5.80469465206521 -4.34531046444644  1.28079519981998
 8 -4.87089705290529 -5.79148303240324 -0.17032120352035
 6 -5.23316666586659 -6.91647523862386  0.69517705250525
 6  2.25580226182618 -5.07430369056906  0.57662564386439
 6  3.40457376747675 -4.07951945124512  0.88046933273327
 6  4.03003210691069 -3.33558337923792  0.01752412741274
 6  3.84791968926893 -3.29094228262826 -1.45591326012601
 6  5.09885409140914 -2.44248851705170  0.65009686058606
 6  6.53161876657666 -2.85106005900590  0.03440376627663
 6  7.62815194189419 -1.89636128192819  0.66211004560456
 6  9.00719932843284 -2.09862584458446 -0.11450816401640
 6  9.61115819591959 -3.37395729822982  0.21847497249725
 6  10.02871830743074 -0.95931655255526  0.41766973037304
 6  11.30049320662066 -0.85125792089209 -0.34584989558956
 6  12.15401302190219  0.30090928142814  0.15776656485649
 6  13.41018041214121  0.50281996889689 -0.55738549574957
 6  14.42339051205121 -0.59960069006901 -0.44048073327333
 6  14.12234217241724  1.73835860806081 -0.12496013841384
 6  15.29471875277528  2.12917485278528 -0.82739984768477
 6  15.92373199289929  3.49658216821682 -0.60439153215322
 6  17.18838323302330  3.99234815031503 -1.36701774957496
 6  16.93613259535954  4.20253581628163 -2.91666398639864
 6  17.79683310251025  5.18890701670167 -0.74623558055806
 1 -2.64978048394839  1.08081494509451  3.42446005720572
 1 -6.24302518541854  5.72179838203820  0.69267903060306
 1 -8.88302350145015  1.11539580108011 -2.99849523042304
 1 -3.69152621782178 -3.19920303700370  1.74692043414342
 1 -1.77129821582158 -0.87053466166617  2.63541570757076
 1 -2.93570289548955 -2.69021560246025  4.03964391029103
 1 -3.21975857595760 -1.04683680138014  4.69806594249425
 1 -4.40980265606561 -1.90418833683368  3.89440266286629
 1 -2.51981914751475 -3.11030407540754 -0.03866160076008
 1 -1.14714541424142 -1.79166779417942  0.20515135643564
 1 -0.75414980508051 -3.31585155745575  2.52497703880388
 1 -1.50988046664666 -4.87417425372537  1.50425946264626
 1 -1.86048470057006  3.44965965266527  4.34995737683768
 1 -2.76217387138714  4.96659629872987  4.61031669456946
 1 -3.13104303680368  3.24891808590859  5.24236121292129
 1 -5.64218807810781  6.56846482898290  2.43919603540354
 1 -9.74777876037604  2.89333648554856 -3.36663781838184
 1 -9.82773025592559  4.61686922142214 -2.95954894749475
 1 -9.31865762666267  3.97657555755575 -5.36460277087709
 1 -8.02437640364036  5.09269120972097 -4.56804648644865
 1 -7.90364063896390  3.42754706860686 -4.90702481718172
 1 -8.32179876147615 -1.35162842054205 -4.86637660666067
 1 -8.87855748364836 -2.81667872817282 -3.81931127502750
 1 -9.51668491759176 -1.37171380598060 -3.37348163326333
 1 -4.23693546954695 -4.02054787778778 -1.56047097719772
 1  2.58620656445644 -6.08629592269227  1.12566095399540
 1  2.06615994259426 -5.19711823822382 -0.49238467356736
 1  3.65081106350635 -4.21666178847885  1.87722608670867
 1  2.80041749364936 -3.50791234613461 -1.76894954505451
 1  4.15616295429543 -2.34942964356436 -1.92278049554955
 1  4.50494300170017 -4.01311316761676 -1.89076053335334
 1  4.78042191119112 -1.45499104370437  0.74345473657366
 1  5.03515587398740 -2.82057637483748  1.80708459475948
 1  6.67224644464446 -3.80035433493349  0.31903122482248
 1  6.86495533503350 -2.66052826882688 -1.03866355255526
 1  7.15184598619862 -0.86826338063806  0.57822657595760
 1  7.79599851005100 -2.11767001550155  1.83671114351435
 1  8.87653355295530 -1.94810285098510 -1.13630184888489
 1  8.98387055245525 -4.26818567846785 -0.02515498569857
 1  10.52930595999600 -3.49634298899890 -0.20908849074908
 1  9.59607635523552 -3.44480020862086  1.26434739773977
 1  9.37489855075508 -0.02170375997600  0.23963313771377
 1  10.18578753735374 -1.18799711901190  1.46530746804680
 1  11.71530346144615 -1.70625794749475 -0.36043535133513
 1  11.16283222342234 -0.61059269476948 -1.44284512821282
 1  11.51962198029803  1.20169324112411  0.27378016761676
 1  12.24143490219022 -0.09856857355736  1.26486566166617
 1  13.09437017931793  0.61084582738274 -1.53911011581158
 1  14.65883611081108 -1.07512052935294  0.55125022252225
 1  13.97123751025103 -1.77194037293729 -0.77194344844484
 1  15.30427028352835 -0.34551787948795 -1.14797720072007
 1  13.30337958355836  2.37803610281028 -0.24824470177018
 1  14.30843845604561  1.61226764126413  1.07251607890789
 1  15.94232295939594  1.46363182468247 -0.42578039303930
 1  15.07839263476348  2.04736298769877 -1.94370790169017
 1  15.07403886598660  4.33839704740474 -0.80634191419142
 1  16.10963059695969  3.60410637003700  0.57562002080208
 1  17.97044686148615  3.14288779727973 -1.17782217011701
 1  16.08449558635863  4.76167344624462 -3.09065334423442
 1  17.75267765766576  4.74208060126013 -3.53475090869087
 1  16.44433911921192  3.28526343754375 -3.31752230543054
 1  17.98925679967997  5.10766141914191  0.37087625332533
 1  18.85577318811881  5.21936816331633 -1.10915305640564
 1  17.29381195099510  6.28082249234923 -0.85394374647465
 1 -4.76265415001500 -7.86572767216722  0.37367305130513
 1 -6.48131862316232 -6.99268865026503  0.61849169246925
 1 -4.94583680108011 -6.76674655085509  1.88328119651965
 8 -7.71581447674768  6.77251728312831 -0.40713414181418
 1 -9.23117650145015  6.23403081878188 -1.73963243074307

