%nproc=3
%Mem=2GB
# td=(NStates=1) iop(3/107=0140000000,3/108=0140000000) iop(3/107=0140000000,3/108=0140000000) CAM-B3LYP/6-31G(d,p) 

TD

0 1
12 -5.58177390859086  1.24783481118112  0.22071474027403
 6 -4.99370949274927 -2.13028699339934 -0.37811087618762
 6 -3.31031249114911  1.22358489999000  2.72996443464346
 6 -6.05436185848585  4.56504452755276  0.57316967816782
 6 -8.03281419941994  1.13421210361036 -2.35373946784678
 7 -4.37558464296430 -0.19001492459246  1.04674484148415
 6 -4.19856507690769 -1.56864804620462  0.55953967246725
 6 -3.13885528722872 -2.24009520812081  1.39907549614961
 6 -2.88003215861586 -1.31427209690969  2.57854464106411
 6 -3.49861666166617  0.04994584198420  2.07493815241524
 6 -3.30836294429443 -1.68019471207121  3.96429428882888
 6 -1.86431127442744 -2.65692968616862  0.62136632273227
 6 -0.98376613951395 -3.70559564746475  1.30256413331333
 6  0.22252812021202 -3.96186105820582  0.60833899499950
 8  0.50411426532653 -3.55325501430143 -0.49473948934893
 8  1.04054573677368 -4.81347649244924  1.28979496799680
 7 -4.86540509150915  2.63812404910491  1.39178586518652
 6 -3.99414350155015  2.47070508650865  2.49083430923092
 6 -3.69723026022602  3.66372645514551  3.20357930233023
 6 -4.45174092979298  4.61375984148415  2.64717060126013
 6 -5.18105746814681  3.99260393689369  1.48545369726973
 6 -2.79631825672567  3.80645772947295  4.30241411191119
 6 -4.54094679467947  6.00657069126913  2.95105054185419
 8 -4.01576406370637  6.65408023822382  3.78988296079608
 7 -6.79298094769477  2.69096702920292 -0.88576124382438
 6 -6.89392158995900  3.99196960246025 -0.35420362346235
 6 -7.84195933613361  4.65424648144815 -1.29694250335034
 6 -8.41871490429043  3.67939706980698 -2.06229078147815
 6 -7.75635944744475  2.44269244334433 -1.77699146894689
 6 -8.27745002370237  6.04814618431843 -1.11029216381638
 6 -9.37374385278528  3.79316025432543 -3.21667421602160
 6 -8.64623360406041  3.81079244234423 -4.52961620832083
 7 -6.27265303260326 -0.14085926612661 -1.13977499789979
 6 -7.39936354305431 -0.05476638223822 -2.02509843244324
 6 -7.62141525812581 -1.31984713741374 -2.62853587818782
 6 -6.74397988168817 -2.21338511181118 -1.98566777667767
 6 -5.99397732123212 -1.42742677217722 -1.09642750745075
 6 -8.61327670237024 -1.71894168276828 -3.79972089148915
 6 -6.29165279237924 -3.60008911491149 -1.90069546344634
 8 -6.63684692529253 -4.51476644674467 -2.57753799949995
 6 -5.05912616611661 -3.56738850555056 -0.83042966376638
 6 -5.41907903550355 -4.69704490609061  0.19211636263626
 8 -5.78979316191619 -4.47626355975598  1.24599171947195
 8 -5.07380734393439 -5.87842172627263 -0.32591676307631
 6 -5.29476282548255 -6.94674826592659  0.54955249004900
 6  2.36671335293529 -5.11664792499250  0.74323230453045
 6  3.41845515561556 -4.17650915021502  1.09608089388939
 6  3.94952405610561 -3.31154097499750  0.18815119011901
 6  3.66458135543554 -3.18022121052105 -1.31620928972897
 6  5.11053525952595 -2.45724999319932  0.61930378127813
 6  6.49518512321232 -2.85692064506451  0.06036636253625
 6  7.51980110681068 -1.89151079687969  0.55958979357936
 6  8.94531313981398 -2.02454843684368 -0.15107182038204
 6  9.52314939503950 -3.42279218171817  0.04057718271827
 6  9.90254569016902 -0.88050867176718  0.37854581798180
 6  11.30250340764076 -0.96632942804280 -0.25930124072407
 6  12.18511613221322  0.24230342084208  0.07448823702370
 6  13.51312070617062  0.41749143604360 -0.72042179937994
 6  14.44471264426443 -0.71728245824582 -0.29788647384738
 6  14.03101303950395  1.79749452165217 -0.32091973437344
 6  15.37091637253725  2.31412334763476 -1.04069117681768
 6  15.91864148384838  3.75685819581958 -0.53948504150415
 6  17.16754114881488  4.02782169766977 -1.23237428522852
 6  17.23713269536954  4.07589315201520 -2.71150347034703
 6  17.92316573577358  5.26592471847185 -0.58416937393739
 1 -2.78261376727673  1.02777964156416  3.71413902510251
 1 -6.37324820772077  5.62493869606961  0.45881564426443
 1 -8.85046024512451  1.27855211671167 -3.21326670757076
 1 -3.48785585078508 -3.12193531023102  1.88535427752775
 1 -1.64530561656166 -1.15551315951595  2.74585675167517
 1 -2.53688301350135 -2.28103468436844  4.55884583048305
 1 -3.60092669276928 -0.61918403610361  4.62854899079908
 1 -4.31321299709971 -2.25236315431543  4.04659788238824
 1 -2.42187935353535 -3.12520556555656 -0.38273600820082
 1 -1.19979067876788 -1.82581120852085  0.35417625892589
 1 -0.68883327342734 -3.35210518281828  2.26323086418642
 1 -1.66837631623162 -4.52445928222822  1.54483352005201
 1 -1.73305195729573  3.53934862156216  4.05964834593459
 1 -2.87497515151515  4.81499113821382  4.63243890679068
 1 -3.00376030853085  3.18662185628563  5.24079105590559
 1 -5.35443930323032  6.43649163166317  2.44424654045405
 1 -9.95663964646465  2.85691284318432 -3.15895705030503
 1 -10.05357284018402  4.71479901440144 -3.24680767336734
 1 -9.49613537443744  4.23146104610461 -5.19556586718672
 1 -7.93475744174417  4.53853579417942 -4.56932661446145
 1 -8.28372864776478  2.87329164306431 -4.74240835553555
 1 -8.39241582318232 -1.04189744744474 -4.68912888188819
 1 -8.61751137903790 -2.69974703500350 -3.96668601250125
 1 -9.53980722982298 -1.27119375397540 -3.53736802190219
 1 -4.34911668766877 -3.80989681268127 -1.45827075717572
 1  2.60617856165617 -6.05203249634964  1.22385077297730
 1  2.43641696829683 -4.95157368376838 -0.56761219631963
 1  3.70555653805381 -4.19715983828383  2.08787715181518
 1  2.67139459135914 -3.47918947384738 -1.52481513161316
 1  3.76280361836184 -2.14480918151815 -1.78143636113611
 1  4.46237874527453 -3.52488434473447 -2.18801025832583
 1  5.02016588558856 -1.37638318291829  0.40869126022602
 1  5.22944530293029 -2.20166448364837  1.81848573487349
 1  6.75251447144714 -3.98772307180718  0.06856617831783
 1  6.40309914941494 -2.58148036403640 -0.96382606880688
 1  7.50440124172417 -0.66461301560156  0.40191894519452
 1  7.72831174137414 -1.94083233173317  1.67754522692269
 1  8.78329422902290 -1.74723276397640 -1.13136135483548
 1  8.78805097049705 -4.06001486138614 -0.40959342954295
 1  10.31902493189319 -3.51710506520652 -0.68996657855786
 1  9.80059680728073 -3.56176190479048  1.23251421442144
 1  9.38588964986499  0.06045445584558 -0.01919274487449
 1  9.88801776037604 -1.10805912521252  1.48659959725973
 1  11.90235216631663 -1.95592291399140  0.07514820702070
 1  11.31087702790279 -1.09614124962496 -1.40645148884889
 1  11.66888690679068  0.98846191799180 -0.05344255465547
 1  12.40310106880688  0.12043332663266  1.23283245834583
 1  13.25347608990899  0.45817055985599 -1.66248245304530
 1  14.52236246344635 -0.90280329762976  0.90361545904590
 1  13.94385477197720 -1.54484766366637 -0.83133938803880
 1  15.46362621912191 -0.53088641634163 -0.68803120612061
 1  13.29174842044204  2.54716301550155 -0.43532340964096
 1  14.41362897509751  1.61816823132313  0.78789761706171
 1  16.19976870397040  1.78078353985399 -0.85786360136014
 1  15.18247304280428  2.39261751315132 -2.14462799369937
 1  15.06662812491249  4.47092029972997 -0.87683896389639
 1  16.05286492039204  3.64796075547555  0.46281874067407
 1  17.76935675247525  3.11763527202720 -1.01415580348035
 1  16.68460559735973  5.00219749864987 -3.18852313121312
 1  18.28414080398040  4.34353074627463 -3.16081351495150
 1  16.95386007130713  3.09572448364836 -3.21077163036304
 1  18.00725859985998  5.07917857085709  0.46777594329433
 1  18.88497610841084  5.44978120462046 -1.05062720382038
 1  17.24703727352735  6.16594100420042 -0.76612496459646
 1 -5.29756764136414 -7.79800089948995 -0.11077539353935
 1 -6.22899339063906 -6.95200458185819  0.83636347964796
 1 -4.54442666006601 -6.97836771297130  1.48369123752375
 8 -7.87159005430543  6.89658969036904 -0.34407783618362
 1 -8.99158254205421  6.41414883058306 -1.86493496099610

