%nproc=3
%Mem=2GB
# td=(NStates=1) iop(3/107=0140000000,3/108=0140000000) iop(3/107=0140000000,3/108=0140000000) CAM-B3LYP/6-31G(d,p) 

TD

0 1
12 -5.64896062726273  1.22238226592659  0.17302997179718
 6 -5.01839196099610 -2.13245721042104 -0.44983804890489
 6 -3.43271473137314  1.12034457595760  2.75331676987699
 6 -6.21869829212921  4.55742376547655  0.63799616081608
 6 -8.12160307830783  1.11947062946295 -2.27939203310331
 7 -4.36573365786579 -0.36404232733273  1.06817698469847
 6 -4.26413163356336 -1.68619980138014  0.60503422192219
 6 -3.15354675637564 -2.44028522712271  1.47136272487249
 6 -2.83430758615862 -1.36564723442344  2.57154394099410
 6 -3.54551135113511 -0.08649780238024  2.01278193679368
 6 -3.47773988198820 -1.72445913851385  3.94946280568057
 6 -2.01068591189119 -2.76371036423642  0.58297248334833
 6 -0.98486624952495 -3.61225631353135  1.33688756565657
 6  0.22937880528053 -3.87928280038004  0.50775893699370
 8  0.49863371727173 -3.55183487228723 -0.61109112451245
 8  1.04293597579758 -4.70133527832783  1.26369235773577
 7 -4.95730428142814  2.55532576927693  1.56982366896690
 6 -4.02384647184718  2.33811182718272  2.52908813461346
 6 -3.75351588878888  3.60295037753775  3.29351829622962
 6 -4.57830358605861  4.51655012051205  2.71547743194319
 6 -5.34355371777178  3.92792746924692  1.56346149804980
 6 -2.77697632253225  3.73932101580158  4.39274314481448
 6 -4.72369506950695  5.97214724892489  3.05461089788979
 8 -3.97271975927593  6.59977480768077  3.88104207670767
 7 -6.85145679527953  2.62372030453045 -0.66508917661766
 6 -6.90918311611161  4.01215162066207 -0.38287649074907
 6 -7.76710185038504  4.65136619341934 -1.25795860496050
 6 -8.38918195099510  3.73160229032903 -2.18463301570157
 6 -7.72269608110811  2.48999717381738 -1.79727349714972
 6 -8.25132741144115  6.02186355605561 -1.24070520512051
 6 -9.27306378477848  3.82486342464246 -3.31842439103910
 6 -8.57552653335333  4.05783714681468 -4.69943319001900
 7 -6.44932069936994 -0.22023720392039 -1.06928794919492
 6 -7.39835344204420 -0.09670057565757 -2.00879680228023
 6 -7.57891100770077 -1.33515866856686 -2.67807083168317
 6 -6.71292677637764 -2.18774254755476 -2.11693090299030
 6 -6.06900482398240 -1.43136716621662 -1.15460332503250
 6 -8.60181555625563 -1.59784957355736 -3.79034995439544
 6 -6.25646927402740 -3.60717982398240 -1.98694408830883
 8 -6.61306454705471 -4.53170814091409 -2.73340358605861
 6 -5.08923917741774 -3.57775954265427 -0.85005162596260
 6 -5.32314944254425 -4.67241244284428  0.19029618061806
 8 -5.62731691429143 -4.41283721712171  1.32285940624062
 8 -5.21317128032803 -5.85981986608661 -0.34601877327733
 6 -5.28953230243024 -6.95922951405140  0.59743727852785
 6  2.32074875647565 -4.98649490969097  0.68962694399440
 6  3.36153946404640 -3.95753725302530  1.04085537133713
 6  4.01165026872687 -3.07422724362436  0.29157153215322
 6  3.69246414371437 -2.91418460686069 -1.21846951575158
 6  5.13990819681968 -2.23449771797180  0.71733358425843
 6  6.52296790149015 -2.58473342634263  0.13997432333233
 6  7.67091621832183 -1.70010165596560  0.63783761836184
 6  9.00396900540054 -1.97920390239024  0.01289457625763
 6  9.45572265236524 -3.52723262576258  0.13563668866887
 6  9.98174360996100 -0.93092371327133  0.54555251865186
 6  11.34990814811481 -0.85183797889789 -0.21007631823182
 6  12.35941356195620  0.17489668016802  0.27704849304931
 6  13.62385177927793  0.47627731463146 -0.67735749294929
 6  14.55707388038804 -0.66482721272127 -0.46615330053005
 6  14.07656759495950  1.83840861306131 -0.35728337073707
 6  15.50893017391739  2.20956289158916 -1.09562667036704
 6  16.07851747144714  3.52355486548655 -0.64884597759776
 6  17.34361875657566  3.86975589108911 -1.37256830463046
 6  17.23107208930893  3.96394195689569 -2.86523884388439
 6  17.89250266946695  5.23475160116012 -0.86428738573857
 1 -2.72951845774577  1.21521838543854  3.49163677487749
 1 -6.30407129002900  5.55260146234623  0.94619438213821
 1 -8.68114331343134  1.12622688418842 -3.13167854875488
 1 -3.65771283648365 -3.34354747144714  1.96371211331133
 1 -1.83198428442844 -1.17281488968897  2.69307147314731
 1 -3.10277960316032 -2.70920750165016  4.15089503540354
 1 -3.18242484258426 -0.99200131783178  4.83359949584958
 1 -4.55860753655366 -1.84935285328533  3.72247547014701
 1 -2.06935410101010 -3.30760380538054 -0.32383011761176
 1 -1.37207790749075 -2.06794542194219  0.40978181948195
 1 -0.54871926202620 -3.18874884718472  2.22257679877988
 1 -1.53672315091509 -4.56182301860186  1.74993403010301
 1 -1.73097174927493  3.34367905460546  3.84499688078808
 1 -2.50688834283428  4.78082772187219  4.82345800870087
 1 -3.25335526802680  3.20764395849585  5.19422639943994
 1 -5.43180704000400  6.56462444494449  2.14615673147315
 1 -9.61978596109611  2.82873002490249 -3.43786494109411
 1 -9.85029251215122  4.72066960146014 -3.09953294589459
 1 -9.28520428132813  4.63012091209121 -5.45428173877388
 1 -8.08986295229523  5.03892583318332 -4.73599328112811
 1 -8.04079435433543  3.22027634153415 -5.04808892359236
 1 -8.38916549814981 -1.17689094679468 -4.87005697469747
 1 -8.69650927882788 -2.59835689598960 -3.84080342424242
 1 -9.48331158025803 -0.99531616621662 -3.58156244134413
 1 -4.12290406640664 -3.92562838583858 -1.42803773387339
 1  2.87235517931793 -5.88605589868987  1.24296268416842
 1  2.29318264486449 -5.14196272267227 -0.34833026812681
 1  3.55705168756876 -3.94002412471247  2.07722608670867
 1  2.67670512241224 -3.51753330823082 -1.41789443954395
 1  3.82980031803180 -1.85141984258426 -1.33553177067707
 1  4.24357686508651 -3.54259611591159 -1.74214567186719
 1  4.90130399939994 -1.24137968256826  0.47598798989899
 1  5.12248460686069 -2.26531084828483  1.83496738303830
 1  6.88027724772477 -3.59200349984998  0.39504882658266
 1  6.50511935143514 -2.42348456445645 -0.89735942214221
 1  7.52118291989199 -0.79194574887489  0.66051480478048
 1  7.73938284848485 -1.95381362986299  1.59525699809981
 1  8.98548444804480 -1.80194823552355 -1.02261047974797
 1  8.95242740814082 -4.19096795669567 -0.43313578377838
 1  10.57977100650065 -3.55725908060806 -0.10649823172317
 1  9.33731047864786 -3.82181791039104  1.24274523752375
 1  9.17346840774077  0.09544795519552  0.38033720812081
 1  10.14286324492449 -1.00115843514351  1.60524146144614
 1  11.64462639373937 -1.96957427912791  0.03981467366737
 1  11.30288622882288 -0.65704734023402 -1.38581942564256
 1  11.66927694579458  1.10379345114511  0.23182597219722
 1  12.84196495519552 -0.24086280298030  1.17575675077508
 1  13.29636037833783  0.36768151095109 -1.76544274907491
 1  15.24528475567557 -0.53515653295330  0.51918701620162
 1  13.92704309080908 -1.63076625552555 -0.47860411451145
 1  15.33515337183718 -0.96661998969897 -1.17644004700470
 1  13.29548879447945  2.62245054425443 -0.63169304660466
 1  14.42541015321532  1.83612002650265  0.62329115641564
 1  16.20882961006101  1.33496895839584 -0.90606842184218
 1  15.25096989248925  2.43388163956396 -2.10925445634564
 1  15.27846930903090  4.37023023072307 -0.82330361036104
 1  16.01837147104710  3.58883484288429  0.60730318911891
 1  17.98327814461446  3.17736124462446 -1.10596498439844
 1  16.26868400520052  4.60342762166217 -3.25393967286729
 1  18.30508289818982  4.18546493969397 -3.26587402100210
 1  16.89585427072707  3.14654956615662 -3.38635918911891
 1  18.19108698269827  5.12113276627663  0.24913407910791
 1  18.81920953175318  5.32472869936994 -1.50037217831783
 1  17.29781235103511  6.09904431453145 -1.29271762386239
 1 -5.21869975457546 -7.88408950835084 -0.03569788578858
 1 -6.19135962726273 -7.10353973537354  1.08187803110311
 1 -4.53710592799280 -6.80566044224422  1.36282915131513
 8 -7.85615851115111  6.88608864026403 -0.45584901330133
 1 -9.11965534933493  6.29541695739574 -2.02270073757376

