%nproc=3
%Mem=2GB
# td=(NStates=1) iop(3/107=0140000000,3/108=0140000000) iop(3/107=0140000000,3/108=0140000000) CAM-B3LYP/6-31G(d,p) 

TD

0 1
12 -5.64119985118512  1.21755178287829  0.22990565936594
 6 -5.03483360516052 -2.17504146884688 -0.27070013511351
 6 -3.51373283318332  1.22434497599760  2.78962040024002
 6 -6.25375179747975  4.60635865896590  0.65459782098210
 6 -8.04233515151515  1.18660734313431 -2.38283237713771
 7 -4.34610169466947 -0.26915283838384  1.01892205920592
 6 -4.25407062746275 -1.64092527392739  0.70662438093809
 6 -3.26729813151315 -2.33926512511251  1.64454004260426
 6 -2.95256941234123 -1.27845851555156  2.69710649724973
 6 -3.63578037803780 -0.01211036363636  2.14977563616362
 6 -3.33149525752575 -1.64978167076708  4.13727158655866
 6 -2.05888073137314 -2.72681667486749  0.68114230033003
 6 -0.93329109200920 -3.48776386428643  1.51607548444844
 6  0.20796666406641 -3.86724159625963  0.56673483458346
 8  0.37246110001000 -3.45154484328433 -0.45978599399940
 8  1.07192887508751 -4.72246739153915  1.20644663316332
 7 -5.02133068406841  2.70459069576958  1.41358804540454
 6 -4.05070915811581  2.45054307030703  2.36770199599960
 6 -3.67140767796780  3.63639372187219  3.06471541594159
 6 -4.48654441014101  4.67804627012701  2.60753663786379
 6 -5.35169453185319  4.01629630613061  1.43598875077508
 6 -2.77811643654365  3.75204228792879  4.23703757425743
 6 -4.62304500450045  6.10883091729173  2.91614705150515
 8 -4.13680616791679  6.68800363056306  3.85539951245125
 7 -6.92273392299230  2.61716964946495 -0.67280994869487
 6 -6.91009320712071  3.94707511301130 -0.34432263536354
 6 -7.94484962516252  4.60290134693469 -1.32964577367737
 6 -8.46751978477848  3.56569569966997 -2.06554110651065
 6 -7.75250906240624  2.40399857395740 -1.71087485728573
 6 -8.23062534123412  5.96978834853485 -1.21845297989799
 6 -9.29585606400640  3.81447238553855 -3.12742529112911
 6 -8.70109909060906  3.97219858295830 -4.50052329902990
 7 -6.41030679797980 -0.20839601980198 -1.00814183458346
 6 -7.39359296599660 -0.04835574117412 -2.01779770237024
 6 -7.67551066766677 -1.41511666436644 -2.54726775137514
 6 -6.76507199089909 -2.15590936423642 -1.96913612351235
 6 -5.97174509800980 -1.42467649714971 -1.04551241594159
 6 -8.56904227892789 -1.78415820442044 -3.65330625002500
 6 -6.25045867296730 -3.52094120012001 -1.90197559145915
 8 -6.61035427602760 -4.43866883698370 -2.60965121082108
 6 -5.02034228772877 -3.64538630533053 -0.88696531733173
 6 -5.22445957355736 -4.75726092769277  0.11781893289329
 8 -5.59963414601460 -4.60676661006101  1.21416853715372
 8 -4.98269823302330 -5.88630251435143 -0.40687485888589
 6 -5.05809915911591 -6.99771336243624  0.39599713451345
 6  2.35985266686669 -5.07564382458246  0.48022600390039
 6  3.38703201330133 -4.01433293259326  0.92376366216622
 6  4.02573167686769 -3.22988280918092  0.07181955695570
 6  3.62764766206621 -3.05513870227023 -1.32278994779478
 6  5.08257246324632 -2.42665693389339  0.60007185808581
 6  6.44242984768477 -2.51749670267027 -0.15914558865887
 6  7.58318744544454 -1.79954159996000  0.43308714331433
 6  8.96920552905291 -2.01899788178818 -0.23749046224622
 6  9.53501058115812 -3.41484138663866  0.05726885188519
 6  9.84842027762776 -0.81998261916192  0.19296726012601
 6  11.27892104940494 -0.88435123022302 -0.33023833443344
 6  12.25764338493849  0.30374956545655  0.12130291849185
 6  13.60656005010501  0.41514120102010 -0.59083884108411
 6  14.49745791879188 -0.72583331333133 -0.29390607580758
 6  14.26197613581358  1.74296906910691 -0.09815745814581
 6  15.56830611151115  2.14175611091109 -0.76018312601260
 6  16.12184180388039  3.54484699469947 -0.50751184418442
 6  17.44069846454645  3.76425534103410 -1.23087413521352
 6  17.19403838593859  3.99072463516352 -2.81264358435844
 6  18.09828324752475  5.18504663066307 -0.66854781178118
 1 -2.81073657955796  1.23420028362836  3.63996160736074
 1 -6.55848673157316  5.61709791199120  0.76155591829183
 1 -8.82648784788479  1.35024928642864 -3.16881226212621
 1 -3.80452751795180 -3.30329344604460  1.90857659975998
 1 -1.94591567756776 -1.25224283248325  2.62006417241724
 1 -2.76027535273527 -2.57113369426943  4.43130307620762
 1 -3.09344594469447 -0.89029114681468  4.85028116401640
 1 -4.42116379217922 -1.84765268326833  4.24314753735374
 1 -2.40430759635964 -3.36765981098110 -0.08034576917692
 1 -1.44288498819882 -1.83698232563256  0.18516935823582
 1 -0.73088747884788 -3.06916688898890  2.59543408450845
 1 -1.37008648724872 -4.47365420172017  1.59303834053405
 1 -1.69689834193419  3.40611529822982  4.01405378647865
 1 -2.38346600060006  5.10278991809181  4.27689335223522
 1 -3.00334026652665  3.26940013411341  5.15093207000700
 1 -5.13648750805080  6.68048603110311  1.99564167996800
 1 -10.09503348584859  2.96431358325833 -3.36802795739574
 1 -9.96927441034103  4.65836337083708 -2.92626561916192
 1 -9.53510927182718  4.09922782278228 -5.15048135873587
 1 -8.20825479147915  5.06940888148815 -4.58079776157616
 1 -8.10897117201720  3.21049536343634 -4.56534064876488
 1 -8.50541712331233 -1.19286254395439 -4.57595756475648
 1 -8.45560518841884 -3.02519958025803 -3.92456180008001
 1 -9.51238448754875 -1.48220485508551 -3.24339862496250
 1 -4.26057783378338 -3.91741756475647 -1.61884681478148
 1  2.59713765756576 -5.89484677777778  1.04340272817282
 1  2.21878520512051 -5.24970349674968 -0.60576601170117
 1  3.47472345474547 -3.98244836713671  2.03652201630163
 1  2.70711816371637 -3.44130568546855 -1.38038068816882
 1  3.86996433443344 -1.89456415701570 -1.61162938043804
 1  4.13136564396440 -3.62659451575158 -2.11449290659066
 1  4.91204507350735 -1.38096364096410  0.63302369346935
 1  5.30936329472947 -2.88795311251125  1.43475736203620
 1  6.76187540754075 -3.64521882138214 -0.29878055635564
 1  6.28630747024702 -2.02268448444845 -1.13811349754975
 1  7.32645344694469 -0.79791634593459  0.27974672797280
 1  7.73032194239424 -1.96319456795680  1.53233070547055
 1  8.97352325192519 -1.71350939163916 -1.34898311701170
 1  8.77286945234524 -4.19398825872587 -0.21846431663166
 1  10.37146017541754 -3.43624697939794 -0.42150973287329
 1  9.87338408600860 -3.60024575317532  1.13367433043304
 1  9.60708176907691  0.19454786518652  0.11135030943094
 1  9.81326028462846 -1.17818613791379  1.33811474877488
 1  11.78623055415542 -1.63410073177318 -0.05016432423242
 1  11.46386232643264 -0.89652128762876 -1.29752059575958
 1  11.76574659275927  1.38055112691269  0.04900769036904
 1  12.48518927762776  0.14295557885789  1.24605378047805
 1  13.62608335063506  0.53572831563156 -1.54653085788579
 1  14.96959718691869 -0.93647666496650  0.69867496499650
 1  14.00850123662366 -1.69096227512751 -0.45390164426443
 1  15.48869872637264 -0.57289061676168 -0.76479888288829
 1  13.62477172277228  2.75583388258826 -0.13778365566557
 1  14.50465807800780  1.67343375787579  1.12401122842284
 1  16.39902862996300  1.36812227372737 -0.97586540154015
 1  15.26786158165817  2.26596484788479 -1.87154068496850
 1  15.28875033713371  4.24261746944694 -0.95910719071907
 1  16.16259589348935  3.95179113851385  0.59915237403740
 1  18.09269908670867  2.98464197269727 -1.17510189808981
 1  16.21019815661566  4.50235751465147 -2.94525880478048
 1  18.02041443134313  4.31022741594159 -3.43033046664666
 1  16.99492417771777  3.05276018721872 -3.16759731293129
 1  18.09090696469647  5.16398705170517  0.36955612131213
 1  19.04924253505351  5.56390261676168 -1.29344148524852
 1  17.31862443224323  5.87327173727373 -0.86358471057106
 1 -4.96487437203720 -7.90340143954395 -0.16889120512051
 1 -6.12836332763276 -7.12336171757176  0.77098694199420
 1 -4.46327854525452 -6.97016689288929  1.29524239263926
 8 -7.80668356365636  6.81619165056506 -0.58988241664166
 1 -8.96173955775578  6.17571498719872 -2.05231369886989

