%nproc=3
%Mem=2GB
# td=(NStates=1) iop(3/107=0140000000,3/108=0140000000) iop(3/107=0140000000,3/108=0140000000) CAM-B3LYP/6-31G(d,p) 

TD

0 1
12 -5.71357708890889  1.24714474217422  0.25173784258426
 6 -5.07760788258826 -2.13428739343934 -0.29829289438944
 6 -3.36977843774377  1.15242778427843  2.78903034123412
 6 -6.16106252855286  4.51955997909791  0.67660002120212
 6 -7.84543546154615  1.13967264966497 -2.37267136103610
 7 -4.37302438693869 -0.30197612071207  1.11339150615061
 6 -4.25777099749975 -1.63450463186319  0.71197491599160
 6 -3.20699210091009 -2.36711791039104  1.55070065866587
 6 -2.90756491189119 -1.30066073577358  2.63489027562756
 6 -3.61826862686269 -0.04517366996700  2.20772143074307
 6 -3.49103121112111 -1.73992068466847  3.99579743914391
 6 -1.89170401370137 -2.69022301550155  0.65541972807281
 6 -1.06130389328933 -3.61150623852385  1.41584546144614
 6  0.20973684108411 -3.95421029312931  0.56022418351835
 8  0.46482033593359 -3.54362405120512 -0.53555357075708
 8  1.03043472567257 -4.73082822762276  1.32648863736374
 7 -4.85455400640064  2.58302853955396  1.49558624522452
 6 -4.03243733093309  2.37986600260026  2.52488771457146
 6 -3.66831736893689  3.57215729822982  3.19971891629163
 6 -4.55533128882888  4.58360682618262  2.68193407760776
 6 -5.17702706510651  3.92601727822782  1.55258040994099
 6 -2.81260988588859  3.85641272497250  4.33262713321332
 6 -4.71650435043504  5.99723975817582  3.01165660246025
 8 -4.11279376667667  6.54976980718072  3.89966393889389
 7 -6.81198284788479  2.58903683618362 -0.78511117881788
 6 -6.91346354415441  3.96391679717972 -0.34571277437744
 6 -7.84582972317232  4.61808286508651 -1.23143595269527
 6 -8.32933596639664  3.58712784288429 -2.11606615901590
 6 -7.75903971547155  2.34085225932593 -1.70066383618362
 6 -8.24802708140814  6.01869323902390 -1.25476661126113
 6 -9.30335681408141  3.76444738303830 -3.35397794639464
 6 -8.44216319701970  3.95665702880288 -4.62109535623562
 7 -6.38663443074307 -0.17223240344034 -1.03125414581458
 6 -7.33693730043004 -0.07302820842084 -2.03330925352535
 6 -7.40149326592659 -1.27546269896990 -2.68828185278528
 6 -6.56471195489549 -2.11988576187619 -2.06279548944895
 6 -5.96073399689969 -1.41726575607561 -1.11443930863086
 6 -8.40205558025803 -1.58641843044304 -3.82102302170217
 6 -6.09854348144814 -3.56240534653465 -2.05725111901190
 8 -6.46101934253425 -4.51192616271627 -2.65376562226223
 6 -5.02532278577858 -3.58271003770377 -0.84489110991099
 6 -5.41365849344934 -4.68083328492849  0.17325447644764
 8 -5.85689987258726 -4.46588252165217  1.20949807010701
 8 -5.13726368956896 -5.87837172127213 -0.30481465286529
 6 -5.36452980218022 -6.91188477957796  0.60884841964196
 6  2.36971365296530 -5.07110337053705  0.67903588488849
 6  3.51443475357536 -4.06973847314731  0.99113039883988
 6  3.97530663436344 -3.08230805170517  0.12408478347835
 6  3.53078797609761 -2.95118830723072 -1.30747841664166
 6  5.12384659065907 -2.20482475067507  0.53938578947895
 6  6.47239284398440 -2.61147610061006 -0.05574524862486
 6  7.54845397209721 -1.71275292109211  0.42968680328033
 6  9.00107871637164 -1.94711069306931 -0.13155986918692
 6  9.53722080218022 -3.37363726622662  0.06364948994900
 6  9.95792122772277 -0.91442206310631  0.40652861626163
 6  11.26564972227223 -0.88575137023702 -0.32696800740074
 6  12.05948356895690  0.29047823832383  0.15239602780278
 6  13.47585697979798  0.49383907080708 -0.54066382358236
 6  14.43669184218422 -0.71568229822982 -0.25400208540854
 6  14.11685162336234  1.77865263746375 -0.04766240864086
 6  15.40447972887289  2.10031196649665 -0.93559066676668
 6  15.96748636833683  3.49237174717472 -0.70550164316432
 6  17.33956835153515  3.87439635513551 -1.45576662446245
 6  17.14991397349735  3.99851541424142 -2.92102442244224
 6  17.91101452065206  5.20186831283128 -0.78004896189619
 1 -2.93702920882088  1.13045990959096  3.83823143434343
 1 -6.38963984688469  5.63876007820782  0.80837059975998
 1 -8.50729592869287  1.19819408090809 -3.18366374727473
 1 -3.27441450665067 -3.39992310901090  2.04220996309631
 1 -2.01712279827983 -1.03673128132813  2.87161932793279
 1 -2.95423474867487 -2.68474505540554  4.37155710161016
 1 -3.37582418251825 -1.04877699539954  4.87286342224222
 1 -4.44716639243924 -1.70610852885289  3.54301752435243
 1 -2.20294746034604 -3.17093013801380 -0.27847558215822
 1 -1.46822752245225 -1.89895852325233  0.44092493379338
 1 -0.80827521762176 -3.17105707800780  2.44682922402240
 1 -1.72754223282328 -4.54690152645265  1.50816985368537
 1 -1.73330198229823  3.55695038173817  4.13930631173117
 1 -2.81616927092709  4.82343198229823  4.62796845974597
 1 -3.04710464296430  3.36742993709371  5.46479345614561
 1 -5.54809866916692  6.56789477197720  2.40432254805481
 1 -9.82675665816582  2.82011916381638 -3.49498065266527
 1 -9.84077156005601  4.71714924942494 -3.29634262686269
 1 -9.04103986488649  3.98303620362036 -5.35353166376638
 1 -7.80793475947595  5.01080302090209 -4.60195987778778
 1 -7.85355563046305  3.03301761566157 -4.64862897759776
 1 -8.38111469306931 -0.85581883958396 -4.72610257925793
 1 -8.17630725862586 -2.70360742104210 -4.49962930683068
 1 -9.36865011411141 -1.50740737533753 -3.43843812891289
 1 -4.03740551655166 -3.77702352535254 -1.46400133023302
 1  2.59592753655365 -6.04017131023102  1.06899528742874
 1  2.31507483408341 -5.20987951435144 -0.46477191229123
 1  3.95183116551655 -4.02631275357536  1.98904726882688
 1  2.45471292319232 -3.26825838073807 -1.33578622872287
 1  3.65868320632063 -1.77406210681068 -1.57696591409141
 1  4.09157166456646 -3.63949580588059 -2.15711716901690
 1  4.91367523652365 -1.17658320292029  0.27940833193319
 1  5.12021437983798 -2.31872618981898  1.64880876717672
 1  6.53345256525653 -3.77793209270927 -0.16563724202420
 1  6.44738357785779 -2.40531274727473 -1.05683536973697
 1  7.29704050565056 -0.54405095939594  0.26146489978998
 1  7.55718462866287 -1.59665791429143  1.58313578597860
 1  9.00714661426143 -1.61512955365537 -1.28056627532753
 1  8.94701686708671 -4.20792965286529 -0.14948741894189
 1  10.32790581998200 -3.58961231593159 -0.43044062596260
 1  9.63163991159116 -3.59224495309531  1.21028199119912
 1  9.21735279617962  0.03832224262426 -0.04730555615561
 1  10.15066402500250 -0.91504982428243  1.48078901620162
 1  11.79600153125313 -1.81059838153815 -0.08700800860086
 1  11.05485142534253 -0.88422005750575 -1.43639448314832
 1  11.67561757985798  1.15441851365137 -0.12136934733473
 1  12.23185394409441  0.17589887318732  1.20863003810381
 1  13.24197493979398  0.70170491329133 -1.52533873867387
 1  14.67484771197120 -0.73115613291329  0.74270936843684
 1  14.05417580408041 -1.82623580248025 -0.63943019711971
 1  15.43323317981798 -0.65494882258226 -0.74262666566657
 1  13.46842608820882  2.68782708190819 -0.20960083738374
 1  14.22246985918592  1.76323273777378  0.93263209050905
 1  16.03045177227722  1.31554701620162 -0.79886770177018
 1  15.28469326482648  2.11530978237824 -2.04280781168117
 1  15.28139960206021  4.20468367606761 -0.86436771677168
 1  16.12823245714571  3.64443040244024  0.40697315611561
 1  18.08390820762076  3.19781328982898 -1.45202959085909
 1  16.39707684448445  4.74020129902990 -3.41655593449345
 1  18.11324371427143  4.36144253745375 -3.47186462006201
 1  17.17901258655866  2.88016292749275 -3.41135168836884
 1  17.92373024702470  4.93094374737474  0.27919708540854
 1  18.77282489328933  5.52945917241724 -1.13573571467147
 1  17.08816138593859  5.99906431653165 -0.85310366246625
 1 -5.23194107870787 -7.98881998139814  0.11614729872987
 1 -6.39389988128813 -6.54446382778278  1.10906074937494
 1 -4.71071328872887 -6.76312618881888  1.35365823422342
 8 -7.72179507480748  6.82261229262926 -0.50268369676968
 1 -9.07384076787679  6.45382279797980 -2.06410487798780

