%nproc=3
%Mem=2GB
# td=(NStates=1) iop(3/107=0140000000,3/108=0140000000) iop(3/107=0140000000,3/108=0140000000) CAM-B3LYP/6-31G(d,p) 

TD

0 1
12 -5.55253098429843  1.25578560626063  0.15640830963096
 6 -4.99933005480548 -2.14309827452745 -0.30195326042604
 6 -3.30563202310231  1.22359490099010  2.70599203740374
 6 -6.14237065936594  4.55656367946795  0.61310367156716
 6 -8.10609152715272  1.10792947534753 -2.36126021992199
 7 -4.27508459295930 -0.25341126422642  0.91923209020902
 6 -4.21744696509651 -1.58919010041004  0.53720743924392
 6 -3.13133453515352 -2.30255145374537  1.44928051665167
 6 -2.91333548894889 -1.27551822152215  2.57204399099910
 6 -3.61037783778378 -0.01313046564656  2.06791745034503
 6 -3.50678278627863 -1.73209990259026  3.98361622102210
 6 -1.91870671397140 -2.68167216041604  0.65947013311331
 6 -0.97734549744974 -3.54946003390339  1.40551442834283
 6  0.27211307870787 -3.90182505460546  0.66107426852685
 8  0.43886774067407 -3.40856054485449 -0.39540955635564
 8  1.08423010521052 -4.69585473027303  1.32996898539854
 7 -4.88396694769477  2.75490572727273  1.43074976157616
 6 -3.96861094829483  2.46633464946495  2.40451567736774
 6 -3.80380091729173  3.66007609010901  3.16845578997900
 6 -4.53077883358336  4.66708517401740  2.53858974317432
 6 -5.19914927732773  4.04364904140414  1.49379453135314
 6 -2.85587421232123  3.66970405410541  4.34386825732573
 6 -4.82901560156016  5.97336737093709  3.00537597439744
 8 -4.19732221952195  6.53969880008001  3.97865183768377
 7 -6.91499314891489  2.63616154865487 -0.71026369406941
 6 -7.01723392119212  3.95107551305130 -0.34472267536754
 6 -8.04006914711471  4.62747380418042 -1.25491830093009
 6 -8.48626165896590  3.60138926902690 -2.08865341774177
 6 -7.81498531003100  2.44693286738674 -1.71998576837684
 6 -8.40160243894390  6.03305467516752 -1.14108524312431
 6 -9.38694517291729  3.77705864416442 -3.26576912551255
 6 -8.72458143884388  3.86465782888289 -4.57701094779478
 7 -6.43090885818582 -0.14367954815482 -1.01293231363136
 6 -7.41889549624962 -0.08095900150015 -2.09505542814281
 6 -7.58832194879488 -1.31184633733373 -2.75076810141014
 6 -6.69019450315032 -2.11697547084708 -2.03053226312631
 6 -6.04269219271927 -1.42488651815181 -1.02316018071807
 6 -8.52495787048705 -1.63934372297230 -3.77150807020702
 6 -6.18281190829083 -3.41987109310931 -2.01749714361436
 8 -6.47172041264126 -4.54882985308531 -2.60658090379038
 6 -5.05887614111411 -3.54709647634763 -0.83243986478648
 6 -5.31241836943694 -4.66606180778078  0.14619177017702
 8 -5.71026520912091 -4.42377831123112  1.27414453475347
 8 -5.13319328252825 -5.85689957405741 -0.36073024442444
 6 -5.36773012221222 -6.88086167726773  0.56717425222522
 6  2.32061874347435 -5.08552481268127  0.71201918321832
 6  3.36420973107311 -4.11382288158816  1.04822610841084
 6  4.00601970567057 -3.30262008290829  0.12728510351035
 6  3.71243614091409 -3.27893108150815 -1.33388105690569
 6  5.17963216921692 -2.39451371957196  0.64763661456146
 6  6.59137474217422 -2.64521947494749  0.06908723462346
 6  7.65998512521252 -1.72374402020202  0.56270010461046
 6  9.05295390389039 -1.87541352335234 -0.13891060426043
 6  9.69070615071507 -3.35307521002100  0.03071619661966
 6  10.07303273887389 -0.81512213311331  0.29416738013801
 6  11.38047120442044 -0.72511530663066 -0.34594990559056
 6  12.25085270587059  0.40062925342534  0.04719550775077
 6  13.62800219431943  0.39022870977098 -0.65158491569157
 6  14.49989816281628 -0.87870860086009 -0.25231191639164
 6  14.23515345354535  1.74429920212021 -0.35861350375037
 6  15.47557683858386  2.08083001830183 -1.06538364606461
 6  16.09552917261726  3.41863437343734 -0.55502659565957
 6  17.45135953065306  3.82723163866387 -1.18358940674067
 6  17.16940592269227  3.95854141684168 -2.81545386538654
 6  17.91898531773177  5.18072619861986 -0.63255421242124
 1 -2.51127663356336  1.09337620122012  3.36101371257126
 1 -6.37892877577758  5.49514571677168  0.73691345404540
 1 -8.93151835093509  1.12192645414541 -3.05598097899790
 1 -3.56446351155116 -3.21563468016802  1.84243998609861
 1 -1.93432451845185 -0.84625223342334  2.64947711371137
 1 -2.63873319851985 -2.51563814471447  4.33421336723672
 1 -3.61851845194519 -0.95375749344934  4.79418555445545
 1 -4.46614829062906 -2.22374029202920  4.05628885148515
 1 -2.25074223982398 -3.32425547054705 -0.23584131873187
 1 -1.22759345904590 -1.80151877927793  0.38784962626263
 1 -0.59262365246525 -2.96870684298430  2.32939748084809
 1 -1.30977045564556 -4.44346118241824  1.70986002270227
 1 -1.71087974007401  3.60844553125313  4.05314769586959
 1 -2.97217487148715  4.63593323242324  4.85736139903990
 1 -3.25604553705370  2.76388958305831  5.05822279907991
 1 -5.85963982328233  6.42210019251925  2.47806992279228
 1 -10.05824980748075  2.95958311021102 -3.51790294489449
 1 -10.16338382128213  4.77142467696770 -3.20625361796180
 1 -9.40587634853485  3.98546644664466 -5.49056536713671
 1 -7.97627159315932  4.67476941754175 -4.70709039083909
 1 -8.04853512841284  2.90375468936894 -4.72818693339334
 1 -8.48529511111111 -0.93366662436244 -4.67749771877188
 1 -8.59640926882688 -2.72371943224322 -4.08969831373137
 1 -9.57604085318532 -1.52444907950795 -3.33010729582958
 1 -4.18539031503150 -3.68184400740074 -1.38635356545655
 1  2.53004094789479 -5.94586187928793  1.00823921182118
 1  2.09115244184418 -5.39953848024803 -0.30452588768877
 1  3.49511549394939 -3.87353747604761  2.09800816491649
 1  2.82480993289329 -3.82326388128813 -1.60361301140114
 1  3.90542788078808 -2.25821052165217 -1.64680289778978
 1  4.43885639303930 -3.94178603490349 -1.91890334763476
 1  4.77841171017102 -1.31868741334133  0.57284767586759
 1  5.16392875127513 -2.67959227642764  1.77285117141714
 1  6.63626284628463 -3.62009630913091  0.33329265096510
 1  6.47606644614461 -2.53611582758276 -1.11309099529953
 1  7.26018682028203 -0.63561011531153  0.61277003030303
 1  7.87940685088509 -1.93080132863286  1.74456192859286
 1  8.89186508610861 -1.97099514021402 -1.18540675937594
 1  9.09126129152915 -4.07181604150415 -0.74830730093009
 1  10.61824485388539 -3.26220957565757 -0.43297087898790
 1  9.77558430603060 -3.64495022362236  1.09614057705771
 1  9.69636069696970  0.16085449584959  0.13941311571157
 1  10.28184714331433 -0.79601792109211  1.39425036233623
 1  12.00250218131813 -1.55744306600660 -0.27269657745775
 1  11.12060800100010 -0.68511014651465 -1.39591043474347
 1  11.61321133923392  1.16406947874788  0.02663545314531
 1  12.54618537723772  0.25415669896990  1.11975115021502
 1  13.54076481878188  0.22158690149015 -1.73078928372837
 1  14.53317354455446 -0.89916293359336  0.97072216971697
 1  14.07748813531353 -1.87585076397640 -0.46861311541154
 1  15.48418827532753 -0.91969529722972 -0.86059846284628
 1  13.55252449804980  2.48166646584659 -0.63554343164316
 1  14.24436204840484  1.97476389088909  0.71417024432443
 1  16.17682640974097  1.26728218971897 -1.31496931193119
 1  15.12691748724873  2.09683793519352 -2.20385391629163
 1  15.20872233433343  4.16276948464847 -0.87876915691569
 1  16.02900253415341  3.34128008740874  0.55818827762776
 1  18.20722053885389  2.94315782428243 -0.97776216411641
 1  16.29069620642064  4.56969424832483 -2.79471375027503
 1  18.03718610851085  4.43026942014201 -3.21995942954295
 1  16.94735942124212  3.01945685688569 -3.15478603180318
 1  17.95384325832583  4.95675632863286  0.40414958065807
 1  18.85950356115612  5.44439066556656 -1.25336747784778
 1  17.13766633643364  6.08639304940494 -0.79311766386639
 1 -5.17050493509351 -7.88355945534553  0.13874955895590
 1 -6.24959545084508 -6.99187856925693  0.96264610791079
 1 -4.66848906630663 -7.05589546574658  1.44001687008701
 8 -7.88038093339334  6.75304533593359 -0.30589401780178
 1 -9.16733011681168  6.50504792049205 -1.79366783428343

