%nproc=3
%Mem=2GB
# td=(NStates=1) iop(3/107=0140000000,3/108=0140000000) iop(3/107=0140000000,3/108=0140000000) CAM-B3LYP/6-31G(d,p) 

TD

0 1
12 -5.63901963316332  1.27190721842184  0.15803847264726
 6 -5.00254037583758 -2.12068603330333 -0.36207927302730
 6 -3.40543200310031  1.21253379487949  2.80483192139214
 6 -6.22721914421442  4.58668669176918  0.67945030623062
 6 -8.03307422542254  1.27605628802880 -2.39799389328933
 7 -4.27209429392939 -0.29303522662266  0.97995816281628
 6 -4.30890611101110 -1.60186136753675  0.55963968246825
 6 -3.22760416211621 -2.29309050765076  1.48406399499950
 6 -3.03230738613861 -1.27597826752675  2.63375016161616
 6 -3.57103390339034 -0.02511166376638  2.05033569216922
 6 -3.65206731473147 -1.70395708830883  3.91873973337334
 6 -1.91537638093809 -2.56759075227523  0.69206339243924
 6 -0.97937570047005 -3.59361444934493  1.34504838173817
 6  0.30911677907791 -3.92202707480748  0.58983714481448
 8  0.60469432333233 -3.41279096789679 -0.55035505090509
 8  0.99532121432143 -4.78643378817882  1.20965695419542
 7 -4.88509706070607  2.61943217991799  1.47774446104610
 6 -3.95002909010901  2.47771578757876  2.48802402820282
 6 -3.61629216641664  3.73536361886189  3.13743268766877
 6 -4.44775053075308  4.66377484298430  2.48442432663266
 6 -5.24301366376638  3.91506618311831  1.49767491939194
 6 -2.69760838573857  3.80644772847285  4.29444331483148
 6 -4.55644834483448  6.04821485568557  2.83675911271127
 8 -3.92852533983398  6.53247807800780  3.79296326882688
 7 -6.87704935453545  2.69371730423042 -0.80186285398540
 6 -6.99199139693969  4.00892129762976 -0.34726292939294
 6 -8.02415755595560  4.62010306710671 -1.12463527262726
 6 -8.58874190699070  3.72410154025403 -2.01938649104910
 6 -7.88512232373237  2.51079925402540 -1.74476824662466
 6 -8.39290156885689  6.07929929962996 -1.07685882048205
 6 -9.59410588898890  3.81471240954095 -3.11402395099510
 6 -9.04878385908591  3.82838420152015 -4.49973322002200
 7 -6.34645041234123 -0.11934711491149 -1.15865688608861
 6 -7.38514212091209 -0.00223112871287 -2.11244716731673
 6 -7.64115723232323 -1.30346549924993 -2.63021604620462
 6 -6.74809029272927 -2.17186095939594 -2.00982019191919
 6 -6.01958988248825 -1.37142117161716 -1.02415027972797
 6 -8.57927330203020 -1.68062785138514 -3.81082200160016
 6 -6.20376400350035 -3.53497260326033 -2.07582297619762
 8 -6.42830607120712 -4.49150412051205 -2.77588783448345
 6 -5.08434868836884 -3.54330609730973 -0.99128574937494
 6 -5.27551467906791 -4.70318552015202 -0.00708355735574
 8 -5.71691587418742 -4.47979391279128  1.10067718801880
 8 -4.92046200940094 -5.85253913801380 -0.42435660706071
 6 -5.08781213041304 -7.07435102620262  0.47872540734073
 6  2.25032171377138 -5.06374263446345  0.66662464376438
 6  3.41731504160416 -4.24595609490949  1.12910419621962
 6  4.07735683938394 -3.40994081498150  0.31249362436244
 6  3.79918481578158 -3.09215240364036 -1.18394606340634
 6  5.17043124912491 -2.49508377657766  0.85415726662666
 6  6.62455806050605 -2.73597855085509  0.29132945884588
 6  7.68879800650065 -1.79675132093209  0.78737257185719
 6  9.01298990749075 -2.12830881288129  0.12775606240624
 6  9.54470155025503 -3.50084998749875  0.39871299629963
 6  10.05411084668467 -0.89682030293029  0.46822478587859
 6  11.46548970627063 -0.93766656175618 -0.27875318591859
 6  12.41929955055506  0.26556574707471  0.13171395959596
 6  13.61967136123612  0.33968365526553 -0.62487224442444
 6  14.58289646264626 -0.71126185618562 -0.31120780598060
 6  14.15544548274828  1.81209598179818 -0.28147578997900
 6  15.45777505840584  2.24337627292729 -1.06587369506951
 6  16.05809542924292  3.53502601260126 -0.58915000800080
 6  17.31745614031403  3.90867978347835 -1.41823287108711
 6  16.90034901700170  3.96885244794479 -2.96047836783678
 6  17.95320874007401  5.25643376937694 -0.95856681368137
 1 -2.82401790769077  1.08826569016902  3.42040965216522
 1 -6.43035391829183  5.64301050325033  0.95950571327133
 1 -8.73084828392839  1.28284254575458 -3.22706808770877
 1 -3.44051111631163 -3.36103922062206  1.81261700380038
 1 -1.96290737673767 -1.12576018421842  2.60857302330233
 1 -3.14713403860386 -2.63988056895690  4.27901784768477
 1 -3.51761836193619 -0.99165128282828  4.86868300420042
 1 -4.82581425722572 -1.96047396539654  3.82088531113111
 1 -2.08778594419442 -3.00698374337434 -0.30057779237924
 1 -1.22005270497050 -1.70239886728673  0.64257509880988
 1 -0.64320871097110 -3.30646061836184  2.21677621872187
 1 -1.34954443304330 -4.65991282758276  1.55581461816182
 1 -1.79621827392739  3.58367305400540  3.84058643974398
 1 -2.71253890789079  4.73145278437844  4.74424008690869
 1 -2.89658959145915  3.14532772687269  5.19773675047505
 1 -5.07538139743974  6.73837181968197  2.03743585938594
 1 -10.17872185468547  3.11533868576858 -2.80611176577658
 1 -10.13210069296930  4.75261279577958 -2.87106009860986
 1 -9.93719948084808  3.77332523252325 -5.34056036663666
 1 -8.27156112211221  4.60167210781078 -4.50682036383638
 1 -8.54538481338134  2.67968228212821 -4.72218633333333
 1 -8.41448803040304 -1.01215447314731 -4.60669063806381
 1 -8.68329795769577 -2.89740680098010 -3.90596994089409
 1 -9.61803505260526 -1.42960959555956 -3.48016230133013
 1 -4.18736051205121 -3.85346116911691 -1.54646957705771
 1  2.66983492729273 -5.98376566966697  0.76862525042504
 1  2.14363769036904 -5.22265079147915 -0.32802823792379
 1  3.68868485088509 -4.16905702800280  2.25069343344334
 1  2.97141459335934 -3.55214676957696 -1.51385403550355
 1  3.79199653765377 -2.03933863446345 -1.38931714921492
 1  4.48780128752875 -3.48615047134713 -1.76807826512651
 1  4.90164403340334 -1.45726127072707  0.42678306940694
 1  5.18073043144314 -2.42657697489749  1.97022090839084
 1  6.72357157715772 -3.79029332883288  0.51980130183018
 1  6.40008884838484 -2.68280049604960 -0.80939062526253
 1  7.33301410301030 -0.81583813811381  0.50677943124312
 1  7.60031894209421 -1.90049829832983  1.94739221162116
 1  8.57097299689969 -2.01117915861586 -0.97081530023002
 1  8.78792095749575 -4.11382024192419  0.11259878967897
 1  10.57791082048205 -3.81065442014201 -0.20137771967197
 1  9.79709645724573 -3.63532926152615  1.66513747674767
 1  9.50143120402040  0.00081849224922  0.17804697909791
 1  10.28458741734173 -0.91986030533053  1.50971190849085
 1  12.09171110221022 -1.80221754345435  0.05007569976998
 1  11.27886382658266 -1.00319195469547 -1.35108595229523
 1  11.82141215931593  1.21418449024903  0.12969575917592
 1  12.65872663136314  0.14263554685469  1.28677785288529
 1  13.25359610191019  0.16204094689469 -1.70325653045305
 1  15.05216544374438 -0.78813183048305  0.79926502400240
 1  13.91823220972097 -1.58546172507251 -0.45083133723372
 1  15.55936579307931 -0.75008833653365 -0.93325572857286
 1  13.16765601120112  2.48534683388339 -0.57985786308631
 1  14.39808742094209  1.92661907640764  0.83256208350835
 1  16.18454718181818  1.63240870237024 -1.05595341034103
 1  15.29960475597560  2.20344859625963 -2.13435696659666
 1  15.15720718281828  4.35314852255226 -0.76176745674567
 1  16.31051068496850  3.69782574197420  0.45483794259426
 1  18.04172398919892  3.05002851135114 -1.04114850275027
 1  15.96579371617162  4.73420069896990 -2.88917319621962
 1  17.72048443834383  4.25136152935293 -3.67034446804680
 1  16.44385907120712  2.90845575677568 -3.33562411561156
 1  18.14574244824482  5.21424207720772  0.20455962166217
 1  18.65184279507951  5.53201942844284 -1.53187532863286
 1  17.22890546034603  5.89943435353535 -1.07461581368137
 1 -4.64626251085109 -7.79061016041604 -0.14431874787479
 1 -6.12859335063506 -7.18431781318132  0.63535337863786
 1 -4.38156037343734 -6.86704658085809  1.23696656505651
 8 -8.04927782308231  6.90230026142614 -0.23806723512351
 1 -9.17258064186419  6.30909832553255 -1.95494396189619

