%nproc=3
%Mem=2GB
# td=(NStates=1) iop(3/107=0140000000,3/108=0140000000) iop(3/107=0140000000,3/108=0140000000) CAM-B3LYP/6-31G(d,p) 

TD

0 1
12 -5.63925965716572  1.16766679437944  0.22611528032803
 6 -5.01342146394639 -2.18367233193319 -0.36572963806381
 6 -3.36558801870187  1.27170971247125  2.66145758395840
 6 -6.23535995829583  4.56131415451545  0.66283864506451
 6 -7.98828974697470  1.19993867626763 -2.41588568246825
 7 -4.47381446594660 -0.32508843194319  1.03879404640464
 6 -4.23248846924692 -1.64800598199820  0.69210292879288
 6 -3.12598400010001 -2.30099129772977  1.46531211981198
 6 -2.83112726812681 -1.23680435013501  2.52789957655766
 6 -3.53555035503550  0.01933278067807  2.06238689728973
 6 -3.41563367136714 -1.68391508410841  3.91750961036104
 6 -2.01059590289029 -2.71416540974097  0.68119230533053
 6 -0.91912967586759 -3.49644473237324  1.55194907180718
 6  0.23501936933693 -3.89250412251225  0.69186734783478
 8  0.56835068896890 -3.54571426022602 -0.45793580898090
 8  1.00155183738374 -4.79067421222122  1.36056204470447
 7 -4.98685723672367  2.62750298699870  1.50851753835384
 6 -4.00514460166017  2.46607462346235  2.51072629842984
 6 -3.66458699589959  3.68441852435244  3.19880882528253
 6 -4.52646840254025  4.58350681618162  2.64268015221522
 6 -5.29127849024902  3.92523720022002  1.51940709260926
 6 -2.75463408830883  3.82947003070307  4.34705857635764
 6 -4.64049674967497  6.08946898109811  2.83781921872187
 8 -3.98031051835184  6.62562739293929  3.64163813631363
 7 -6.83991564116412  2.65943387588759 -0.73093576127613
 6 -6.98297049484948  3.92680308580858 -0.28064626772677
 6 -7.92495763596360  4.59303035983598 -1.09013182228223
 6 -8.48949198199820  3.69800893099310 -2.04030858325833
 6 -7.78594240574057  2.39880805490549 -1.71372514231423
 6 -8.26721900060006  6.06963833353335 -1.09554068866887
 6 -9.40074655305531  3.88663960226023 -3.07833038163816
 6 -8.70840982168217  4.02730409350935 -4.60974422112211
 7 -6.40899666696670 -0.11391657185719 -1.20751177157716
 6 -7.30822442914291 -0.05288619421942 -2.19550547314731
 6 -7.67671078767877 -1.34810996369637 -2.66069909450945
 6 -6.79992547624763 -2.19031280458046 -2.00812002190219
 6 -5.94777270077008 -1.36304033353335 -1.19939780448045
 6 -8.59286466116612 -1.64069385798580 -3.75936685608561
 6 -6.20038366546655 -3.54089319531953 -2.01186658055806
 8 -6.64516775737574 -4.47368233833383 -2.74476472217222
 6 -5.01443169666967 -3.52691445814581 -0.98538515931593
 6 -5.34372149974997 -4.66844204580458  0.08052520352035
 8 -5.60869505210521 -4.51353728712871  1.23002012231223
 8 -5.03521348454846 -5.81559544364436 -0.49144331573157
 6 -5.22204555375538 -6.93743733483348  0.45683321812181
 6  2.31664834643464 -5.14957121732173  0.68761674297430
 6  3.38582189228923 -4.17164866416642  1.12021330713071
 6  4.08639774347435 -3.40678049894989  0.29141151615161
 6  3.92656755405541 -3.29391257965797 -1.24585225402540
 6  5.07261146714671 -2.45016928512851  0.74863671457146
 6  6.46749235393539 -2.79974492749275 -0.01120079417942
 6  7.62365149184919 -1.97991963776378  0.65516935153515
 6  8.89669827832783 -1.95819180118012 -0.11582829602960
 6  9.54466154625463 -3.40520042254225  0.03588671367137
 6  10.01057649324933 -1.01068168906891  0.25292325572557
 6  11.43127628492849 -0.99130192529253 -0.29285459605961
 6  12.14967258785879  0.31582077257726  0.17428821702170
 6  13.51338073217322  0.52142182908291 -0.44160391759176
 6  14.53319149214922 -0.63867459745975 -0.18621530673067
 6  14.20187012521252  1.88781355355536 -0.12090973337334
 6  15.42364164506451  2.22153408870887 -0.95426253395340
 6  15.99878949864986  3.53424593459346 -0.63907500050005
 6  17.24258865356536  3.94616353185319 -1.38743979177918
 6  17.11841082318232  3.99310487318732 -2.91203352335233
 6  17.75086850605060  5.32505063106311 -0.97133809080908
 1 -2.46706221212121  1.41026789038904  3.40072768396840
 1 -6.49083996689669  5.55574177637764  0.87983774647465
 1 -8.74604980408041  1.07331159265927 -3.33680906180618
 1 -3.53135020022002 -3.14111722842284  2.04592033413341
 1 -1.74873595959596 -1.13918152635264  2.64651681768177
 1 -3.00297962316232 -2.52595917681768  4.35340528642864
 1 -3.41986858695870 -1.08089020672067  4.84282041794179
 1 -4.65020669646965 -1.83507142514251  3.74051727432743
 1 -2.19321648724872 -3.27873091809181 -0.27012474707471
 1 -1.53451415111511 -1.63271189858986  0.21340218151815
 1 -0.48401279137914 -2.73357332963296  2.27518205930593
 1 -1.40333981258126 -4.31805864216422  1.88255729242924
 1 -1.65263391549155  3.35676036273627  3.87258964006401
 1 -2.60844849884989  4.76005564466447  4.69356501940194
 1 -2.99908984148415  3.04211740584058  5.20886786358636
 1 -5.59859371867187  6.61741972447245  2.44092620842084
 1 -10.12569655215522  3.13241039293929 -3.06455761036104
 1 -9.93664114701470  4.88645618011801 -3.14106709930993
 1 -9.33063882478248  4.18493639363936 -5.43037934853485
 1 -7.97107107310731  4.79926186678668 -4.43924360616062
 1 -8.01936221112111  3.11649596349635 -4.61761587628763
 1 -8.45419200080008 -1.02498575627563 -4.62527249624962
 1 -8.66999662756276 -2.73711077137714 -3.76275561946195
 1 -9.53769701880188 -1.11795843044304 -3.44978926402640
 1 -4.21202297829783 -3.76176199919992 -1.68427335743574
 1  2.58689663346335 -6.25883317641764  1.01494988288829
 1  2.03539686628663 -5.16992551895190 -0.24701013611361
 1  3.66432241464146 -4.23166328862886  2.19030739483948
 1  2.87688514041404 -3.44798635353535 -1.36807945804581
 1  4.02543988198820 -2.26377107770777 -1.71612983048305
 1  4.50028253565357 -3.96276813311331 -1.93895535283528
 1  4.71958582758276 -1.46792233683368  0.51059145024502
 1  5.17939029742974 -2.57498181538154  1.83307719401940
 1  6.74454367436744 -4.01288558805881  0.28329765146515
 1  6.18538737823782 -2.67839005500550 -1.00757044324432
 1  7.25804660626063 -0.95099165346535  0.77704645794579
 1  7.98684759495950 -2.21305955445545  1.70929840224022
 1  8.56336223582358 -1.90250829152915 -1.12370058875888
 1  8.92801496689669 -4.16283514341434 -0.41043351355136
 1  10.32705573497350 -3.64607796249625 -0.57589517141714
 1  9.71248799639964 -3.66696242484248  0.98160912391239
 1  9.39117017791779 -0.16626821642164  0.25681485588559
 1  10.20414937353735 -1.23256157545755  1.34983592089209
 1  11.89561149224923 -1.96968429012901  0.19444013621362
 1  11.62505844604460 -1.00274190969097 -1.46639748344834
 1  11.50891090919092  1.19085215701570 -0.09441665206521
 1  12.29240999969997  0.33376465976598  1.44949412451245
 1  13.42193293559356  0.61627637043704 -1.44919112391239
 1  14.56716694389439 -0.84507752505251  0.80319541704170
 1  14.41260164666467 -1.58432161106111 -0.48557481158116
 1  15.44609446594659 -0.28740206790679 -0.46214861786179
 1  13.62196144174417  2.82699099829983 -0.55572544984498
 1  14.30380799299930  2.08150456495650  0.88069689698970
 1  16.07888661576158  1.22632809430943 -0.64699251425143
 1  14.95683047854785  2.17750600200020 -1.93766729762976
 1  15.35118658075807  4.37114032173217 -0.96287756775678
 1  16.09220885478548  3.63038899829983  0.52487494629463
 1  17.89527934473447  3.08095160366037 -1.23827821572157
 1  16.38124526132613  4.69133641254125 -3.19911419031903
 1  18.20260265016502  4.10334672787279 -3.54192162576258
 1  16.81449613491349  3.05094000520052 -3.23735428862886
 1  17.88426630063006  5.67752840584058  0.06780594629463
 1  18.67803541434143  5.52668889538954 -1.28015015611561
 1  17.18753132293229  6.21038544864486 -1.45240359245925
 1 -4.86485437003700 -7.85124622402240 -0.09500381638164
 1 -6.18299879117912 -7.09596897829783  0.97992783608361
 1 -4.64502672007201 -6.69154903110311  1.41559442784278
 8 -7.73784667996800  6.81894192559256 -0.37229065746575
 1 -8.87205058885888  6.40498791449145 -1.91179964746475

