%nproc=3
%Mem=2GB
# td=(NStates=1) iop(3/107=0140000000,3/108=0140000000) iop(3/107=0140000000,3/108=0140000000) CAM-B3LYP/6-31G(d,p) 

TD

0 1
12 -5.64628035923592  1.32082210991099  0.18199086788679
 6 -4.95869599139914 -2.18701266596660 -0.34225729082908
 6 -3.39960142004200  1.27690023152315  2.67884932313231
 6 -6.19812623492349  4.55396341944194  0.59541190239024
 6 -7.98727964596460  1.20535921832183 -2.34452854675468
 7 -4.38219530403040 -0.20023594669467  0.98748891589159
 6 -4.14595981638164 -1.60189137053705  0.68172189068907
 6 -3.23535493719372 -2.36972817141714  1.56383197179718
 6 -2.91554570997100 -1.24201487118712  2.65629241584158
 6 -3.61833863386339 -0.02113126572657  2.17006766536654
 6 -3.34922703070307 -1.77724441704170  4.04599245864586
 6 -1.91808665196520 -2.70547454065407  0.77197138323832
 6 -0.97994575747575 -3.55648073597360  1.45492936983698
 6  0.23576944434443 -3.99110398249825  0.60552871397140
 8  0.45105895979598 -3.53046273507351 -0.49032904830483
 8  1.09162084428443 -4.74097924272427  1.27569355785579
 7 -4.91479003000300  2.65837607430743  1.40070675727573
 6 -3.94708879607961  2.49636765276528  2.45502072787279
 6 -3.63436397359736  3.74237431993199  3.14821376577658
 6 -4.52865862156216  4.60362882838284  2.49737562176218
 6 -5.26827619001900  3.90380505700570  1.43348850075008
 6 -2.67824644954495  3.83339042274227  4.25427929842984
 6 -4.60717341734173  6.02285231943194  2.84646008280828
 8 -3.94701718901890  6.53595842604260  3.73942791529153
 7 -7.02081373097310  2.68513644614461 -0.71093376107611
 6 -7.07126932473247  3.98233863936394 -0.35272347544754
 6 -7.97456259645965  4.68212926972697 -1.19700250935094
 6 -8.56915994879488  3.72278140824082 -1.99242379477948
 6 -7.85208902040204  2.44130230433043 -1.70722449224923
 6 -8.50637291599160  6.00969233893389 -1.14950608520852
 6 -9.63873035143514  3.81933287158716 -3.06517906650665
 6 -8.87765674637464  3.91700306340634 -4.44233748044804
 7 -6.35591135843584 -0.10610579077908 -1.12854387478748
 6 -7.30011361806181  0.10102919731973 -2.15005092769277
 6 -7.53552666926693 -1.32099725242524 -2.74678770337034
 6 -6.70844632833283 -2.16889066236624 -2.00998020792079
 6 -5.92180010351035 -1.34328835833583 -1.11038890359036
 6 -8.50434580928093 -1.56864665326533 -3.77792871227123
 6 -6.06672029912991 -3.50015912191219 -2.10176557045705
 8 -6.49912315291529 -4.43201817191719 -2.69518976467647
 6 -4.91443169666967 -3.52806457315732 -0.92263888468847
 6 -5.21582871047105 -4.64024922652265  0.04511166216622
 8 -5.76131031363136 -4.58344427782778  1.15009212951295
 8 -4.89259922312231 -5.82182606670667 -0.44130830223022
 6 -5.39169251845184 -6.92520611171117  0.44131166596660
 6  2.35307198879888 -5.16318257845785  0.56749473077308
 6  3.47316062616262 -4.24407590689069  1.04296558235824
 6  4.15463456715672 -3.46807662856286  0.28610098509851
 6  3.77094199149915 -3.21872506090609 -1.20218788758876
 6  5.23933813981398 -2.53149741794179  0.83754560546055
 6  6.49338494319432 -2.72257721072107  0.16158648454845
 6  7.62959208590859 -1.91293293909391  0.75078891349135
 6  8.89899850835084 -2.10100608260826  0.06727001380138
 6  9.51342842294229 -3.51577147964796  0.35150827582758
 6  9.93230866646665 -1.01176179707971  0.44607257065707
 6  11.24304746204620 -0.97689048414841 -0.33958926952695
 6  12.15238285888589  0.24362355285529  0.08668945714571
 6  13.58959835393539  0.53062274917492 -0.63557331453145
 6  14.49400757375738 -0.67844857485749 -0.45192187738774
 6  14.30246018421842  1.80068484068407 -0.13821146354635
 6  15.53173245414541  2.15680761606161 -0.92822993069307
 6  16.05598521822182  3.56488899889989 -0.63922501550155
 6  17.27634202890289  3.97978689418942 -1.42321336913691
 6  17.09708869096910  4.18950451315131 -2.94954727472747
 6  17.82357577677768  5.23521164716472 -0.80420137713771
 1 -2.53358886478648  1.25091195479548  3.32476008720872
 1 -6.51762264516452  5.66014221642164  0.58535829852985
 1 -8.68902410151015  1.10396465796580 -3.20860624152415
 1 -3.49819688488849 -3.39175229192919  1.91821756385639
 1 -1.76077716371637 -1.12540014821482  2.62731489748975
 1 -3.01966129132913 -2.77993457435744  4.09404935083508
 1 -2.98475507560756 -1.08461057875788  4.90688682458246
 1 -4.49850152595260 -1.84004192219222  3.95899912251225
 1 -2.33846101170117 -3.24126717171717 -0.28888662326233
 1 -1.49909060876088 -1.72055068246825  0.41930277157716
 1 -0.49445383548355 -3.04076404870487  2.34416895799580
 1 -1.50520999959996 -4.45013184948495  1.79721875857586
 1 -1.45251390349035  3.63198788548855  3.87115949704970
 1 -2.79011666566657  4.87049668876888  4.52306796969697
 1 -3.03265319781978  3.30308350245025  5.10049702650265
 1 -5.11874573387339  6.60898888138814  1.92899501530153
 1 -10.40809479197920  3.02413956585659 -3.07043819841984
 1 -10.11801928482848  4.75250278477848 -2.87084007660766
 1 -9.52930869176918  4.21664956495650 -5.26019232983298
 1 -7.90328429442944  4.64046598719872 -4.47005668746875
 1 -8.45677595249525  2.89459377327733 -4.72396651135113
 1 -8.29135571717172 -0.91236449414942 -4.57361733073307
 1 -8.40597022492249 -2.49615667596760 -4.13142248614862
 1 -9.51687493659366 -1.45215184978498 -3.48047233233323
 1 -3.95409718571857 -3.83675949894989 -1.39425435553555
 1  2.41814975877588 -6.04273156625663  0.96787517541754
 1  1.99757308390839 -5.16332485888589 -0.41692712781278
 1  3.81030701310131 -4.47879800210021  2.15449381348135
 1  2.66492394429443 -3.19537109200920 -1.45159780988099
 1  4.25260259825983 -2.03557825842584 -1.30168838633863
 1  4.27069957735774 -4.03822567886789 -1.85788724602460
 1  4.95656952595260 -1.28949449404941  0.82242263336334
 1  5.47120947934794 -2.55546986418642  1.89320320662066
 1  6.70873009300930 -3.84378867836784  0.19256857855786
 1  6.59361820132013 -2.72294451045105 -0.92513219941994
 1  7.37660846244625 -0.70839739403940  0.54821357465747
 1  7.68221713191319 -2.01384963346335  1.72536000840084
 1  8.79482538213822 -2.18124616531653 -1.12386060476048
 1  8.80460262566257 -4.53927278717872  0.24139166896690
 1  10.54944797419742 -3.70454380908091 -0.21984956685669
 1  9.84179092669267 -3.56013174177418  1.41104206720672
 1  9.63877493839384  0.06637504790479  0.22246142054205
 1  10.23961291989199 -1.03052137143714  1.48015895319532
 1  12.08362029312931 -1.73156047774777 -0.28231753955395
 1  11.15107104730473 -0.83272490799080 -1.48442928662866
 1  11.57295731383138  1.10545361716172 -0.16105331573157
 1  12.53100385908591  0.01780306360636  1.10494967006701
 1  13.16910765306531  0.75690043284328 -1.60525673047305
 1  14.78073830103010 -0.68174119141914  0.59557465496550
 1  14.00280066656666 -1.71359453835383 -0.42987924202420
 1  15.38112796929693 -0.80464379207921 -0.96179858285829
 1  13.64814406000600  2.64821312051205 -0.37507738503850
 1  14.50005761796180  1.54975138963896  1.01369019631963
 1  16.33318204530453  1.55245070657066 -0.64857267226723
 1  15.13641843734373  2.27584583598360 -1.95607913881388
 1  15.28989045114511  4.31375458315832 -0.89755103510351
 1  16.00236987088709  3.71693765316532  0.34885734453445
 1  18.12942275907591  3.11418492699270 -1.45598998689869
 1  16.28417555435544  4.93744102300230 -3.13270754965497
 1  18.04095648554856  4.39560595379538 -3.38944637823782
 1  16.73026771207121  3.26449136033603 -3.44440499369937
 1  18.16316419041904  4.89889054205420  0.20692985868587
 1  18.77257486828683  5.64417064356436 -1.42950509160916
 1  17.03261583138314  6.07023143324332 -0.81346969906991
 1 -4.93415129972997 -7.85630673007301 -0.01830614661466
 1 -6.54286477777778 -6.95460484188419  0.48535837913791
 1 -4.85955817321732 -6.92746262246225  1.44860772917292
 8 -8.02044493979398  6.85144517591759 -0.34293772217222
 1 -9.21678506230623  6.30068748444845 -2.01226969446945

