%nproc=3
%Mem=2GB
# td=(NStates=1) iop(3/107=0140000000,3/108=0140000000) iop(3/107=0140000000,3/108=0140000000) CAM-B3LYP/6-31G(d,p) 

TD

0 1
12 -5.68786451765177  1.18216824452445  0.25878854765477
 6 -4.98319844164416 -2.04804876957696 -0.49704276937694
 6 -3.33854531443144  1.16789933143314  2.77714915311531
 6 -6.24926134843484  4.51918994209421  0.70376273747375
 6 -8.02076299429943  1.16940562296230 -2.42674676857686
 7 -4.46764384888489 -0.31245716881688  1.16983715071507
 6 -4.31344656505651 -1.59514069546955  0.74623834233423
 6 -3.22646404810481 -2.31003220182018  1.51131672027203
 6 -2.80457461286129 -1.33527419711971  2.57811459805981
 6 -3.58942574257426 -0.03724287688769  2.15765642424242
 6 -3.43513562156216 -1.78218491109111  3.96110396979698
 6 -1.96828167146715 -2.70352434563456  0.60113429952995
 6 -1.01828959185919 -3.63860894879488  1.41374525142514
 6  0.23565943334333 -3.96787165926593  0.61333949504950
 8  0.42393624752475 -3.53263295209521 -0.54303431883188
 8  0.96556823902390 -4.73422856765677  1.28658464696470
 7 -4.90982953395339  2.55183542024202  1.52239892649265
 6 -4.02099618681868  2.40611862786279  2.52584781058106
 6 -3.75304584178418  3.57818790129013  3.23887283168317
 6 -4.53205896159616  4.52683114861486  2.61332721692169
 6 -5.27577694009401  3.88221289778978  1.57546269816982
 6 -2.68828745364536  3.91607869156916  4.27619148964897
 6 -4.52194489448945  6.05100513471347  2.87007244404440
 8 -3.93087557485749  6.62024685488549  3.78766273877388
 7 -6.90736238583858  2.63323125562556 -0.72116478417842
 6 -6.96028822662266  3.89177958345835 -0.31394959805981
 6 -7.90379551975198  4.54449550635063 -1.12761557065707
 6 -8.45004803760376  3.70373950405041 -2.09387393979398
 6 -7.84682849434944  2.39037721182118 -1.68685245504550
 6 -8.19711198989899  6.00487185688569 -1.29535066966697
 6 -9.51361784018402  3.86809774807481 -3.19152170077008
 6 -8.80252923362336  4.06717808090809 -4.52864611131113
 7 -6.39130489778978 -0.10215539573957 -1.09709072947295
 6 -7.40005361206121  0.02358145254525 -2.09230515311531
 6 -7.52889600620062 -1.36246139883988 -2.75856888148815
 6 -6.61437692139214 -2.14115788908891 -2.10274948484848
 6 -5.99235715921592 -1.40400442994299 -1.10937880258026
 6 -8.53307868256826 -1.65282507110711 -3.89056997639764
 6 -6.10541416851685 -3.48351745774577 -2.00978637253725
 8 -6.53531677227723 -4.44857982808281 -2.55933617931793
 6 -4.98320857435744 -3.43087485418542 -0.94767138793879
 6 -5.20171729932993 -4.60576577817782  0.10134728572857
 8 -5.66305048764876 -4.49253518691869  1.14326144644464
 8 -4.86390635383538 -5.85625951005100 -0.35992016341634
 6 -5.29202255145515 -6.85367895899590  0.56731426622662
 6  2.34386106770677 -5.05867212741274  0.71312929422942
 6  3.36279959005901 -4.14651615091509  1.00077136293629
 6  4.02548165186519 -3.34852467336734  0.25885826082608
 6  3.51855675297530 -3.00493368176818 -1.17472514131413
 6  5.28404261026103 -2.50816508470847  0.80892274317432
 6  6.52463806850685 -2.81163611661166 -0.01800147424742
 6  7.65376450315031 -1.89315096089609  0.70306414101410
 6  9.00630923942394 -1.98471445344534 -0.08878559175918
 6  9.61401848194819 -3.42189209170917  0.21611473647365
 6  9.95406084168417 -0.79495011591159  0.41764972837284
 6  11.27994115141514 -0.69880267536754 -0.37582289288929
 6  12.22659027962796  0.33234242474247  0.14376516471647
 6  13.54550394449445  0.48476816371637 -0.64231398859886
 6  14.36379455245525 -0.77797852785279 -0.48088477367737
 6  14.33513345154515  1.74036880908091 -0.13830147254725
 6  15.50213949484948  2.12903483878388 -1.07240434813481
 6  15.94330395009501  3.51606411641164 -0.59157025002500
 6  17.37017141184118  4.00878979447945 -1.29989103690369
 6  17.12198118021802  3.85275083778378 -2.82551487148715
 6  17.63094651385138  5.44494262026203 -0.84965592259226
 1 -2.59115462136214  1.20330719431943  3.66728433963396
 1 -6.34982586548655  5.61509771197120  0.88293805650565
 1 -8.71788698779878  1.05156941844185 -3.25380076097610
 1 -3.54817188238824 -3.38154127082708  1.92595833793379
 1 -1.84958604460446 -1.04338194639464  2.57533969997000
 1 -3.07435676087609 -2.77924450535054  4.24242418831883
 1 -3.25404200430043 -1.00113223092309  4.77752388828883
 1 -4.43819549534954 -1.87779569756976  3.95690891349135
 1 -2.36850401600160 -3.27238028302830 -0.31452918751875
 1 -1.34914561426143 -1.82127075447545  0.24363520482048
 1 -0.75041943204320 -3.21041101340134  2.43385792689269
 1 -1.66967644624462 -4.52012884918492  1.49305834253425
 1 -1.70209886198620  3.66268095479548  3.97765014611461
 1 -2.93952160616062  4.72145178427843  4.87120278317832
 1 -2.72374230673067  2.94319751385139  5.01058803560356
 1 -5.15975983528353  6.68094607710771  2.06286840264026
 1 -9.82170615311531  2.78330548244824 -3.15316647124712
 1 -10.37638512141214  4.59069660416042 -3.11526451905191
 1 -9.68172393329333  4.10337823782378 -5.30611692229223
 1 -8.42426639263926  4.95645758635864 -4.59577925972597
 1 -7.91548182308231  3.29673398729873 -4.82020613531353
 1 -8.56215279687969 -0.60508376607661 -4.63691366036604
 1 -8.39016864476448 -2.58521558185819 -4.55857520142014
 1 -9.60874412351235 -1.65914254885489 -3.38872315741574
 1 -4.02590436643664 -3.46862268526853 -1.43037796789679
 1  2.70617856165617 -6.05634292739274  1.29829821772177
 1  2.28441176777678 -5.10805933233323 -0.29196463156316
 1  3.90564654705470 -4.33318344064406  2.08232659675968
 1  2.63681113301330 -3.58168972387239 -1.56876952705271
 1  3.46637397539754 -1.89125382598260 -1.29394761226123
 1  4.38564107150715 -3.13109496579658 -2.13391484878488
 1  4.78648251725173 -1.47044258885889  0.91186157725773
 1  5.37556991539154 -2.71287560476048  1.88759264556456
 1  6.84354357435743 -3.98567286678668  0.08444776647665
 1  6.50047888738874 -2.51793400940094 -1.08612829902990
 1  7.46679748134814 -0.78182473677368  0.68555730903090
 1  7.68785769596960 -2.25323357185718  1.67727519991999
 1  8.82184808440844 -1.80899894059406 -1.08663688238824
 1  8.84529669506951 -4.11665052495250 -0.59097156735674
 1  10.53659668906891 -3.44231758645865  0.03900631873187
 1  9.49573632123212 -3.73965969456946  1.30698166116612
 1  9.49332039293929  0.22564097449745  0.29243841824182
 1  10.02536149474947 -1.17837615691569  1.65513645094509
 1  11.87480941204121 -1.67297461916192 -0.55010431823182
 1  11.18063400360036 -0.38098973447345 -1.46840768446845
 1  11.66679669776978  1.31256432823282  0.15265805540554
 1  12.31953271197120 -0.04669338603860  1.16068524362436
 1  13.32021276357636  0.52811755455546 -1.66915312011201
 1  14.90475070227023 -0.83706672397240  0.56597169466947
 1  13.99958034453445 -1.93314649354935 -0.85682193629363
 1  15.10633048954895 -0.67945127282728 -0.95496789978998
 1  13.54004324992499  2.61823012221222 -0.27086696399640
 1  14.83373098529853  1.76864327882788  0.78139696699670
 1  16.28991771887189  1.30910637213721 -0.88611642664266
 1  15.14947974347435  1.99096734813481 -2.07456098699870
 1  15.23907536963696  4.05162837053705 -0.82570385038504
 1  16.10077971187119  3.28924488388839  0.50051251005100
 1  18.13662347914791  3.26617012551255 -0.93108749664967
 1  16.34375151195119  4.44536181508151 -3.11661594049405
 1  18.15834822472247  3.96787318051805 -3.42361979557956
 1  16.95216990229023  2.72375728692869 -3.20542109530953
 1  17.35320319431943  5.42396304930493  0.16671583728373
 1  18.66606421722172  5.71349757625763 -1.03790593169317
 1  16.75904847464746  6.32609701980198 -1.39425777787779
 1 -5.04243212781278 -7.81648274767477  0.21517720172017
 1 -6.46741723302330 -6.72365174657466  0.69761960526053
 1 -4.69818203560356 -6.94017389358936  1.56474934333433
 8 -7.69759265456546  6.89101913331333 -0.61152458085809
 1 -9.07587097089709  6.28072548824882 -1.92773124062406

