%nproc=3
%Mem=2GB
# td=(NStates=1) iop(3/107=0140000000,3/108=0140000000) iop(3/107=0140000000,3/108=0140000000) CAM-B3LYP/6-31G(d,p) 

TD

0 1
12 -5.65233096429643  1.26802683038304  0.23411608040804
 6 -4.91571169296930 -2.11514547924792 -0.43852691779178
 6 -3.49568102800280  1.19888242974297  2.82990442864286
 6 -6.31180760306031  4.63209123222322  0.67712007320732
 6 -7.96611752975298  1.15594427682768 -2.37453154705471
 7 -4.41061814631463 -0.31218714181418  1.08549871687169
 6 -4.19942516291629 -1.55394657605761  0.64717843634363
 6 -3.24406580828083 -2.35479667826783  1.59034462306231
 6 -2.89522367776778 -1.31090175987599  2.63342012861286
 6 -3.60248704870487 -0.06028518111811  2.14846550515052
 6 -3.40472258025803 -1.72017871047105  4.03241110051005
 6 -2.00365520882088 -2.73075706890689  0.73351753785379
 6 -0.96717448034803 -3.65951103900390  1.40132400930093
 6  0.31097696509651 -3.95162003410341  0.71103926502650
 8  0.49747360126013 -3.55300498929893 -0.42762277767777
 8  1.20298198039804 -4.69657480228023  1.39870585908591
 7 -4.90033858485849  2.61774201090109  1.49560624722472
 6 -4.07712179937994  2.38060607660766  2.51076630243024
 6 -3.71326186338634  3.60780086258626  3.19441838623862
 6 -4.51212696839684  4.62029049454945  2.60198608280828
 6 -5.26754611701170  3.95698037453745  1.52183733563356
 6 -2.76176480138014  3.70575765946595  4.25633950445045
 6 -4.66892959295930  6.06958699289929  2.84588002480248
 8 -4.15213770107011  6.62286711691169  3.82544651715172
 7 -6.85691734133413  2.66113404590459 -0.68387105480548
 6 -6.94259645744574  4.01826223172317 -0.36690489358936
 6 -7.92065720592059  4.57506856365637 -1.24890769986999
 6 -8.50454348714871  3.62262139223922 -2.04871942434243
 6 -7.78538234973497  2.45098327242724 -1.71471524132413
 6 -8.32003428212821  5.94280565026503 -1.26281741634163
 6 -9.41676815521552  3.82070300860086 -3.25747829642964
 6 -8.76612559325933  4.16779814291429 -4.62872611931193
 7 -6.30993676097610 -0.05028020822082 -1.17210823122312
 6 -7.37789139583958  0.03207230163016 -2.10143606620662
 6 -7.55480859745975 -1.36907205990599 -2.73924694929493
 6 -6.66738222192219 -2.09280305360536 -1.98036724662466
 6 -5.87022494599460 -1.40037406690669 -1.12765062976298
 6 -8.68394376907691 -1.73621340994099 -3.80233115251525
 6 -6.31125475257526 -3.57425653165317 -2.00528592249225
 8 -6.52532577317732 -4.52609757985799 -2.72619286498650
 6 -5.08737899139914 -3.59917168386839 -0.87002362316232
 6 -5.38738586618662 -4.72611781338134  0.02404955595560
 8 -5.86425060766077 -4.52657859125913  1.08517563786379
 8 -4.97521748494849 -5.89075295939594 -0.45600977237724
 6 -5.26776012521252 -6.93525711681168  0.46372390719072
 6  2.39155583718372 -5.01958821902190  0.77237521882188
 6  3.45877918801880 -3.93371487078708  1.07712899869987
 6  4.01582068576858 -3.09642946384638  0.26643901890189
 6  3.58760365766577 -2.83682687108711 -1.17615528432843
 6  5.24997920392039 -2.34424869306931  0.74763661456146
 6  6.60050565526553 -2.79704465746575  0.22677300320032
 6  7.75804493119312 -1.91725337113711  0.70863469806981
 6  9.05070367886789 -2.04425040704070 -0.10562727592759
 6  9.61664874497450 -3.46908681118112  0.12268539353935
 6  10.04239967556756 -0.95697631853185  0.38092605600560
 6  11.38368152545254 -0.99328212331233 -0.37066237683768
 6  12.25932355295530  0.19193838433843  0.12657344554455
 6  13.56749614371437  0.45649533643364 -0.70197995519552
 6  14.49254742774277 -0.68873960396040 -0.50865755095510
 6  14.25695563376338  1.72720749294930 -0.25921356375638
 6  15.48497777867787  2.11798373367337 -1.15132223992399
 6  16.05037465716572  3.43282579257926 -0.61701279427943
 6  17.27321171587159  3.95478439393939 -1.31922297009701
 6  17.23724270637064  4.14057962066207 -2.84875719571957
 6  17.74694811401140  5.17587571357136 -0.69799075607561
 1 -3.00116562246225  1.24393125672567  3.81734934613461
 1 -6.32054293719372  5.74422062426243  1.01650141284128
 1 -8.82455765486549  1.26825108660866 -3.18913429432943
 1 -3.82911997719772 -3.10110322702270  2.04854059615962
 1 -1.68801988798880 -1.20918852705271  2.58864103010301
 1 -3.17730705590559 -2.73449002990299  4.37462740864086
 1 -3.16769336943694 -1.03735585328533  4.71929806570657
 1 -4.38757043284328 -1.92490040804080  3.91033425602560
 1 -2.33480064566457 -3.37732077707771 -0.13703143774377
 1 -1.54310501020102 -1.83668229562956  0.53820466176618
 1 -0.60163455355536 -3.23347331963196  2.23931847294729
 1 -1.32300177877788 -4.52337917421742  1.80517955465547
 1 -1.77530618271827  3.03833852055206  4.04173655475548
 1 -2.78817647164716  4.86430606970697  4.39977564046405
 1 -3.13769370187019  3.29462265636564  5.21482845964596
 1 -5.26270012931293  6.55709369186919  2.23088520432043
 1 -10.06333031553155  3.03836098799880 -3.20231138573857
 1 -10.09306678957896  4.67797533203320 -3.02780577317732
 1 -9.60367612851285  4.19321722172217 -5.21581789238924
 1 -8.23915788178818  5.19465140574057 -4.59775945774577
 1 -8.15241551645165  3.38667298119812 -4.75220933563356
 1 -8.45373195479548 -1.16713997169717 -4.81764173317332
 1 -8.54272390029003 -2.91917897819782 -3.90255959985999
 1 -9.68217146624663 -1.51570820542054 -3.28720300540054
 1 -4.20447222322232 -3.68672449544954 -1.55284021412141
 1  2.73110105390539 -5.92351964506451  1.30476886478648
 1  2.28508183478348 -5.23140166656666 -0.27820325542554
 1  3.95042102450245 -3.97025714801480  2.15852421652165
 1  2.37811526342634 -2.94485604050405 -1.28605125522552
 1  3.73116045404540 -1.79248394899490 -1.53548176567657
 1  4.17891039843984 -3.58610046634663 -1.85811726902690
 1  5.08981285028503 -1.13904944954495  0.74211460256026
 1  5.17236959535954 -2.55522984018402  1.70483436973697
 1  6.91844106410641 -3.91954625412541  0.51987130883088
 1  6.74800363986399 -2.63023523952395 -0.86019570577058
 1  7.29720052165217 -0.91548810311031  0.50401915521552
 1  7.94514342454245 -1.88268651715172  1.76997446984698
 1  8.77236313591359 -1.80209825052505 -1.23507172587259
 1  8.78388055345535 -4.33532239213921 -0.32350482068207
 1  10.54332736213621 -3.53844719941994 -0.46167374927493
 1  9.85465221282128 -3.68742447104710  1.30250121312131
 1  9.61811287218722  0.08573698409841  0.08953812821282
 1  10.18589754835483 -1.14717303660366  1.41842277957796
 1  12.11023295439544 -1.81670899259926 -0.26007531533153
 1  11.33447938813881 -0.63280491599160 -1.46489733343334
 1  11.84604462256226  1.28557162896290  0.06097888748875
 1  12.49096985568557  0.07492877617762  1.29074824992499
 1  13.40455119741974  0.44438918171817 -1.75803200800080
 1  14.64259448664867 -1.01122413971397  0.49130422792279
 1  14.20125051155116 -1.77917109600960 -0.89710596469647
 1  15.46848670517052 -0.65775910361036 -1.08473087608761
 1  13.49246849244924  2.33631193039304  0.01113123582358
 1  14.65779339153915  1.19661607610761  0.54322314961496
 1  16.25577430453045  1.46736219771977 -1.06226404140414
 1  15.31938673417342  2.19189744114411 -2.27165069596960
 1  15.06823828592859  3.93608681638164 -0.66191747174717
 1  15.97170680458046  3.60601656105611  0.62432489128913
 1  18.06980679747975  3.20203371187119 -1.06975136303630
 1  16.36535367216722  4.81196847574757 -3.17859213811381
 1  18.19470186008601  4.46790318351835 -3.29106654025403
 1  16.80086477177718  3.23897880908091 -3.40401095429543
 1  18.12122999699970  4.96520717371737  0.29853901960196
 1  18.57224483528353  5.67060328682868 -1.40216235733573
 1  17.18298086788679  5.96410082018202 -0.47751610371037
 1 -4.80666855145515 -7.70837193659366 -0.07262157815782
 1 -6.44873536483648 -6.88675805720572  0.47976782008201
 1 -4.94100631803180 -6.73758363456346  1.42708557695770
 8 -8.01588448374837  6.84515454685469 -0.45518894729473
 1 -8.91049443324332  6.23535095079508 -2.09423789128913

