%nproc=3
%Mem=2GB
# td=(NStates=1) iop(3/107=0140000000,3/108=0140000000) iop(3/107=0140000000,3/108=0140000000) CAM-B3LYP/6-31G(d,p) 

TD

0 1
12 -5.64591032223222  1.25570559825983  0.14871754055406
 6 -5.03256337813781 -2.18379234393439 -0.35830889598960
 6 -3.43015447534754  1.15737827932793  2.68302974117412
 6 -6.28643506580658  4.53973199629963  0.77476983818382
 6 -7.90540145814581  1.10577926032603 -2.27998209210921
 7 -4.27929501400140 -0.26967289038904  0.95661582858286
 6 -4.18377359775978 -1.60987216861686  0.59539325782578
 6 -3.14564596629663 -2.35824702330233  1.51229681828183
 6 -2.93212736813681 -1.33672434213421  2.62746953355336
 6 -3.54434123412341 -0.11795094769477  2.08780943954395
 6 -3.60336244424442 -1.74687137973797  3.93993185258526
 6 -1.95229007230723 -2.76674066726673  0.63952813891389
 6 -0.92633039593959 -3.56823191109111  1.42189606650665
 6  0.26818268566857 -3.89217408950895  0.59612777387739
 8  0.43926778067807 -3.50229991879188 -0.55102511791179
 8  1.03295497769777 -4.68980412521252  1.25231121962196
 7 -4.82914146514651  2.67995823252325  1.29142582918292
 6 -3.96914100130013  2.43156117211721  2.38405363116312
 6 -3.78381891909191  3.58385846834683  3.20714965936594
 6 -4.54129988568857  4.55248371387139  2.55650153435344
 6 -5.30719008140814  3.96676135263526  1.52321747364736
 6 -2.76755538043804  3.73636071977198  4.18541241174117
 6 -4.66944964496450  5.97727776197620  3.03640907770777
 8 -4.02129461676168  6.48781361156116  3.99356332883288
 7 -6.85324697429743  2.60532846534653 -0.72593526122612
 6 -6.93859605740574  3.93789419491949 -0.32712091519152
 6 -7.90145528572857  4.59423047984798 -1.15642845194519
 6 -8.45371840464046  3.60460959105911 -2.11757631003100
 6 -7.78155196669667  2.33648182228223 -1.63544731453145
 6 -8.31633391209121  6.02535390509051 -1.19198033263326
 6 -9.46673315171517  3.86653759205921 -3.21449399799980
 6 -8.79630861156116  4.01197256035604 -4.59282252895289
 7 -6.17460322762276 -0.10691587178718 -1.17531855225523
 6 -7.30169377607761 -0.11654255985599 -2.05670159275928
 6 -7.54232734933493 -1.37427257995800 -2.69083210781078
 6 -6.61725720942094 -2.18676244954495 -2.09444865476548
 6 -5.92876079957996 -1.41489551905191 -1.12600046474647
 6 -8.44994036873687 -1.58860864946495 -3.69371029042904
 6 -6.23229685678568 -3.58647775377538 -2.00287568146815
 8 -6.57310055065507 -4.53821879197920 -2.66123636933693
 6 -5.10861111461146 -3.63048481518152 -0.84115073587359
 6 -5.43899102670267 -4.64944014561456  0.22617976897690
 8 -5.88418260086009 -4.41827776117612  1.37359447974797
 8 -5.18320828402840 -5.81999588368837 -0.25809998139814
 6 -5.52346569576958 -7.00795438653865  0.53599113391339
 6  2.40096677827783 -4.97848410861086  0.62373035433543
 6  3.45050836093609 -4.00095159445945  0.96103738953895
 6  4.04674377807781 -3.15923574447445  0.11196357135714
 6  3.70861575887589 -3.04699788818882 -1.32034970377038
 6  5.20073427942794 -2.25232950115012  0.63863571447145
 6  6.63787939263926 -2.50949590259026  0.02682300820082
 6  7.60526965366537 -1.69093073887389  0.68427226182618
 6  8.89284789328933 -1.88708469046905 -0.04062077527753
 6  9.42617969806981 -3.34256415891589  0.09461258625863
 6  9.98644408000800 -0.84500512141214  0.40266823022302
 6  11.30861401870187 -0.74640743584358 -0.35456076667667
 6  12.18181580218022  0.40859004950495  0.24041482968297
 6  13.57526692079208  0.44928461536154 -0.53906366356636
 6  14.45794396739674 -0.70877160716072 -0.31021770697070
 6  14.31012095029503  1.67960273247325 -0.04729237163716
 6  15.60946022692269  2.06433836913691 -0.88030513821382
 6  16.21942156185618  3.39294180418042 -0.56615770877088
 6  17.40183457815781  3.86949586508651 -1.44330537833783
 6  17.14222320442044  3.99619518221822 -2.94793711371137
 6  17.94541796099610  5.13453157915792 -0.90512146914691
 1 -2.89997550345034  1.15374223782378  3.75985359655966
 1 -6.61395227812781  5.54379058125813  1.04269403210321
 1 -8.51305650475047  1.03400766226623 -3.14908028892889
 1 -3.49200626582658 -3.43024614131413  1.77294303640364
 1 -1.87672875887589 -1.17663527172717  2.58735090109011
 1 -3.00869019421942 -2.57480406130613  4.45347529342934
 1 -3.63854045414541 -0.89308142584258  4.63639977587759
 1 -4.56934861066107 -2.16904482248225  3.83533675627563
 1 -2.17448461406141 -3.49017206220622 -0.20855859045905
 1 -1.55263596329633 -1.90109873727373  0.18125896719672
 1 -0.54207859795980 -2.90328030033003  2.33564810591059
 1 -1.42036151475148 -4.52333917021702  1.92072110881088
 1 -1.69690834293429  3.49726441314131  3.81034341544154
 1 -2.74159181318132  4.76141578067807  4.44655031793179
 1 -2.82891282378238  3.05288848294829  5.07645462226223
 1 -5.19318317761776  6.67942592509251  2.28763087888789
 1 -10.07867184968497  3.00874802670267 -3.09592074667467
 1 -10.24043152605261  4.67755529002900 -3.07409040164016
 1 -9.60006576747675  3.86874477447745 -5.39247555815582
 1 -8.30467443344334  5.14425636623662 -4.71585126692669
 1 -8.08711898679868  3.17411172507251 -4.53483759845985
 1 -8.05148172977298 -1.26631988968897 -4.68341831083108
 1 -8.65307493539354 -2.68871593189319 -3.84127347124713
 1 -9.54792804190419 -0.97738437303730 -3.71106539163916
 1 -4.20218199419942 -4.07068289128913 -1.46046097619762
 1  2.57257520132013 -6.04988228132813  0.87158554645465
 1  2.32866619321932 -4.93946247264726 -0.48246368146815
 1  3.67641362376238 -3.92150227252725  1.88403676777678
 1  2.52274972687269 -3.16318787368737 -1.30791344144414
 1  3.87824516251625 -1.95946064666467 -1.73016123362336
 1  4.14730723812381 -3.81526338263826 -2.01024248154815
 1  5.04423829282928 -1.24428997359736  0.53498388948895
 1  5.21886424482448 -2.44207852505251  1.69387327362736
 1  6.76715593559356 -3.62581688118812  0.24206352805281
 1  6.46413525302530 -2.60754297029703 -1.01791147734773
 1  7.19400020162016 -0.68835538983898  0.43194194749475
 1  7.62563147334733 -1.96868511701170  1.78060553295330
 1  8.48445434503451 -1.85682372307231 -1.20720893959396
 1  8.69237140254025 -3.92782164206421 -0.32955542574257
 1  10.56343937333733 -3.36373972867287 -0.26332391429143
 1  9.31502825042504 -3.46182191079108  1.21523248624862
 1  9.46299736063606  0.15507391779178  0.47217639203920
 1  10.04464342294229 -0.97528584788479  1.54179511681168
 1  12.00397232833283 -1.69561688338834 -0.39956926472647
 1  11.06032197239724 -0.47628926442644 -1.35883672737274
 1  11.60667068516852  1.35686875867587  0.28514130373037
 1  12.56208696739674  0.27342862616262  1.24485366046605
 1  13.46985772807281  0.38551329412941 -1.68212441724172
 1  14.52915314251425 -0.87089010631063  0.81250634813481
 1  14.02188257475748 -1.69129230813081 -0.65962221632163
 1  15.46473633013301 -0.50896422412241 -0.74710711371137
 1  13.65996524212421  2.53886218541854 -0.24396427372737
 1  14.62335994819482  1.58096451095109  1.05546437373737
 1  16.40252897999800  1.30882634413441 -0.75468328332833
 1  15.21854665016502  2.01990024142414 -1.91019455035504
 1  15.54453591569157  4.31229443714371 -0.61765304530453
 1  16.66103573747375  3.19432539193919  0.51260371917192
 1  18.26494631143114  3.15910941944194 -1.33672806070607
 1  16.19688682548255  4.62271955085509 -3.22811709060906
 1  18.01090348024803  4.23911030423042 -3.33890132373237
 1  16.77242192749275  2.93347825902590 -3.39316987018702
 1  18.11088896289629  5.09000965396540  0.06522568826883
 1  18.86676428722872  5.26396262276228 -1.45555769686969
 1  17.19818238803881  5.99563397349735 -1.08815716781678
 1 -5.25692357695770 -7.85727682708271 -0.01486580258026
 1 -6.69088958025803 -6.86000538193819  0.89717956125613
 1 -4.74822704010401 -7.01670154635463  1.33819668806881
 8 -7.84279717501750  6.78901893329333 -0.43271670007001
 1 -9.21267465126513  6.32709012471247 -1.89322779027903

