%nproc=3
%Mem=2GB
# td=(NStates=1) iop(3/107=0140000000,3/108=0140000000) iop(3/107=0140000000,3/108=0140000000) CAM-B3LYP/6-31G(d,p) 

TD

0 1
12 -5.58428415961596  1.26595662336234  0.13935660446045
 6 -5.04371449324932 -2.25541950665067 -0.42671573667367
 6 -3.36104756465647  1.09318185968597  2.67712915111511
 6 -6.14980140244024  4.53027105020502  0.67115947714772
 6 -7.95197611561156  1.27434611701170 -2.43760785468547
 7 -4.39009609410941 -0.28941486458646  0.98108827582758
 6 -4.24964018441844 -1.66021720312031  0.57352107060706
 6 -3.20461186288629 -2.44221542014201  1.33464905350535
 6 -2.94587874327433 -1.49155982568257  2.57267405400540
 6 -3.55709250925092 -0.10851000360036  2.06539719831983
 6 -3.46019812781278 -1.77582427502750  3.96166402580258
 6 -1.97582242554255 -2.72167616081608  0.62215640174017
 6 -0.97873563646365 -3.54181926982698  1.37150102700270
 6  0.27435330273027 -3.88545341744174  0.61663982508251
 8  0.49276313021302 -3.34341403020302 -0.43279329472947
 8  1.07340902310231 -4.84420956575658  1.30718670717072
 7 -4.85671422242224  2.55259549624962  1.43773045964596
 6 -3.92244633183318  2.32685070107011  2.46313153895390
 6 -3.63887442464246  3.50217029952995  3.12121106550655
 6 -4.46463221892189  4.57743620912091  2.52398828302830
 6 -5.16936629902990  3.90500517701770  1.45309046094609
 6 -2.60350897579758  3.75471255495550  4.25588945944595
 6 -4.53886658665867  5.99320935513551  2.80875631243124
 8 -3.89452193949395  6.54668949914991  3.80340431293129
 7 -6.87043869346935  2.71136906940694 -0.64725739343934
 6 -6.90548274607461  4.01527193269327 -0.38105630873087
 6 -7.85217035723572  4.65877693449345 -1.27707051615161
 6 -8.45390842364236  3.69892902300230 -2.03154770717072
 6 -7.77470128162816  2.44228240234023 -1.74092786258626
 6 -8.30444272297230  6.10816218591859 -1.19224035863586
 6 -9.39421589999000  3.85073601190119 -3.14745729432943
 6 -8.69544852555256  3.99083044614461 -4.51567481418142
 7 -6.34590035733573 -0.04582976317632 -1.12434345474547
 6 -7.36141974867487  0.04570366476648 -2.08849477207721
 6 -7.59625274187419 -1.23950910361036 -2.71416444104410
 6 -6.68221370507051 -2.16391016431643 -2.11380058995900
 6 -6.03015093859386 -1.43392742224222 -1.02755061976198
 6 -8.69983535823582 -1.51516130473047 -3.66818773817382
 6 -6.24835846294630 -3.53600270627063 -2.00950634453445
 8 -6.66443968456846 -4.44432940304030 -2.63046329202920
 6 -5.11104135763576 -3.59496126282628 -0.89109573037304
 6 -5.30225735333533 -4.63601880348035  0.19457660866087
 8 -5.78414259685969 -4.47689362276228  1.25578269856986
 8 -5.07110707390739 -5.95451933603360 -0.21915608700870
 6 -5.25725907510751 -6.91993558465847  0.63524105890589
 6  2.39268595019502 -5.15457171737174  0.56617459875988
 6  3.41575488558856 -4.16173767306731  0.99240052585259
 6  3.91723082678268 -3.30200002090209  0.24428680368037
 6  3.63120801810181 -3.08516170457046 -1.29019668846885
 6  4.99367357335734 -2.36059032723272  0.75383723462346
 6  6.52225783048305 -2.77977293029303  0.17325765166517
 6  7.66437556425643 -1.83059470527053  0.65253908850885
 6  8.97133574207421 -2.11271725372537  0.03988727552755
 6  9.63727080718072 -3.38367827032703  0.27481060606061
 6  10.01321675727573 -0.94290491139114  0.51070903430343
 6  11.28382153945394 -0.86699949504950 -0.22680799139914
 6  12.18296591719172  0.32972216271627  0.24021480968097
 6  13.44855424952495  0.48651833873387 -0.57803756095610
 6  14.53285145814582 -0.70070080008001 -0.36632331753175
 6  14.18590852905291  1.83250802300230 -0.23100074247425
 6  15.38129741064106  2.26756869216922 -1.04597170487049
 6  15.98772839253925  3.67035954595460 -0.71240233323332
 6  17.27656205090509  4.02170108560856 -1.34188523632363
 6  17.18211719381938  4.00270583328333 -2.86079839983998
 6  17.85526894609461  5.31533965996600 -0.86267722472247
 1 -2.76101160706071  1.14007087068707  3.62108972017202
 1 -6.37641852475248  5.63164936713671  0.91385114781478
 1 -8.78121332043204  1.27034129562956 -3.13046842774278
 1 -3.75514257945795 -3.37246036273627  1.58151389348935
 1 -1.80715180118012 -1.27654526272627  2.60567273327333
 1 -3.13441276647665 -2.65533211411141  4.39237918381838
 1 -3.40711731183118 -0.89241135883588  4.60902703860386
 1 -4.40307198299830 -1.85766368436844  3.82378560116012
 1 -2.34865203080308 -3.43974701970197 -0.15733346794680
 1 -1.58155885558556 -1.84516314371437  0.12756359765977
 1 -0.73073746384638 -3.19060903320332  2.31188572967297
 1 -1.28170764936494 -4.60455729202920  1.60729976667667
 1 -1.77443609570957  3.51027571427143  3.72939532063206
 1 -2.60516817081708  4.84205384448445  4.59279494239424
 1 -2.82301223372337  3.35609880398040  5.21754873167317
 1 -5.57077093639364  6.39437742024202  2.34623673947395
 1 -10.09768375087509  3.10297744964496 -3.48305946054605
 1 -10.03507098999900  4.66279381388139 -2.92792578517852
 1 -9.59961572247225  4.10215811581158 -5.13309962056206
 1 -8.32486645264526  5.03697563816382 -4.59288897069707
 1 -8.05680595549555  3.24002831673167 -4.88921303600360
 1 -8.40693727532753 -0.99185244294429 -4.71137110611061
 1 -8.69413904180418 -2.65320238053805 -3.77293663756376
 1 -9.71458470757076 -1.55607224182418 -3.28862314741474
 1 -4.22246402240224 -3.96091191419142 -1.49844477457746
 1  2.56128407220722 -6.06666395949595  1.00587897579758
 1  2.14901822842284 -5.35117364376438 -0.55853128822882
 1  3.68654463686369 -4.32551267356736  2.19901826592659
 1  2.63641109300930 -3.29545110001000 -1.35345799589959
 1  4.04331166916692 -2.01347604820482 -1.56519473697370
 1  4.47581008840884 -3.69318117441744 -1.78321977927793
 1  4.89586345534553 -1.31495704030403  0.23255364646465
 1  5.16238859725973 -2.30559487668767  1.80685457175718
 1  6.51902112211221 -4.03599789928993  0.50134945664566
 1  6.54494333383338 -2.83978619461946 -0.85411509770977
 1  7.37981878347835 -0.85176173047305  0.57867662096210
 1  7.66554546474647 -2.04333258175818  1.79256672907291
 1  8.64174007360736 -2.01979001970197 -0.99815803450345
 1  8.89383154855486 -4.30756961686169  0.12992052185219
 1  10.54923795319532 -3.56056941164116 -0.35547312921292
 1  10.03643039063906 -3.50777650625063  1.38246920992099
 1  9.32630369126913  0.03732214261426  0.55336451085108
 1  10.20414937353735 -1.25210352965297  1.50586152345235
 1  11.70345227632763 -1.92910023172317 -0.11305061286129
 1  11.10826676687669 -0.66391802730273 -1.22993383708371
 1  11.71204122222222  1.30856392819282  0.00413320292029
 1  12.25696645534554  0.17756904020402  1.24673384848485
 1  13.30001074337434  0.61438618141814 -1.73631983678368
 1  14.84602482968297 -0.80785380268027  0.70245534303430
 1  14.15229561606161 -1.59617279617962 -0.88649490359036
 1  15.30883073957396 -0.19438276597660 -1.22033443644364
 1  13.30785003060306  2.47437573677368 -0.45238511581158
 1  14.28775638783878  1.75081149564957  0.89277810511051
 1  16.17702642974297  1.53008847034704 -1.14204201920192
 1  15.11679647514752  2.23826207760776 -1.96664019491949
 1  15.13024448654865  4.33829703740374 -0.88204948494849
 1  15.83971360526052  3.77458341774177  0.36454891369137
 1  17.98901871867187  3.15619912841284 -1.19102349024903
 1  16.20694783158316  4.44981226012601 -3.29707398629863
 1  18.10687307720772  4.32031842504250 -3.04293172677268
 1  17.15413009830983  2.97018192939294 -3.26430698389839
 1  17.90302817681768  5.37010766376638  0.40424959065907
 1  18.62408001880188  5.61983821032103 -1.31863400450045
 1  17.03523609340934  6.23520793089309 -1.11962031413141
 1 -4.86382426702670 -7.86887798719872  0.03807949194919
 1 -6.23743423472347 -7.03550293169317  0.91071091439144
 1 -4.52427464486449 -7.00711058725873  1.55117798619862
 8 -7.85225812111211  6.87078711011101 -0.37179060746075
 1 -8.93692707650765  6.49751716741674 -1.99346781428143

