%nproc=3
%Mem=2GB
# td=(NStates=1) iop(3/107=0140000000,3/108=0140000000) iop(3/107=0140000000,3/108=0140000000) CAM-B3LYP/6-31G(d,p) 

TD

0 1
12 -5.63490922212221  1.18430845854585  0.14070673947395
 6 -5.07127724952495 -2.08926289098910 -0.37390045514551
 6 -3.42148360826083  1.05248779027903  2.79758119631963
 6 -6.20339676197620  4.44117214031403  0.70140250145014
 6 -8.02381329932993  1.16243492589259 -2.30448454235424
 7 -4.36232331683168 -0.32814873797380  1.08071823882388
 6 -4.29802502290229 -1.60660184158416  0.69255297379738
 6 -3.24246564826483 -2.38116931553155  1.50962655125513
 6 -2.98022217761776 -1.33967463716372  2.56130291689169
 6 -3.54842164216422 -0.11179033163316  2.18443910251025
 6 -3.37015912391239 -1.84239093169317  4.04634249364937
 6 -2.07301214451445 -2.71178517171717  0.62488667476748
 6 -1.06516427932793 -3.48588367626763  1.41267514441444
 6  0.18665453285329 -3.85269014111411  0.58953711481148
 8  0.49256311021102 -3.36081577037704 -0.47330734613461
 8  1.10929261146115 -4.74695984078408  1.30895688418842
 7 -4.84316286728673  2.61734197089709  1.46139282588259
 6 -3.95454954215422  2.42575059105911  2.44375960176018
 6 -3.67890842804280  3.66542662516252  3.14352329672967
 6 -4.51564732043204  4.64468293379338  2.60195607980798
 6 -5.19117848024803  3.97072174867487  1.52426757865787
 6 -2.82929155405541  3.67183426712671  4.25484935543554
 6 -4.58124082408241  6.01283131733173  2.98556399319932
 8 -3.98522100940094  6.52272710291029  3.90142411491149
 7 -6.86694834443444  2.53786171867187 -0.69647231493149
 6 -6.93560575837584  3.83724412991299 -0.34276247934793
 6 -7.85556069626963  4.50414147094709 -1.23147595669567
 6 -8.40973400620062  3.72015114521452 -2.13390794319432
 6 -7.82179599109911  2.34621279537954 -1.70132390219022
 6 -8.25474775347535  5.96616798649865 -1.26849798439844
 6 -9.47365384378438  3.83274421272127 -3.22922547114711
 6 -8.89849883058306  4.04116547964797 -4.63002624932493
 7 -6.36359212651265 -0.15205038523852 -1.14409542994299
 6 -7.40297390409041 -0.00033093869387 -2.06277219981998
 6 -7.63712682928293 -1.34448960166017 -2.72685571017102
 6 -6.64994047774778 -2.21109488278828 -2.13922313221322
 6 -5.95078300180018 -1.40953498299830 -1.23010087478748
 6 -8.64170954565457 -1.60370015861586 -3.79321024042404
 6 -6.18440206730673 -3.56853595959596 -1.96422181608161
 8 -6.55621886248625 -4.57637260736074 -2.55963620932093
 6 -5.12010226372637 -3.54743651035104 -0.81174779557956
 6 -5.39557668526853 -4.65753095469547  0.22247939893989
 8 -5.79271345394539 -4.48710464386439  1.40879800010001
 8 -5.14909487268727 -5.86232011611161 -0.28358252965297
 6 -5.38938228742874 -7.01631522262226  0.58275581038104
 6  2.39627630923092 -4.98819507970797  0.65765374667467
 6  3.38968227832783 -3.89576107540754  1.02878416421642
 6  4.06355545924592 -3.16976679757976  0.10157253225323
 6  3.68216311361136 -3.06451964036404 -1.34562223102310
 6  5.06999120512051 -2.24735900410041  0.59575142604260
 6  6.46240184488449 -2.44729968296830 -0.12434210831083
 6  7.55708483518352 -1.60599224502450  0.50984481908191
 6  9.02808141664167 -1.89600558255826 -0.18296500970097
 6  9.52697977807781 -3.22743264576458  0.14142726772677
 6  9.99471490709071 -0.76976759765977  0.37782574597460
 6  11.40463362066207 -0.90776357145715 -0.22178748934893
 6  12.34715233583358  0.27865705620562  0.28430921912191
 6  13.52875226932693  0.46621630853085 -0.65440519771977
 6  14.59751792479248 -0.77263799379938 -0.51317800300030
 6  14.27755769396940  1.78670344254425 -0.22908055045505
 6  15.46389567046705  2.04772670797080 -1.02138924662466
 6  16.06659627932793  3.50839334933493 -0.64143523652365
 6  17.43221761646165  3.78482739823982 -1.22755380318032
 6  17.41750073217322  3.92762832553255 -2.70858317831783
 6  17.95394881408141  5.12877100310031 -0.62496345334533
 1 -2.73981948784878  1.25319218281828  3.71500911211121
 1 -6.25163604650465  5.61455765796580  0.50156991969197
 1 -8.77219241834183  1.28141240274027 -3.20957633853385
 1 -3.69767683288329 -3.34960807750775  1.81880762286229
 1 -1.83521460746075 -1.18242585078508  2.68253041904190
 1 -2.97205653085309 -2.81450803170317  4.32304225012501
 1 -3.10669726982698 -1.13445556325633  4.82919905580558
 1 -4.50161183698370 -1.97183510151015  4.05509873247325
 1 -2.46529369496950 -3.35212825782578 -0.21866960156016
 1 -1.81519221892189 -1.70968959635964  0.18940978227823
 1 -0.78391278137814 -3.23241321362136  2.39431397249725
 1 -1.56757623622362 -4.23887072337234  1.53123215991599
 1 -1.72742139423942  3.40865555225523  3.82416479757976
 1 -2.85193284728473  4.81517115621562  4.66659232213221
 1 -3.17804773727373  3.14448764286429  5.12322929972997
 1 -5.22183604290429  6.56794477697770  2.20625274107411
 1 -10.17475145764576  3.07567471937194 -3.26090724532453
 1 -10.04136161906191  4.81336887138714 -2.86034902750275
 1 -9.83115887678768  4.05931383138314 -5.35957226782678
 1 -8.27660162616262  4.92958489908991 -4.81188086988699
 1 -8.35037531243124  3.08776309020902 -4.76313042774277
 1 -8.44164074567457 -1.22927618531853 -4.90400036903690
 1 -8.71958158605861 -2.75048210851085 -3.79388873277328
 1 -9.52811606070607 -1.20605724032403 -3.44418870397040
 1 -4.21454323032303 -4.24540036303630 -1.38480341044104
 1  2.73310125392539 -5.92118941204120  1.10661904980498
 1  2.21155448204820 -5.04550307670767 -0.42375781088109
 1  3.66578256065606 -3.96520664296430  2.02369073317332
 1  2.49972742464246 -2.93424497939794 -1.43895654575458
 1  4.05536287428743 -2.04736943754375 -1.58280649814981
 1  4.25694820222022 -3.85763762006201 -1.97584904220422
 1  4.81603547254725 -1.14504004860486  0.34561495259526
 1  5.36050840924092 -2.42253657085709  1.79592347864786
 1  6.64195341534153 -3.60161446094609 -0.15403608190819
 1  6.26626546604660 -2.21664388038804 -1.26115580178018
 1  7.21201200280028 -0.53310986528653  0.29170792409241
 1  7.73423233343334 -1.66732498099810  1.58585605800580
 1  8.98916481608161 -1.76018405910591 -1.35727394609461
 1  8.76210837623762 -4.02900176007601 -0.26574904510451
 1  10.41067409680968 -3.49849320402040 -0.48615619751975
 1  9.59595634323432 -3.28435416401640  1.14725568856886
 1  9.66332739363936  0.19506791719172  0.34124329872987
 1  10.16628558715871 -1.13615193449345  1.60198113541354
 1  11.84775670677068 -1.65012233393339 -0.02033134093409
 1  11.35895183538354 -0.82671430693069 -1.43733457715772
 1  11.71081109920992  1.17339041084108  0.41465425502550
 1  12.83531429012901 -0.07956667336734  1.29910908600860
 1  13.37265800810081  0.43133787658766 -1.77442364716472
 1  15.08068829602960 -0.43225624292429  0.61715681318132
 1  13.93137352385239 -1.68667184608461 -0.67106336043604
 1  15.25444530103010 -0.78367169486949 -1.42161456445645
 1  13.58864811041104  2.55223352255226 -0.28933881118112
 1  14.54068168036804  1.45994240874087  0.81955078237824
 1  16.18598732583258  1.38490395189519 -1.00926874187419
 1  15.10087488298830  1.85205345674568 -2.08692222312231
 1  15.36228769086909  4.24581778947895 -0.91096237623762
 1  16.11454108800880  3.53128908830883  0.48230068886889
 1  17.99510932773277  2.97094060256026 -0.96754114201420
 1  16.36042317911791  4.32695997489749 -3.24060833973397
 1  18.16042843274327  4.48605499869987 -3.20476791039104
 1  17.50982566786679  2.96545145634563 -3.26263681688169
 1  17.99969784378438  5.04787544054405  0.44699386508651
 1  18.84529214001400  5.48687491399140 -1.04159630073007
 1  17.36325889568957  5.93046745684568 -0.88669702180218
 1 -5.19197708230823 -7.68960005940594 -0.14617893389339
 1 -6.63672416371637 -6.98266764816482  0.65041488478848
 1 -4.95453767116712 -6.78803868006801  1.50317318571857
 8 -7.82823571887189  6.77492752415242 -0.46043947234723
 1 -8.63479686348635  6.04443185888589 -2.40625909340934

