%nproc=3
%Mem=2GB
# td=(NStates=1) iop(3/107=0140000000,3/108=0140000000) iop(3/107=0140000000,3/108=0140000000) CAM-B3LYP/6-31G(d,p) 

TD

0 1
12 -5.56253198439844  1.22477250495049  0.18473114191419
 6 -4.96086620842084 -2.11805577027703 -0.41405447054705
 6 -3.40532199209921  1.17023956545655  2.86781822002200
 6 -6.27604402670267  4.48623664676468  0.77470983218322
 6 -7.96985790379038  1.17438612101210 -2.39223331723172
 7 -4.39638672317232 -0.27189311241124  1.13195336233623
 6 -4.26329154955496 -1.57945912731273  0.66996071457146
 6 -3.29533093479348 -2.31844304290429  1.52950853945395
 6 -2.97873202860286 -1.37052772247225  2.59732651925193
 6 -3.63798059805981 -0.05906505910591  2.19082974157416
 6 -3.59023113111311 -1.78605529812981  3.99579743914391
 6 -2.04098894219422 -2.79781377457746  0.62123630973097
 6 -0.97870563346335 -3.60400548844885  1.42545642254225
 6  0.27739360676068 -3.86779165126513  0.67838599969997
 8  0.57663151705171 -3.38319800860086 -0.44558457385739
 8  1.01430311251125 -4.80030517531753  1.33291928042804
 7 -4.83034158515852  2.60978121482148  1.50751743834383
 6 -3.89019310651065  2.47232524852485  2.50368559435944
 6 -3.65952648984898  3.73221330383038  3.13317226162616
 6 -4.57201295699570  4.62277074257426  2.54476036023602
 6 -5.34329369176918  3.94555923242324  1.50346549844985
 6 -2.68673729862986  3.93508059175918  4.26995086558656
 6 -4.69985268526853  6.05304533873387  3.05882131893189
 8 -3.91448393569357  6.66615144534453  3.77219119161916
 7 -6.79056070567057  2.67654558705871 -0.72280494819482
 6 -6.92659485728573  3.93758416391639 -0.31032923602360
 6 -7.88923406360636  4.64203526032603 -1.16203901300130
 6 -8.49386241904190  3.60763989408941 -1.99191374377438
 6 -7.78142195369537  2.48286646074607 -1.73574734453445
 6 -8.33052533123312  6.00909227892789 -1.13298443304330
 6 -9.50696717511751  3.76972791109111 -3.14265681428143
 6 -8.87374635533553  3.72815417851785 -4.60897414411441
 7 -6.29153492079208 -0.04901008120812 -1.09947096749675
 6 -7.26332993969397 -0.01080198579858 -2.09948587118712
 6 -7.41994511111111 -1.26974212691269 -2.83015604020402
 6 -6.61579706340634 -2.18398217151715 -2.09494870477048
 6 -5.92381030453045 -1.34469849934994 -1.07505537023702
 6 -8.30076545124512 -1.59968975757576 -4.00082100150015
 6 -6.05233886098610 -3.53473257925793 -2.03861925582558
 8 -6.39847308790879 -4.48390336043604 -2.72655290099010
 6 -4.90074032753275 -3.62132389908991 -0.95055167596760
 6 -5.31420854845484 -4.64647984958496  0.05847299829983
 8 -5.78472265486549 -4.45142107550755  1.12653977427743
 8 -5.04584454765477 -5.81927581168117 -0.42642681408141
 6 -5.40071342054205 -6.92632622372237  0.40979851465146
 6  2.18891557315732 -5.08746500670067  0.53832181348135
 6  3.29540285038504 -4.23133463276328  0.92941422722272
 6  3.98221732543254 -3.30232005290529  0.29577195219522
 6  3.79606450375038 -3.11820500890089 -1.23569123792379
 6  5.13536774277428 -2.51475574377438  0.82291414231423
 6  6.44780038473847 -2.53871882488249  0.03556388228823
 6  7.50786991369137 -1.73473511931193  0.66099993459346
 6  8.95027363586359 -1.98742472447245 -0.01721843504350
 6  9.53757083718372 -3.29080898339834  0.25403852885289
 6  9.93667910351035 -0.78450907180718  0.52981094449445
 6  11.31029418671867 -0.85660845594559 -0.12993830443044
 6  12.23008062866287  0.23107229772977  0.23675446364636
 6  13.57675706980698  0.42835252215222 -0.50771052825283
 6  14.57068524152415 -0.77417814781478 -0.11575826102610
 6  14.24100403860386  1.78323309550955 -0.23592123452345
 6  15.40305958685869  2.15727766306631 -1.08765587328733
 6  16.09890951065107  3.46332884288429 -0.65770686368637
 6  17.27523191789179  3.86473538903890 -1.61268231603160
 6  16.96813579567957  3.94779034173417 -3.07785010501050
 6  17.95604902410241  5.19580770677068 -0.96410736773677
 1 -2.47124263016302  1.04618148174818  3.55294290549055
 1 -6.66103698659866  5.43103930613061  1.03449321202120
 1 -8.74024922402240  0.88591285278528 -2.98346372727273
 1 -3.70380744594459 -3.32793591029103  1.75635137723772
 1 -1.82393347934794 -1.21224883308331  2.67595976197620
 1 -3.24423374857486 -2.76337291819182  4.10500044594459
 1 -3.17194379447945 -1.14090620832083  4.71262739863986
 1 -4.68442011781178 -1.86334425242524  3.93793701630163
 1 -2.42283944954495 -3.58167121212121 -0.33887162176218
 1 -1.47903860356036 -1.91534016141614  0.15380622192219
 1 -0.60621501160116 -2.86607657995800  2.27010155125513
 1 -1.37671715031503 -4.52952978927893  1.57456649334934
 1 -1.57116576867687  3.74191887858786  4.10056243734373
 1 -2.76275392939294  4.92616225532553  4.74697035993599
 1 -2.92356228872887  3.10809400350035  5.20495747254725
 1 -5.53193705300530  6.61346932943294  2.49243135893589
 1 -10.46520050255026  2.98068522042204 -3.03059421402140
 1 -9.82379986288629  4.81412894739474 -2.92457545014501
 1 -9.53204896579658  3.72602050205020 -5.45193150375038
 1 -8.26783074907491  4.50942288288829 -4.66969665146515
 1 -8.22358263316332  2.79859417331733 -4.88510262496250
 1 -8.11048763036304 -0.84492775047505 -4.78107807680768
 1 -7.96739636753675 -2.60433749404940 -4.29660900480048
 1 -9.26246949604960 -1.78827546214621 -3.79845413051305
 1 -3.84401617761776 -3.85292111511151 -1.22203713381338
 1  2.52388033183318 -6.25681297439744  0.91155954385439
 1  2.20270359695970 -5.08987751415142 -0.61090652575258
 1  3.61051703410341 -4.04968509080908  1.94309267336734
 1  2.91930938283828 -3.41767332223222 -1.48898154825482
 1  3.73831116911691 -2.00060476107611 -1.27617583508351
 1  4.44000650805081 -3.57126898319832 -1.92922437973797
 1  4.70237410641064 -1.30908645324532  0.93907429852985
 1  5.22816517491749 -2.72519683688369  1.91895578187819
 1  6.73771299129913 -3.50023432293229  0.09675899759976
 1  6.42403124262426 -2.16997921392139 -1.00285997219722
 1  7.26794759635964 -0.53223977827783  0.78141689498950
 1  7.37993690389039 -2.06006425492549  1.81199867226723
 1  8.69392529212921 -1.66600464116412 -1.16014423312331
 1  8.83208537393739 -4.05954481438144 -0.24552702290229
 1  10.41360438983898 -3.53603695839584 -0.40848843074307
 1  9.75620236783679 -3.46995272387239  1.31927289028903
 1  9.38503956485648  0.16319472987299  0.59224839923992
 1  10.01113007160716 -0.98266658595860  1.51292222952295
 1  11.80368229932993 -1.92595991769177 -0.06730603840384
 1  10.84303024322432 -0.90116175167517 -1.28054889858986
 1  11.77028704680468  1.29526259805981  0.24526731633163
 1  12.63095385408541  0.32846412971297  1.23401257635764
 1  13.42151289358936  0.39659440224022 -1.63920012481248
 1  14.78512874007401 -0.60176319361936  0.87523262076208
 1  13.90915130163016 -1.72544572347235 -0.33414966906691
 1  15.50546040254025 -0.79929325702570 -0.78851125412541
 1  13.40380962656265  2.55616391559156 -0.29312919021902
 1  14.50949856205620  1.72146856135614  0.80225905320532
 1  16.20524925202520  1.39868533003300 -1.26748456345635
 1  14.94605940144014  2.19852810421042 -2.24895842674267
 1  15.25485694779478  4.27004021172117 -0.66931821182118
 1  16.27645727962796  3.35635159455946  0.50755321412141
 1  18.07509732653265  3.04255776427643 -1.72851723962396
 1  16.27225436223622  4.52947022592259 -3.38710298919892
 1  17.90044243414341  4.23960035323532 -3.68364579817982
 1  16.61495618091809  3.02144705590559 -3.23406395959596
 1  17.91777965196519  5.21419207220722  0.15090425612561
 1  18.91864947574757  5.39474570107011 -1.48300044114411
 1  17.30556312611261  6.05646005610561 -1.19394774687469
 1 -4.99660754535454 -7.89078017741774 -0.07904222022202
 1 -6.58480897219722 -7.01423080448045  0.47037688098810
 1 -5.04345656305631 -6.72953282948295  1.45367823622362
 8 -8.04837773307331  6.80197022842284 -0.27432086048605
 1 -9.03851723552355  6.46218363406341 -2.02073054055406

