%nproc=3
%Mem=2GB
# td=(NStates=1) iop(3/107=0140000000,3/108=0140000000) iop(3/107=0140000000,3/108=0140000000) CAM-B3LYP/6-31G(d,p) 

TD

0 1
12 -5.63136886808681  1.23096312401240  0.16528919771977
 6 -5.05124524632463 -2.15257922262226 -0.34312737783778
 6 -3.40070153005301  1.17371991349135  2.85828726692669
 6 -6.36693311561156  4.48621664476448  0.77884024522452
 6 -7.97466838483848  1.13782246464646 -2.43744783868387
 7 -4.35173225772577 -0.26379230233023  1.04974514151415
 6 -4.29014423482348 -1.60365154655466  0.72035575407541
 6 -3.27005840754075 -2.38862006060606  1.49185477407741
 6 -3.08179233463346 -1.39356002570257  2.65797258385839
 6 -3.66935373537354 -0.06679583218322  2.13118377697770
 6 -3.79669177717772 -1.70398709130913  3.99836769616962
 6 -2.02104694799480 -2.68544253745375  0.53614780088009
 6 -0.95198296119612 -3.37030211811181  1.29041291819182
 6  0.34423029042904 -3.75040991309131  0.50953911501150
 8  0.46338019191919 -3.40362005080508 -0.62855287068707
 8  1.05919760196020 -4.55123026782678  1.17417340584058
 7 -4.91328987998800  2.56845708240824  1.49763645024502
 6 -4.00775486268627  2.36309432543254  2.43779900570057
 6 -3.73031356855686  3.62912299479948  3.14077302170217
 6 -4.51671742744274  4.52146061156116  2.50601648584858
 6 -5.32217157955796  3.93313799029903  1.51560671257126
 6 -2.82075069997000  3.78674575827583  4.29987385788579
 6 -4.62055475547555  5.99906994119412  2.83297873467347
 8 -3.95913840114011  6.51251608180818  3.73207718021802
 7 -6.86808845844584  2.63642157465747 -0.68473114081408
 6 -7.08092028982898  3.90932133763376 -0.32422062516252
 6 -7.97070221042104  4.64141519831983 -1.22344515361536
 6 -8.55265829862986  3.64238336843684 -1.99448400080008
 6 -7.74943875537554  2.42748092219222 -1.68271204100410
 6 -8.26294857355736  5.96681805150515 -1.10526166076608
 6 -9.44470094849485  3.77890882918292 -3.15728827742774
 6 -8.75179416011601  3.97131849494949 -4.46689993669367
 7 -6.40117588488849 -0.12695787598760 -1.17795881628163
 6 -7.36786039273927  0.00705980038004 -2.18520444304430
 6 -7.60899401600160 -1.36332148484848 -2.75914893949395
 6 -6.64440992469247 -2.25309908320832 -2.12456166606661
 6 -5.95544346784679 -1.40240426992699 -1.14695255995600
 6 -8.58757413211321 -1.76126591519152 -3.74608552795280
 6 -6.21156478357836 -3.59113821982198 -1.99921531543154
 8 -6.62677591819182 -4.61816678677868 -2.44017426312631
 6 -5.08538879237924 -3.56787855455546 -0.87572419321932
 6 -5.28132526012601 -4.60612581418142  0.11043819481948
 8 -5.72882706530653 -4.31979791319132  1.22577969826983
 8 -5.03849381258126 -5.86217010111011 -0.29820399179918
 6 -5.20096344554455 -6.87346093719372  0.61488902370237
 6  2.29587626922692 -4.96687294749475  0.50794877617762
 6  3.41925523562356 -4.15695719501950  0.89069035483548
 6  3.94713381708171 -3.20485030593059  0.20622299729973
 6  3.65043994129413 -2.83751694009401 -1.22290995979598
 6  5.25604981098110 -2.27683195139514  0.77158900980098
 6  6.52019762446245 -2.70664561756176  0.11658198409841
 6  7.71981110781078 -1.76487813361336  0.60676451105111
 6  9.07950655915592 -1.96696267826783 -0.03534024722472
 6  9.55052213231323 -3.40222012451245  0.07201032603260
 6  10.03875931153115 -0.92688330923092  0.38835679907991
 6  11.38249140644064 -0.85253804890489 -0.29667497809781
 6  12.28046566716672  0.33123231373137  0.15175596379638
 6  13.59727912201220  0.44980466736674 -0.46985674287429
 6  14.55157333033303 -0.77559828982898 -0.28918560376038
 6  14.26117605580558  1.73773854605461 -0.17863550595060
 6  15.65004428532853  2.02105404070407 -0.92947005470547
 6  16.10421004070407  3.46587909790979 -0.70878197119712
 6  17.41702609730973  3.85357427292729 -1.35105615341534
 6  17.30192917501750  4.00394595729573 -2.90159247924792
 6  17.94469788898890  5.19709783578358 -0.76585754275428
 1 -2.89459496539654  1.15544240784078  3.84794240544054
 1 -6.71996287918792  5.56018222042204  1.11812157485749
 1 -8.79930512961296  1.18845310681068 -2.90281566246625
 1 -3.67463452865287 -3.22918603530353  2.23722946504650
 1 -2.11672275827583 -1.13838144634463  3.01209337533753
 1 -3.24561388658866 -2.64912149304930  4.29890983688369
 1 -3.68614521462146 -0.95561767946795  4.76937307320732
 1 -4.96561823762376 -2.05720363836384  4.01037426002600
 1 -2.40925809140914 -3.33160620562056 -0.23463119771977
 1 -1.62729342904290 -1.70361898929893  0.10528136943694
 1 -0.60076446654665 -2.64698467076708  2.21917645874587
 1 -1.51041051965197 -4.29031586788679  1.72134117081708
 1 -1.87245589768977  3.16041072777278  4.10460284138414
 1 -2.67485513951395  4.79680932003200  4.24541020392039
 1 -3.16343627612761  3.31728492259226  5.34395137193719
 1 -5.17308116741674  6.69964794729473  2.11276339213921
 1 -9.95132911541154  2.80904805670567 -3.20048120272027
 1 -10.20275775867587  4.46596413091309 -3.02862585518552
 1 -9.39545530643064  3.87669556955696 -5.11079739033903
 1 -8.03598756475647  4.81249318991899 -4.52183186498650
 1 -8.08496877177718  3.01904621852185 -4.56429054375438
 1 -8.79829641124113 -1.28652190989099 -4.83164313331333
 1 -8.49144877277728 -2.81815887618762 -4.21465080898090
 1 -9.63627687678768 -1.63690032463246 -3.24457874297430
 1 -4.11242301830183 -3.82843866686669 -1.63472840294029
 1  2.42935087888789 -6.00291758485849  0.62322070997100
 1  2.18796212281228 -4.86449497589759 -0.51157659275928
 1  3.78312429482948 -4.11031115341534  1.98559692379238
 1  2.57499495139514 -3.21377293219322 -1.50579322942294
 1  3.77554489248925 -1.78570327092709 -1.40160837833783
 1  4.44355686308631 -3.40012186848685 -1.81694315161516
 1  5.11070493949395 -1.27547309190919  0.70939133023302
 1  5.37942030043004 -2.44605892309231  1.87380126642664
 1  6.75626484648465 -3.77158145764576  0.19230855255526
 1  6.45473431293129 -2.63495571157116 -0.98100778697870
 1  7.39188999059906 -0.70402695699570  0.59425817911791
 1  8.06006491669167 -1.88740698919892  1.61989946234623
 1  8.70868676827683 -1.71458949964997 -1.09774799349935
 1  8.87367953335334 -4.13351221112111 -0.35188765896590
 1  10.48060108950895 -3.48688204290429 -0.16187376927693
 1  9.70687743534353 -3.77103283188319  1.16999796279628
 1  9.61574263516352 -0.03638522812281  0.12787196159616
 1  10.17763672227223 -0.91352967226723  1.35089602690269
 1  12.13766569766977 -1.85525284698470 -0.05690499829983
 1  11.31811775197520 -0.97521915741574 -1.43646449014902
 1  11.77082710081008  1.19892296409641 -0.00235744614461
 1  12.54135489418942 -0.03548226492649  1.28314748984898
 1  13.40659140144014  0.24665940874087 -1.52089829462946
 1  14.87154738193819 -0.99795281258126  0.64278937643764
 1  14.05128551505151 -1.81003418231823 -0.52472872697270
 1  15.35610546704670 -0.41869519721972 -0.91030343334333
 1  13.57385663126313  2.44662296149615 -0.36750662796280
 1  14.28722633483348  2.05532194669467  1.08084691199120
 1  16.32594132123212  1.17173263476348 -0.65381319631963
 1  15.32319711521152  1.82763101450145 -1.87920145104510
 1  15.26867832993299  4.08821202890289 -0.88584986498650
 1  16.02040167406740  3.63477943734373  0.35909836863686
 1  18.14952476927693  3.20770427892789 -1.27094148204820
 1  16.39957709450945  4.62907018591859 -3.17142142104210
 1  18.27972036193619  4.54167056025602 -3.17859529312931
 1  17.04001868716871  3.02257716891689 -3.44516506970697
 1  18.14112198619862  5.18972962596260  0.28982814851485
 1  19.01690930173017  5.56679290579058 -1.20412255335534
 1  17.22764533433343  5.96981139123912 -1.02859121122112
 1 -4.89230711531153 -7.98617971737174  0.10092577657766
 1 -6.32300279157916 -6.94198357975798  0.70917076037604
 1 -4.88278049544954 -6.41716159235924  1.62983585198520
 8 -7.75106800210021  6.75340537193719 -0.36872030043004
 1 -8.94103748754875  6.14416183188319 -1.84703317081708

