%nproc=3
%Mem=2GB
# td=(NStates=1) iop(3/107=0140000000,3/108=0140000000) iop(3/107=0140000000,3/108=0140000000) CAM-B3LYP/6-31G(d,p) 

TD

0 1
12 -5.67412314351435  1.21137116481648  0.18981164996500
 6 -4.89167928972897 -2.07807177187719 -0.42506557165717
 6 -3.52120358025803  1.15690823232323  2.81382282048205
 6 -6.20603702600260  4.50054807790779  0.66233859505951
 6 -7.89696061406141  1.15548423082308 -2.42698679257926
 7 -4.37146423092309 -0.20422634573457  1.09843001000100
 6 -4.25161038143814 -1.51405258665867  0.70708442694269
 6 -3.23352475417542 -2.23551475007501  1.50538612721272
 6 -2.91938609400940 -1.25805647534753  2.68851563816382
 6 -3.63738053805380 -0.05884503710371  2.21488214681468
 6 -3.57938004600460 -1.71639833243324  3.98591645104510
 6 -1.97555239853985 -2.58413240644064  0.62197638373837
 6 -0.88409617251725 -3.41390647854786  1.36808068496850
 6  0.29285515291529 -3.87021189328933  0.56834499559956
 8  0.44432828672867 -3.63798348714871 -0.53878389378938
 8  1.19744142634263 -4.54179932473247  1.41797778627863
 7 -5.03783233423342  2.60041027772777  1.52988967556756
 6 -4.04566865406541  2.41245926192619  2.48044327012701
 6 -3.78337887508751  3.61958204070407  3.28350729512951
 6 -4.64312006770677  4.60354882038204  2.59985586978698
 6 -5.29105846824682  3.87059173567357  1.55850100200020
 6 -2.89642826772677  3.75387247094709  4.46462033253325
 6 -4.81741444144414  6.06156619081908  2.96479191599160
 8 -4.16822931023102  6.54160899109911  3.82167614011401
 7 -6.91433308290829  2.56099403190319 -0.67292996069607
 6 -6.98039023682368  3.87968837433743 -0.31247945104510
 6 -8.04033917411741  4.53890494729473 -1.19593240234023
 6 -8.63108614141414  3.55069419951995 -1.93058761116112
 6 -7.86100991249125  2.37856603070307 -1.71315508530853
 6 -8.34835711441144  5.86133750345034 -1.15491662626263
 6 -9.68925540394040  3.75192613091309 -3.04901745034503
 6 -9.08511749244924  3.92665402850285 -4.45836908360836
 7 -6.29627539483948 -0.15080026022602 -1.24520554095410
 6 -7.32075568226823  0.00153924832483 -2.18527445004500
 6 -7.38933204980498 -1.32956810951095 -2.89312233683368
 6 -6.57544302800280 -2.13518729202920 -2.18166737663766
 6 -5.86336425992599 -1.37050107960796 -1.21618948364836
 6 -8.30030540524053 -1.54192398099810 -3.97075799519952
 6 -6.10429405650565 -3.47759686568657 -2.08237363126313
 8 -6.48529176977698 -4.43048801890189 -2.75411565726573
 6 -4.96299655315532 -3.45763753045305 -1.02429905070507
 6 -5.29525665326533 -4.52958816041604  0.10056720772077
 8 -5.78802298489849 -4.27944387778778  1.21464858515852
 8 -5.07364732793279 -5.81575545964596 -0.41296546794679
 6 -5.37701105030503 -6.86976056715672  0.52013954875488
 6  2.41628831043104 -4.99394565476548  0.81325930723072
 6  3.49192250235024 -4.08600009930993  1.18930021582158
 6  4.02809191289129 -3.19244906580658  0.35471784678468
 6  3.85107000430043 -3.08911209960996 -1.21046871567157
 6  5.26819102510251 -2.30991525972597  0.83613546444644
 6  6.59490509520952 -2.72289724272427  0.09161948784878
 6  7.78314744144414 -1.93001464726473  0.61868570317032
 6  9.05435404390439 -2.04236021802180 -0.08561527472747
 6  9.51635871597160 -3.54407430993099  0.20712383738374
 6  10.11656709230923 -0.98169879077908  0.38910687408741
 6  11.40148330563056 -1.00454324942494 -0.40699601020102
 6  12.27425504610461  0.24190338083808  0.05635642384238
 6  13.66613600770077  0.34834452135214 -0.59814957215722
 6  14.52243041604160 -0.82593332333233 -0.25218190339034
 6  14.28227816601660  1.65265003720372 -0.35068271067107
 6  15.54071335223522  2.09845178047805 -1.05774288198820
 6  16.01562118181818  3.49027153715372 -0.77958905190519
 6  17.33791818651865  3.90144906040604 -1.36160720852085
 6  17.30872985508551  3.91361692439244 -2.88995131513151
 6  17.81752517171717  5.27635576157616 -0.85137609460946
 1 -2.93473897979798  1.31762862646265  3.68736634783478
 1 -6.35054593749375  5.54159036123612  0.72471223392339
 1 -8.67980317941794  1.22317657915792 -3.20863624452445
 1 -3.72808987418742 -3.03449656635664  1.85557129922992
 1 -1.86465755175518 -0.96926453465346  3.02718488448845
 1 -2.95294461966197 -2.58567514841484  4.32364231013101
 1 -3.50681728182818 -0.77668978667867  4.47947408330833
 1 -4.70762243804380 -2.18555647364736  3.76498972157216
 1 -2.27291445704570 -3.22120516551655 -0.22255999059906
 1 -1.46544724442444 -1.62344097149715  0.16844768606861
 1 -0.41700609070907 -2.82046201850185  2.37638217931793
 1 -1.40870034863486 -4.35807264356436  1.69540857755776
 1 -1.77180583268327  3.45216990369037  4.03520590169017
 1 -2.96553420742074  4.88175781488149  4.71562722562256
 1 -3.06575650815082  2.89153234733473  5.12539951675168
 1 -5.54979883918392  6.55873385588559  2.32872498829883
 1 -10.50453443594359  3.06975412731273 -3.12906406100610
 1 -10.34833231613161  4.47858539303930 -2.69921291389139
 1 -9.92016777767777  4.23535143514351 -5.31991830243024
 1 -8.32346631263126  4.77159910051005 -4.47560724252425
 1 -8.49381965686569  3.12039635353535 -4.64425854055405
 1 -8.04531111271127 -0.85024828252825 -4.68316828582858
 1 -8.35616524442444 -2.55778283858386 -4.42326167006701
 1 -9.17635088418842 -1.33928056265627 -3.84601888698870
 1 -4.13185496149615 -3.71822764576458 -1.58935386548655
 1  2.75116306010601 -5.99802709580958  1.27974636253625
 1  2.28249157575758 -5.11937046344634 -0.20138557365737
 1  3.81397738013801 -4.13509363166317  2.26693505760576
 1  2.94647209910991 -3.60747230213021 -1.75541819191919
 1  3.74569190719072 -1.87078177877788 -1.47056527402740
 1  4.75190769816982 -3.37338919521952 -1.56394785208521
 1  4.95930979998000 -1.22698824342434  0.67260765186519
 1  5.29929228762876 -2.39915423262326  1.86488037433743
 1  6.91540076007601 -3.91057535703570  0.15643496519652
 1  6.43411225072507 -2.36654887088709 -0.97936762296230
 1  7.30880168176818 -0.83643019731973  0.52542129542954
 1  8.08532744294429 -1.97469571807181  1.71726919931993
 1  8.85863176277628 -1.81734977567757 -1.20786900560056
 1  8.85310747614762 -4.35587444734473 -0.38158062826283
 1  10.53084611401140 -3.83715707040704 -0.11406898879888
 1  9.40312706030603 -3.46230195879588  1.31028199119912
 1  9.66858791969197 -0.02661425102510  0.54267344174417
 1  10.53806276487649 -1.19007732703270  1.58227916521652
 1  11.94962689378938 -1.97087440914091 -0.44159346714671
 1  10.98594453465347 -0.74438607410741 -1.49188003170317
 1  11.61866188428843  1.12643571537154 -0.15952316271627
 1  12.39666042474247  0.21347263056306  1.12409158425843
 1  13.53223396569657  0.20066480928093 -1.78269447424742
 1  14.48118834603460 -0.75114813211321  0.84895999349935
 1  14.12154254075408 -1.85267844674467 -0.51830808490849
 1  15.35084494099410 -0.72545587328733 -0.79935233823382
 1  13.53723296889689  2.32196049524953 -0.56248612591259
 1  14.58740635283528  1.67619403390339  0.79038786608661
 1  16.38577730483048  1.46390185168517 -0.83893170817082
 1  15.49644443994399  2.03231148254826 -2.12715624652465
 1  15.15184664676468  4.12839604730473 -1.17321860186019
 1  15.90976060996099  3.54497045644564  0.20170262906291
 1  18.15039485628563  3.00650415891589 -1.12968735663566
 1  16.63065020182018  4.74251153005301 -3.04934921382138
 1  18.20922331223122  4.32891928512851 -3.37605503910391
 1  16.88568325362536  3.12182709390939 -3.50567112031203
 1  17.89119699369937  5.26513716671667  0.22091125682568
 1  18.83954156495649  5.48505473197320 -1.00996313741374
 1  17.06309887968797  6.18502291239124 -1.32434078617862
 1 -5.16796468106811 -7.88132923232323 -0.01505582158216
 1 -6.33971446274627 -6.59548893029303  0.89151899519952
 1 -4.64002622002200 -6.65860573677368  1.43194606300630
 8 -7.97403029832983  6.84461449284928 -0.44863829222922
 1 -9.14148753255325  5.94681209690969 -2.05232369986999

