%nproc=3
%Mem=2GB
# td=(NStates=1) iop(3/107=0140000000,3/108=0140000000) iop(3/107=0140000000,3/108=0140000000) CAM-B3LYP/6-31G(d,p) 

TD

0 1
12 -5.59425515671567  1.24050407810781  0.20972364116412
 6 -5.06243636543654 -2.21755572027203 -0.36158922402240
 6 -3.31757321722172  1.15725826732673  2.62067350555055
 6 -6.21406782908291  4.68733675677568  0.63663602480248
 6 -8.10705162316232  1.12133081548155 -2.23371746564656
 7 -4.35022210671067 -0.32770869396940  0.98220838783878
 6 -4.26922214261426 -1.63739492089209  0.54255797429743
 6 -3.22714411611161 -2.33844504310431  1.48560414901490
 6 -2.80910506590659 -1.34091476117612  2.50665745234523
 6 -3.49173597359736 -0.05245439803980  1.97593825242524
 6 -3.37336944494449 -1.64175086768677  3.94925278467847
 6 -1.95535037833783 -2.78657265046505  0.66354054015402
 6 -0.96438420132013 -3.66167125502550  1.47661153805381
 6  0.26197206460646 -3.95067994009401  0.58240640174017
 8  0.44583843774377 -3.60012970177018 -0.47917793319332
 8  1.00617229942994 -4.86730187498750  1.21200718921892
 7 -4.88956750775078  2.70931116781678  1.38701538813881
 6 -3.90175426262626  2.47529554555456  2.34323954975498
 6 -3.61966250345035  3.65383546604660  3.10647959235924
 6 -4.38007376307631  4.65745421092109  2.51359724392439
 6 -5.15492485488549  3.96533120962096  1.43072822472247
 6 -2.71701032593259  3.79111619531953  4.27770164066407
 6 -4.48762146214622  6.00868090229023  2.84752018881888
 8 -3.92141462876288  6.64913974417442  3.65338931143114
 7 -6.94517616721672  2.71713964646465 -0.57773044074407
 6 -6.97566976477648  4.00562096759676 -0.24732293539354
 6 -7.97887302750275  4.62633369016902 -1.09200200930093
 6 -8.39657269006901  3.64931406150615 -2.00631518391839
 6 -7.80550436193619  2.49702787688769 -1.71791556135614
 6 -8.24693697239724  6.06914828452845 -1.17287842244224
 6 -9.38684516291629  3.87938887718772 -3.15077762636264
 6 -8.76924590529053  3.79205056815682 -4.59500274697470
 7 -6.36459222652265 -0.17255243544354 -1.09350037043704
 6 -7.39155276197620 -0.02249315491549 -1.94493041564156
 6 -7.73006612321232 -1.34250940364036 -2.63457648224822
 6 -6.74826030973097 -2.27462123542354 -2.07976718661866
 6 -6.04294221772177 -1.42355638513851 -1.11011887658766
 6 -8.63045842054206 -1.57284707330733 -3.73898481788179
 6 -6.26787041414141 -3.59508861486149 -1.96979237313731
 8 -6.62842608320832 -4.55230020012001 -2.57610785648565
 6 -5.15256551005101 -3.59613137983798 -0.87433405420542
 6 -5.29739686728673 -4.71302650425043  0.26484363536354
 8 -5.60123430603060 -4.45909184258426  1.39881700200020
 8 -5.10857082028203 -5.88745262936294 -0.32400657205721
 6 -5.44771812101210 -7.04658824992499  0.37933546834683
 6  2.25908258985899 -5.23399966016602  0.56780476177618
 6  3.46236954705471 -4.26745824512451  0.99442072787279
 6  4.01516061976198 -3.42029185008501  0.23438581358136
 6  3.71119601690169 -3.30545373377338 -1.22690035883588
 6  5.16315052105211 -2.44389865806581  0.74575642654265
 6  6.45081068576858 -2.63973892689269  0.11638196409641
 6  7.57237636433643 -1.70946259205921  0.56088992359236
 6  8.97345595409541 -1.83926990899090 -0.11402811601160
 6  9.51806888698870 -3.30208011051105  0.04521764676468
 6  9.97562299789979 -0.75222584348435  0.42200016341634
 6  11.27709086638664 -0.63096589168917 -0.39700501110111
 6  12.18371599219922  0.46270546104610  0.09273006120612
 6  13.44193358745875  0.55792547944794 -0.68380813801380
 6  14.31902007500750 -0.63295402540254 -0.41990867606761
 6  14.16734667286729  1.93067783998400 -0.10498814121412
 6  15.41544082498250  2.12591452675268 -0.90297740544054
 6  16.05180480018002  3.53034554455446 -0.57403849684968
 6  17.46696109080908  3.83624253975398 -1.27651869966997
 6  17.35493447554756  4.10522608530853 -2.74325664566457
 6  18.19563298249825  5.14402252825283 -0.61322227922792
 1 -2.53684919081908  1.13110997459746  3.44720233143314
 1 -6.59114999789979  5.71729793199320  0.83409317201720
 1 -8.88681388048805  1.26983124462446 -2.97182256315632
 1 -3.71665873107311 -3.12842595929593  1.87944368646865
 1 -1.74223530953095 -1.43205081328133  2.63171533753375
 1 -2.88593791899190 -2.57575415631563  4.55431537743774
 1 -3.40360696079608 -0.81780389808981  4.48639477537754
 1 -4.57450912671267 -1.78601651965197  3.93587681028103
 1 -2.27861502710271 -3.32139518451845 -0.38877661226123
 1 -1.51140183988399 -1.91069969736974  0.28302914421442
 1 -0.66758114821482 -3.14797476977698  2.41326586768677
 1 -1.53275275387539 -4.82858969526953  1.47760679737974
 1 -1.80475912801280  3.18888357505751  4.10340272137214
 1 -2.80833848784879  4.77057669676968  4.53790945384538
 1 -3.26773670617062  3.22422561666167  5.11085806260626
 1 -5.15657951725172  6.68999698219822  2.19068118391839
 1 -10.24681866436644  3.01335848774877 -3.05892704730473
 1 -9.98873635653566  4.73739127362736 -3.05087808040804
 1 -9.61502726362636  3.73481138113811 -5.25448175877588
 1 -8.20158412441244  4.72778471907191 -4.57543722552255
 1 -8.24859513441344  2.99494380828083 -4.74512862756276
 1 -8.37391397299730 -0.99315257295730 -4.63126309530953
 1 -8.43797342524252 -2.58248530883088 -4.14264360826083
 1 -9.69277252635263 -1.16918355295530 -3.47142142724272
 1 -4.35923769976998 -3.80303612661266 -1.46476140624062
 1  2.41151909570957 -6.23498079117912  0.69432782068207
 1  2.29932325892589 -5.16578510491049 -0.68572400750075
 1  3.69767574997500 -4.60107022932293  2.12360072417242
 1  2.68590604250425 -3.35128668356836 -1.30256290639064
 1  3.98646598459846 -2.26205090569057 -1.52297051455145
 1  4.42033454085409 -4.08000985728573 -1.63601505880588
 1  4.85808967796780 -1.41102664726473  0.64656504760476
 1  5.34387674607461 -2.72626694389439  1.84787867416742
 1  6.80224944494449 -3.76981128062806  0.11316063776378
 1  6.35898473797380 -2.52711492749275 -0.89806949314932
 1  7.19145994759476 -0.69600615491549  0.11115986928693
 1  7.82757166736674 -1.80230847934793  1.56546401880188
 1  9.03126902650265 -1.76151419211921 -1.30472869156916
 1  8.76435860126013 -4.00442930283028 -0.35178764896490
 1  10.58967199659966 -3.62964631933193 -0.13035061696170
 1  9.48899564716472 -3.31901763036304  1.20557152015202
 1  9.41485254615461  0.32328073847385  0.48082725712571
 1  10.48186714531453 -0.96487480678068  1.40276121342134
 1  11.71101303240324 -1.77508483018302 -0.38659796759676
 1  11.14854079427943 -0.28027966346635 -1.48090893459346
 1  11.54931494959496  1.32574564636464  0.02177496709671
 1  12.25759651835184  0.07529881318132  1.20334951005100
 1  13.02501324362436  0.50856559935994 -1.77933413821382
 1  14.74249447664766 -0.90611362866287  0.61818691619162
 1  13.76804719121912 -1.58431161006101 -0.79907616171617
 1  15.36746660316031 -0.61786511421142 -0.95454785778578
 1  13.42259150475047  2.75049334853485 -0.35439531683168
 1  14.43342095429543  1.68873528802880  1.02675150245025
 1  16.04455318241824  1.40430589208921 -0.77512532753275
 1  15.02566736223622  2.23685193659366 -1.84182771367137
 1  15.39231069316932  4.53133634133413 -0.87546882688269
 1  16.01061069496950  3.38301426082608  0.49390184898490
 1  18.04408422522252  3.01968547704770 -1.12132652055206
 1  16.78978611541154  5.04664194309431 -2.70808508740874
 1  18.34768715861586  4.20328672187219 -3.17451488508851
 1  16.83988867416742  3.29909482068207 -3.45358591179118
 1  18.43511138513851  5.03515416841684  0.41977114281428
 1  18.98332594339434  5.35070129662966 -1.15825796689669
 1  17.54099666946695  6.01681609170917 -0.55359371147115
 1 -5.21916980158016 -7.89149024842484 -0.40660497649765
 1 -6.57455794709471 -6.98616799819982  0.74003384668467
 1 -4.90931314871487 -7.10607048324832  1.24251712011201
 8 -7.83814670997100  6.95902593399340 -0.44449787818782
 1 -8.85863924772477  6.25236265196520 -2.24091255875588

