%nproc=3
%Mem=2GB
# td=(NStates=1) iop(3/107=0140000000,3/108=0140000000) iop(3/107=0140000000,3/108=0140000000) CAM-B3LYP/6-31G(d,p) 

TD

0 1
12 -5.69182491369137  1.20737076477648  0.21334400320032
 6 -4.92206232803280 -2.10218418311831 -0.42958602370237
 6 -3.35991745164517  1.10618315981598  2.76716815501550
 6 -6.20156657895790  4.46388441154115  0.60731309250925
 6 -8.03632455045505  1.28325700810081 -2.41300539443944
 7 -4.39819690419042 -0.29067499059906  1.12791295829583
 6 -4.26584180458046 -1.54514569596960  0.57892161066107
 6 -3.18603000470047 -2.29217041564156  1.34875046364636
 6 -2.90809496489649 -1.26003667336734  2.58354514111411
 6 -3.53154995499550 -0.08679783238324  2.10460111871187
 6 -3.45525763376338 -1.78131482408241  3.92911077047705
 6 -1.94454929822982 -2.62645663886389  0.60819500560056
 6 -0.95458322122212 -3.56002109000900  1.28799267616762
 6  0.32042791019102 -3.88337320942094  0.57080524162416
 8  0.47899175307531 -3.49612930173017 -0.56671668706871
 8  1.10991267346735 -4.62723786858686  1.28671465996600
 7 -4.92330088108811  2.45760599729973  1.47710439703970
 6 -3.99944403160316  2.42182019801980  2.38787401320132
 6 -3.78917945514551  3.58967905040504  3.15467441184118
 6 -4.56799255495550  4.54313277877788  2.61145702990299
 6 -5.34612397479748  3.87032170867087  1.50532568446845
 6 -2.81428005290529  3.75147223092309  4.29988385888589
 6 -4.51024372437244  5.95313534773477  2.84292972977298
 8 -3.95256774407441  6.49985481568157  3.79009298179818
 7 -6.91710335993599  2.59668760126013 -0.69431209890989
 6 -7.03723592139214  3.92005241074107 -0.30705890899090
 6 -8.00954609480948  4.62051310811081 -1.16383919301930
 6 -8.43183621642164  3.69084821492149 -2.05727027942794
 6 -7.75353916541654  2.41326950105011 -1.82991676147615
 6 -8.30237251595160  6.03780515021502 -1.17041817641764
 6 -9.47456393479348  3.88267920622062 -3.14164671327133
 6 -8.83692267296730  4.12424378747875 -4.54102734943494
 7 -6.29975574287429 -0.11636681688169 -1.12487350775077
 6 -7.39280288698870  0.03721281568157 -2.07259318191819
 6 -7.66323944054405 -1.32576772947295 -2.74084710931093
 6 -6.73501898559856 -2.14019779307931 -2.07500671057106
 6 -5.94358228172817 -1.54684871437144 -1.11332919761976
 6 -8.68333370807081 -1.74924471307131 -3.75203612301230
 6 -6.28707233433343 -3.43162226822682 -2.08260365426543
 8 -6.62569581018102 -4.47758272837284 -2.53913415911591
 6 -5.11585183868387 -3.44244601130113 -0.88804542534253
 6 -5.30705783338334 -4.54955015661566  0.15817296829683
 8 -5.72542672527253 -4.39966589999000  1.28898601890189
 8 -5.05524548774877 -5.86175005910591 -0.33678785018502
 6 -5.32320566976698 -6.89848343944394  0.46814434923492
 6  2.42952963456346 -5.11969823002300  0.72058003930393
 6  3.47898120822082 -4.10366186548655  1.07744903070307
 6  4.00028913261326 -3.07139696059606  0.29002137713771
 6  3.77232212951295 -3.14238742714271 -1.14320198899890
 6  5.25905011101110 -2.34432870107011  0.75889774067407
 6  6.58885449014901 -2.73004795779578  0.11582190809081
 6  7.70771989868987 -1.83270491629163  0.57249108370837
 6  9.02327093559356 -2.03313929592959  0.05183847064706
 6  9.66735381548155 -3.47437734023402  0.36461958695870
 6  10.08264369997000 -0.90212083298330  0.44866282968297
 6  11.41596475377538 -0.81527432253225 -0.35275058565857
 6  12.30006762736274  0.22598178867887  0.17005779397940
 6  13.57604699879988  0.39922960986099 -0.56065582278228
 6  14.55589376237624 -0.83468419841984 -0.33153983918392
 6  14.23222316051605  1.68033280548055 -0.25063270567057
 6  15.44184346524652  2.11939387468747 -1.07232434013401
 6  15.96953657335733  3.47894040404040 -0.68841993499350
 6  17.28640303500350  4.01276019151915 -1.37614866266627
 6  17.10215919801980  4.06447200990099 -2.90901322132213
 6  17.81648506770677  5.24091221722172 -0.77931888888889
 1 -2.62867837373737  0.90785764936494  3.61559917111711
 1 -6.42710359325933  5.48707490969097  0.78018778147815
 1 -8.82979817891789  1.14428869036904 -2.98618399929993
 1 -3.70234729992999 -3.18273138983898  1.67374311641164
 1 -1.85690677667767 -1.05164277247725  2.70124229022902
 1 -3.13492281748175 -2.65632221312131  4.26937688358836
 1 -3.22018861896190 -1.12745486318632  4.60408654455446
 1 -4.58921059685969 -1.97316523452345  3.88778200080008
 1 -2.24299146474647 -3.05959900490049 -0.52560029462946
 1 -1.31925262496250 -1.59008763616362  0.27073791509151
 1 -0.69631402150215 -3.08358833113311  2.25091963306331
 1 -1.24127360596060 -4.60650748704870  1.75058409510951
 1 -1.73432208430843  3.81652633933393  3.88437081818182
 1 -2.92877053105311  4.58068770787079  4.88275393829383
 1 -2.83512344484448  2.83244643874388  4.82438941574157
 1 -4.96597045634563  6.56673465596560  2.12327444324432
 1 -9.86887086958696  2.86288344024402 -3.27187834243424
 1 -10.08062554545455  4.72452998749875 -3.05170816341634
 1 -9.56520228112811  4.09112701270127 -5.34353066366637
 1 -8.13287725372537  4.83149509010901 -4.55991567336734
 1 -8.40474074897490  3.21550586448645 -4.76448056275627
 1 -8.32739932153215 -1.36078933663366 -4.77380734973497
 1 -8.89410903880388 -2.80938799909991 -3.79980932483248
 1 -9.44911816091609 -1.47355398999900 -3.28020230533053
 1 -4.24350612661266 -3.93964978797880 -1.50728565866587
 1  2.73386132993299 -5.91054834793479  1.13667205510551
 1  2.35177850445045 -5.07620614701470 -0.47508294339434
 1  3.82501848424843 -4.23440356265627  2.02372073617362
 1  2.89834728662866 -3.36293784868487 -1.38620127022702
 1  4.19135647364736 -2.17169186978698 -1.55350356785679
 1  4.30623313071307 -3.87017887418742 -1.58180963826383
 1  4.95840970997100 -1.27132267686769  0.77761815291529
 1  5.48463082148215 -2.68831314851485  1.87428131443144
 1  6.59247846784678 -3.85224952445245  0.14094341604160
 1  6.60856969646965 -2.53514573057306 -0.93913359955996
 1  7.42728352995300 -0.84944149844985  0.50969972327233
 1  7.80036894709471 -1.90929917841784  1.55812328472847
 1  9.10077597719772 -2.07436547724773 -0.96878509720972
 1  9.17192935833583 -4.37876673657366  0.18827635743574
 1  10.71885491489149 -3.83592694739474 -0.07650523242324
 1  9.92459920752075 -3.59342507110711  1.64183514651465
 1  9.62792385328533  0.05672408280828  0.31478065246525
 1  10.24821377997800 -0.93424174347435  1.57740867816782
 1  11.74674660576058 -1.88087540924092 -0.48807811561156
 1  11.23639958015802 -0.69656129162916 -1.43212405610561
 1  11.98473849194919  1.25862893469347  0.30502329192919
 1  12.45498625732573  0.06214749804980  1.23339251435144
 1  13.43914465676568  0.43875861866187 -1.76502270707071
 1  14.75654588178818 -1.02627564486449  0.75093019051905
 1  14.29754014051405 -1.74711789068907 -0.66261251535153
 1  15.66699655615562 -0.62432576027603 -0.77101950495049
 1  13.50613985958596  2.59174747394739 -0.29333921122112
 1  14.55848346054606  1.78791520602060  0.79089791709171
 1  16.23599232633263  1.40049551105111 -1.18858667366737
 1  15.06088088358836  2.08094634603460 -2.17195072597260
 1  15.20229169126913  4.34060726842684 -0.86893817381738
 1  16.00195982988298  3.73807976737674  0.41621408020802
 1  18.08847866466647  3.31780528902890 -1.27637202510251
 1  16.22931006780678  4.67918519741974 -3.17134141304131
 1  18.05183757365737  4.36162255545555 -3.22887032063206
 1  16.77449213451345  3.02957786898690 -3.31509206240624
 1  18.06378425242524  5.40843149614961  0.36875604130413
 1  18.78077568836884  5.68422464896490 -1.11013315441544
 1  17.15140771057106  6.08349275937594 -1.04686303840384
 1 -5.35918380298030 -7.79691079047905 -0.19771408740874
 1 -6.35772626392639 -6.72997237863786  0.89724956825683
 1 -4.72537475487549 -6.95862573877388  1.40594346274627
 8 -7.99584247954795  6.91320135153515 -0.38668209660966
 1 -8.98881226502650  6.49062647834784 -2.02744121162116

