%nproc=3
%Mem=2GB
# td=(NStates=1) iop(3/107=0140000000,3/108=0140000000) iop(3/107=0140000000,3/108=0140000000) CAM-B3LYP/6-31G(d,p) 

TD

0 1
12 -5.69276500770077  1.23622365006501  0.18124079287929
 6 -5.12422254405441 -2.13392735743574 -0.36489955505551
 6 -3.54499595949595  1.19225176667667  2.77736917511751
 6 -6.13050947324733  4.59698772187219  0.57267962916292
 6 -8.07826874487449  1.14617329972997 -2.35094918881888
 7 -4.47010409490949 -0.29280520362036  1.02156232323232
 6 -4.25071029142914 -1.59023020442044  0.63211693019302
 6 -3.26432783448345 -2.25735693429343  1.44142973157316
 6 -2.98315247064706 -1.35817648734873  2.56642342894289
 6 -3.66868366836684 -0.03363251585159  2.12773343194319
 6 -3.46310841884188 -1.84745143774377  3.96441430083008
 6 -2.01741658495850 -2.69056304950495  0.66736092219222
 6 -0.88837660056006 -3.54542963086309  1.42606648354835
 6  0.26014188158816 -3.79754462656266  0.64079224032403
 8  0.52869672357236 -3.48140782958296 -0.48205822122212
 8  1.06423810601060 -4.55201034583458  1.37882387088709
 7 -4.97361591259126  2.64528476517652  1.48929561616162
 6 -4.05947003420342  2.43177119311931  2.51762698849885
 6 -3.78290882808281  3.61920200270027  3.15382432683268
 6 -4.60543629932993  4.65618408390839  2.58772465666567
 6 -5.21689105150515  3.94688936543654  1.54710986288629
 6 -2.89412803770377  3.69255633933393  4.40561443194319
 6 -4.56303900390039  6.12370240444044  2.97207264406441
 8 -3.94072655995600  6.50315514571457  3.94216818931893
 7 -6.89951160076008  2.59999793229323 -0.74688735643564
 6 -6.80951314911491  3.94335474097410 -0.49977818091809
 6 -7.88854399459946  4.66082713951395 -1.24121693079308
 6 -8.46260929372937  3.68164729482948 -2.02137669006901
 6 -7.80501431293129  2.38661683578358 -1.70419418921892
 6 -8.15667794649465  6.14606597629763 -1.29123025762576
 6 -9.43290976937694  3.77737867616762 -3.12761531013101
 6 -8.84872385308531  4.10967233033303 -4.54641788848885
 7 -6.60494626192619 -0.15302048224822 -0.94885590599060
 6 -7.48699230593059 -0.06680758635864 -1.99097502010201
 6 -7.58384150075007 -1.38729388208821 -2.73602662726273
 6 -6.76832231593159 -2.26576034933493 -2.02036124602460
 6 -6.16465438893889 -1.47115114461446 -1.01500936563656
 6 -8.50026540124012 -1.67515730433043 -3.85855677507751
 6 -6.16982060916092 -3.65477458345835 -2.05668106200620
 8 -6.60610385098510 -4.61171614171417 -2.60819106480648
 6 -5.03825407890789 -3.58993075977598 -0.92524914571457
 6 -5.34131125872587 -4.71882708430843  0.11498864986499
 8 -5.89363354595459 -4.50323625702570  1.22657977827783
 8 -4.89495945914592 -5.82204608870887 -0.41401557295730
 6 -5.17534088328833 -7.06357994909491  0.38315585038504
 6  2.27826450805081 -4.96411267146715  0.65636361766177
 6  3.34761807190719 -4.03162466176618  1.07002828862886
 6  4.08764786848685 -3.27121694259426  0.25638801380138
 6  3.76381127842784 -3.12599578797880 -1.22278994779478
 6  5.26230043604360 -2.33825809400940  0.72290414131413
 6  6.61226683138314 -2.73047800080008  0.14599492539254
 6  7.71240036673667 -1.78348999479948  0.56749058365837
 6  9.13811241974198 -1.98540452245225 -0.11827854105411
 6  9.57790487058706 -3.42738264076408  0.16697982298230
 6  10.09185462106211 -0.96997761866187  0.41056902030203
 6  11.40342349964996 -0.86488928402840 -0.38124343494349
 6  12.27134475507551  0.30209940044004  0.12688347654765
 6  13.59680907500750  0.48818850575058 -0.57377713491349
 6  14.44835300830083 -0.75033576357636 -0.36547323252325
 6  14.20186012421242  1.81254602680268 -0.17670531293129
 6  15.57873715461546  2.08311024632463 -0.91787889558956
 6  16.05717533723372  3.49165167516752 -0.66969806280628
 6  17.32507690239024  3.82414132963296 -1.39780082788279
 6  17.15919490159016  4.21882744544454 -2.91442376237624
 6  17.92734615381538  5.14085221122112 -0.80988194519452
 1 -2.72856836273627  1.14065092869287  3.42805041624162
 1 -6.22293317621762  5.68599480168017  0.85028479117912
 1 -8.79826502560256  0.92033629512951 -3.09987536843684
 1 -3.78241530673067 -3.16323944064406  1.81893763586359
 1 -1.87745883188319 -1.01247885608561  2.66890905690569
 1 -2.96958628382838 -2.85838241914191  4.25625557145715
 1 -3.36244284438444 -1.16913903160316  4.76034217011701
 1 -4.56395807160716 -1.99264718271827  3.97255047764776
 1 -2.15996316191619 -3.35819886488649 -0.19537727232723
 1 -1.50550124982498 -1.55105373277328  0.27280812211221
 1 -0.64657904800480 -3.11483145544554  2.19912445354535
 1 -1.27812729132913 -4.52959979627963  1.57025606230623
 1 -1.76760541264126  3.34750943764376  4.18072045314531
 1 -3.13892154615462  4.77385702480248  4.92050771367137
 1 -2.98591852435244  2.97930112421242  5.28542551935194
 1 -5.28931279057906  6.78933691619162  2.25248736453645
 1 -9.90543452595259  2.96056320822082 -2.92260341494149
 1 -10.10129761266127  4.63692122662266 -2.73872686528653
 1 -9.71260702160216  4.18057595759576 -5.26188249884988
 1 -8.31582554855486  5.03309525012501 -4.82389207100710
 1 -8.24256453135314  3.23995830973097 -4.75913002770277
 1 -8.09923650525053 -1.15433869156916 -4.78372834183418
 1 -8.41102072997300 -2.60291735203520 -4.15207455135514
 1 -9.47800104920492 -1.44916155075507 -3.58380266536654
 1 -3.95576735273527 -3.85410123312331 -1.43146807690769
 1  2.32885082888289 -5.91393868696870  1.05290367826783
 1  2.05808913551355 -4.73236176257626 -0.48340377547755
 1  3.59497547994799 -4.01638176047605  2.05209357345735
 1  2.83300075197520 -3.35777733263326 -1.41426407650765
 1  4.02417975597560 -2.06849154975498 -1.56860507800780
 1  4.36671917931793 -3.98239009530953 -1.77626908420842
 1  4.89906377537754 -1.27882342694269  0.57409780088009
 1  5.13871623002300 -2.39320363756376  1.97094098039804
 1  6.89174839483948 -3.81497579707971  0.30607992969297
 1  6.54179301880188 -2.66947916391639 -1.02058174437444
 1  7.35775657725773 -0.68166472077208  0.49836859015902
 1  7.80814972517252 -1.86425467396740  1.60397787018702
 1  8.70238613821382 -1.88109615031503 -1.07242546124612
 1  8.88949111451145 -4.08366722662266 -0.25505797599760
 1  10.57358038743874 -3.68000135483548 -0.37875545744574
 1  9.91732848044805 -3.73086881548155  1.28886984998500
 1  9.57747880878088  0.10051846224622  0.28930810521052
 1  10.42667162576258 -0.99858817811781  1.52167310461046
 1  11.80087201830183 -1.97943526522652 -0.23951325912591
 1  11.15718165836584 -0.96742837833783 -1.64279512321232
 1  11.62707272537254  1.18982205400540  0.10665345494549
 1  12.46713747244725  0.29365064836484  1.19634880998100
 1  13.27295803810381  0.55001974477448 -1.72007821262126
 1  14.78012824002400 -0.80270328762876  0.52287738523852
 1  14.03989437593759 -1.65068824772477 -0.47222347644764
 1  15.21179103560356 -0.58859218691869 -1.12706510951095
 1  13.78609785538554  2.74067236643664 -0.39230910821082
 1  14.31248886108611  1.70062647714772  0.86271509880988
 1  16.40495922302230  1.33181864336434 -0.63733154815482
 1  15.29807460296029  1.83570182158216 -1.99667319821982
 1  15.19158062016202  4.12855606330633 -0.96114739473947
 1  16.04010364426442  3.63185914531453  0.39725218401840
 1  17.89633945074507  3.19295280378038 -1.38960334823482
 1  16.46999413621362  5.03163044194419 -2.78228250715072
 1  18.03997638753875  4.59589598279828 -3.38618605220522
 1  16.73241792709271  3.42256716791679 -3.69224977817782
 1  18.38051592559256  5.23379403240324  0.20536970267027
 1  18.79866747754776  5.50392661916192 -1.52276441754175
 1  17.03878644844485  5.86570098019802 -0.90403875597560
 1 -5.00191807640764 -7.91417251665167 -0.28986330233023
 1 -6.19799029032903 -6.88887826922692  0.64820466376638
 1 -4.60713293069307 -7.07497737393739  1.40341320972097
 8 -7.58301119641964  6.94323435483548 -0.55610903930393
 1 -8.92462584638464  6.41737915361536 -1.88390685818582

