%nproc=3
%Mem=2GB
# td=(NStates=1) iop(3/107=0140000000,3/108=0140000000) iop(3/107=0140000000,3/108=0140000000) CAM-B3LYP/6-31G(d,p) 

TD

0 1
12 -5.58772450365037  1.24153418111811  0.23280594939494
 6 -5.12104222602260 -2.15715968066807 -0.34648771387139
 6 -3.38598005790579  1.08378091959196  2.82162360056006
 6 -6.12832925522552  4.55873389648965  0.66273863506351
 6 -7.91564248224823  1.23445212761276 -2.44132822672267
 7 -4.39594667916792 -0.38906482958296  1.12715288228823
 6 -4.36554177457746 -1.62782396379638  0.81962568106811
 6 -3.28808020972097 -2.31950314891489  1.55757134573457
 6 -2.96443059845985 -1.35470614031403  2.76646343294329
 6 -3.53963076307631 -0.07188634123412  2.26045670427043
 6 -3.56009811781178 -1.83777046964696  4.04577243664366
 6 -1.96928177147715 -2.71244523772377  0.73519770587059
 6 -0.94364212711271 -3.54442953085309  1.56394027092709
 6  0.17588345574557 -3.91493636573657  0.58585674677468
 8  0.46440029392939 -3.45612530133013 -0.45225524092409
 8  0.94756643884388 -4.79229437423742  1.35638162666267
 7 -4.86448499949995  2.60965120182018  1.49569625622562
 6 -3.94199828702870  2.32830084608461  2.42021724752475
 6 -3.69113965116512  3.60740082258226  3.20883982838284
 6 -4.55151090679068  4.56851531703170  2.52336822102210
 6 -5.23668303070307  3.97786246274627  1.50535568746875
 6 -2.79337796269627  3.83541062476248  4.45006887738774
 6 -4.67935063506351  5.96918695289529  2.92321775857586
 8 -4.06894938223822  6.58569339953995  3.86300027252725
 7 -6.81679332893289  2.64437236973697 -0.76316898459846
 6 -6.86722892069207  4.03261366686669 -0.38964716781678
 6 -7.84597973817382  4.72337339413941 -1.26698950805080
 6 -8.30007304010401  3.79753888398840 -2.16038059045905
 6 -7.65720953245325  2.46550472457246 -1.78596236603660
 6 -8.26940921962196  6.05968733843384 -1.21589272387239
 6 -9.39308578697870  3.91241217951795 -3.26958950755076
 6 -8.59140812151215  3.97109847294729 -4.69088233493349
 7 -6.33310907820782 -0.08159333953395 -1.11001202160216
 6 -7.28223182988299  0.02787188158816 -2.10213613621362
 6 -7.40505362196220 -1.29206435913591 -2.76675970057006
 6 -6.50984646834684 -2.09689346264626 -2.14540375027503
 6 -5.93471139463946 -1.31941597109711 -1.09959782448245
 6 -8.42110748544854 -1.71849163776378 -3.84387530693069
 6 -6.08434206130613 -3.56554566056606 -2.05188058195820
 8 -6.42665590619062 -4.54462943304330 -2.63464371007101
 6 -5.11595184868487 -3.53271503820382 -0.87852447324732
 6 -5.32171929952995 -4.66214141574157  0.08225537653765
 8 -5.61988617121712 -4.45060099349935  1.21941906220622
 8 -5.14852481568157 -5.83054693879388 -0.49507367876788
 6 -5.52752610181018 -7.01776536763676  0.35974350915091
 6  2.23037971957196 -5.05278153835383  0.79397737903790
 6  3.32147545764576 -4.09471097039704  1.07953923972397
 6  4.03432253595359 -3.35803562446245  0.29735211021102
 6  3.64561945924592 -3.25033822222222 -1.11804947374737
 6  5.20403460946095 -2.50753502170217  0.67814966586659
 6  6.43539914461446 -2.73940889388939 -0.12724239833983
 6  7.67967709440944 -1.91612325812581  0.60310414501450
 6  9.02036064456446 -1.96754273627363 -0.13874058725873
 6  9.51396847694769 -3.49786968946895 -0.05010188518852
 6  9.94530996659666 -0.95466608750875  0.52832079547955
 6  11.30716387368737 -0.88012080718072 -0.11104641524152
 6  12.26731435203520  0.23535272577258  0.25230601880188
 6  13.48717811191119  0.46985667256726 -0.53840359755976
 6  14.52657083008301 -0.65647637763776 -0.30320700590059
 6  14.20650058825883  1.86141091329133 -0.22753039543954
 6  15.30140942184218  2.15385732103210 -1.11505861356136
 6  15.96641626132613  3.59230174017402 -0.77214830783078
 6  17.22388678337834  4.06966588208821 -1.43878492629263
 6  17.19679866196620  4.01034659735974 -2.96085840584058
 6  17.78633205240524  5.41764989098910 -1.00565152215222
 1 -2.89054456035604  0.88041490509051  3.81956956815682
 1 -6.05135601850185  5.58515471767177  0.69556931963196
 1 -8.68905410451045  1.11209547104710 -3.17683306420642
 1 -3.75225229042904 -3.46807992469247  1.82666840894089
 1 -1.91599268526853 -1.34548215641564  2.97199936593659
 1 -3.25932525772577 -2.90908748964896  4.34862480838084
 1 -3.42765936603660 -1.10427254495450  4.88243437933793
 1 -4.64042571837184 -1.80491840984098  3.85278850145015
 1 -2.14250141574157 -3.19316236123612 -0.11778951355135
 1 -1.54249494919492 -1.83490211761176  0.50341118241824
 1 -0.68618300840084 -2.93878385068507  2.37662220332033
 1 -1.31754123272327 -4.51768860516052  1.96519555625563
 1 -1.65335398749875  3.74627931463146  4.09697207830783
 1 -2.80044769876988  4.80678031713171  4.87316297919792
 1 -3.04303423592359  2.89037223132313  5.00728770557056
 1 -5.24219807910791  6.57402538503850  2.17948006380638
 1 -9.94890887338734  3.04778193009301 -3.34200535513551
 1 -9.90206768966897  4.83518105260526 -3.06021901450145
 1 -9.33294905580558  4.11779967996800 -5.50743705430543
 1 -7.83045701170117  4.83850579117912 -4.54265394719472
 1 -7.90941121602160  3.08591290519052 -4.97932204690469
 1 -8.15639222082208 -1.06030928862886 -4.69568953795380
 1 -8.46491611951195 -2.73544060436044 -4.10208955285529
 1 -9.43223647274727 -1.66720335493549 -3.36795108020802
 1 -4.14284606060606 -3.69293511651165 -1.44350928102810
 1  2.58530647444744 -6.06049334243424  1.18268665656566
 1  2.11056438303830 -5.32418094449445 -0.25995143024302
 1  3.65473145554555 -4.18884900720072  2.16265462956296
 1  2.72980043194319 -3.79850140504050 -1.56952960306031
 1  3.83558089608961 -2.23138783938394 -1.57183540104010
 1  4.38108061546155 -3.98315017131713 -1.49935139243924
 1  4.74704857385739 -1.38164370897090  0.56550694179418
 1  5.52311466986699 -2.57118143534353  1.83395728202820
 1  6.52751197119712 -3.89394369386939  0.04495381708171
 1  6.47071591109111 -2.45964818081808 -1.14415410161016
 1  7.11639244084408 -0.85815236953695  0.47435618891889
 1  7.55935484568457 -2.14744299279928  1.61809928232823
 1  8.80775667526753 -1.77708574927493 -1.15257347604760
 1  8.77630979637964 -4.24621348124812 -0.33134560476048
 1  10.76223925332533 -3.71139449414941 -0.48006558845885
 1  9.87838458605861 -3.64683041164116  0.91313227622762
 1  9.41453251415141  0.15867427782778  0.35879505390539
 1  9.95266422502250 -1.15706402570257  1.61851278857886
 1  11.88645057615762 -1.71982930463046 -0.18614792259226
 1  11.12319826002600 -0.58903053855386 -1.16886773047305
 1  11.80506052415241  1.22371544334433  0.24597738733873
 1  12.56966772547255  0.03794507780778  1.21320049514951
 1  13.14309505180518  0.60037478027803 -1.57758396319632
 1  14.90026025322532 -0.42979599689969  0.88606370387039
 1  13.97600798729873 -1.69273245214521 -0.56200245434543
 1  15.41299115561556 -0.43303663136314 -0.87775017801780
 1  13.50132937853785  2.70016831603160 -0.50298017531753
 1  14.38308592079208  1.84948136263626  0.93106193349335
 1  15.98464719181918  1.38616407790779 -0.86155397039704
 1  15.11337613311331  2.22813106450645 -2.04075760666067
 1  15.01974343644364  4.20839404710471 -1.11104238423842
 1  16.22950258415841  3.61203716311631  0.45571803060306
 1  18.03561337813781  3.13958746724672 -1.30274466236624
 1  16.32517965476547  4.60957823672367 -3.55075935483548
 1  17.95462785268527  4.38367476067607 -3.50832826642664
 1  16.88742342764276  2.97724263546355 -3.27482803600360
 1  17.95375324932493  5.59997065006501  0.05101426712671
 1  18.78753636443644  5.61983821032103 -1.31651379247925
 1  17.04191676147615  6.26437084718472 -1.37124547664766
 1 -5.01566945154515 -7.83273437283728 -0.11506582258226
 1 -6.51613210451045 -7.08704808620862  0.54260410371037
 1 -5.00501271867187 -6.89644952115211  1.47590045844585
 8 -7.95023791909191  6.81557158855886 -0.31907533593359
 1 -9.04632801660166  6.31392880858086 -1.90202867036704

