%nproc=3
%Mem=2GB
# td=(NStates=1) iop(3/107=0140000000,3/108=0140000000) iop(3/107=0140000000,3/108=0140000000) CAM-B3LYP/6-31G(d,p) 

TD

0 1
12 -5.65435116631663  1.22772279998000  0.27112978177818
 6 -4.95816593839384 -2.12540650535054 -0.29828289338934
 6 -3.30015147504750  1.19664220572057  2.65967740594059
 6 -6.22781920422042  4.56977500060006  0.68315067626763
 6 -7.87058797679768  1.13532221462146 -2.44615870977098
 7 -4.45459254375438 -0.30098602170217  1.05508567556756
 6 -4.27284250465047 -1.57320850225023  0.82785650415041
 6 -3.15495689738974 -2.28422962156216  1.52195778437844
 6 -2.83835799119912 -1.30111078077808  2.71003779037904
 6 -3.51736853685369 -0.01561071367137  2.07297795639564
 6 -3.40122223022302 -1.76104279687969  4.01047890729073
 6 -1.88018286158616 -2.57859185238524  0.68157234333433
 6 -0.84246200910091 -3.45895098299830  1.49356323322332
 6  0.33141900930093 -3.85912078417842  0.72193035413541
 8  0.46833068696870 -3.55117480628063 -0.49963997939794
 8  1.12361404360436 -4.73381852665266  1.33847983648365
 7 -4.95961451245125  2.62496273297330  1.43308999559956
 6 -3.93836792399240  2.43342135813581  2.35442066786679
 6 -3.69807034423442  3.63472355485549  3.08767771217122
 6 -4.51138689438944  4.66319478497850  2.53050893509351
 6 -5.23960332273227  3.98575325182518  1.51757690959096
 6 -2.73751237613761  3.90431751545155  4.23197706820682
 6 -4.63820652065207  6.08286832103210  2.89001443824382
 8 -3.87721020832083  6.73634846504650  3.66646061856186
 7 -6.89572122172217  2.58118605110511 -0.69848251595160
 6 -6.97397959575958  3.89798020352035 -0.35060326342634
 6 -7.99888502870287  4.62608366516652 -1.19656246534653
 6 -8.50848388118812  3.61250038013801 -2.02581713411341
 6 -7.69938374987499  2.38486666076608 -1.80343411321132
 6 -8.49207148584859  5.94778614831483 -1.09436057065707
 6 -9.47579405780578  3.75435637393739 -3.15310785938594
 6 -8.85145412611261  4.02886424952495 -4.53836708340834
 7 -6.26665243254325 -0.13387856805681 -1.07669869026903
 6 -7.21161476817682  0.02045113951395 -2.09827575017502
 6 -7.50554367096710 -1.22906805950595 -2.70864388898890
 6 -6.60335581928193 -2.12395616891689 -2.04371358125813
 6 -5.86023394689469 -1.34608863836384 -1.08936680138014
 6 -8.43019839453945 -1.68798858745875 -3.80663158255826
 6 -6.20096372347235 -3.58957806380638 -1.98399379327933
 8 -6.62020526112611 -4.51677664776478 -2.62196244194419
 6 -4.99371962546255 -3.58548031473147 -0.77773439423942
 6 -5.32614974257426 -4.65941114271427  0.15076222722272
 8 -5.59068325092509 -4.46929286268627  1.37124424472447
 8 -5.04052401560156 -5.89360324442444 -0.28664283568357
 6 -5.25153850305031 -7.04616820792079  0.59550708550855
 6  2.33522020362036 -5.08529478967897  0.66622460376038
 6  3.47626093619362 -4.12924442374237  0.95398668446845
 6  4.01250035373537 -3.23912373327333  0.04417679267927
 6  3.66282117941794 -3.08956214461446 -1.37858552735274
 6  5.06025023102310 -2.33823809200920  0.59407125802580
 6  6.32154775947595 -2.84603955695570 -0.05799547364736
 6  7.56215534223422 -1.84659630543054  0.34600843544354
 6  8.91287989648965 -2.10081606360636 -0.36063277647765
 6  9.54717179727973 -3.49980988348835 -0.03746062106211
 6  9.94198963456346 -0.92018263916392  0.20666863026303
 6  11.29081223852385 -0.85900869596960 -0.44922023262326
 6  12.15552317291729  0.23300249074907  0.11831261946195
 6  13.45948534263426  0.47366705360536 -0.64028378557856
 6  14.32208038103810 -0.84339506950695 -0.40098678387839
 6  14.17406734493449  1.79369414161416 -0.14727236963696
 6  15.57311659255926  2.05446738203820 -0.74800190789079
 6  15.87124674437444  3.58532104210421 -0.51554264726473
 6  17.21747614231423  3.96805572107211 -1.12661370917092
 6  17.11494047614762  4.05112067476748 -2.62039435943594
 6  17.83531695089509  5.17274540054005 -0.57520847784778
 1 -2.62908841474147  1.20203706730673  3.53986159735974
 1 -6.57402828572857  5.63706990919092  1.00952071477148
 1 -8.52054725382538  0.94622888438844 -3.28831421232123
 1 -3.41217828302830 -3.10332344904490  1.88792453455345
 1 -1.87178826482648 -1.06578418661866  2.82021418741874
 1 -2.83844316951695 -2.51379796069607  4.31643158905891
 1 -3.23914051415142 -1.14736685438544  4.78628476437644
 1 -4.42726440224022 -2.09373729172917  3.86341956455646
 1 -2.24751191679168 -3.30758380338034 -0.09873760836084
 1 -1.49183988368837 -1.63302192959296  0.19295013631363
 1 -0.51498588868887 -2.80747071937194  2.23764830593059
 1 -1.26128560716072 -4.32693953025302  1.99916895359536
 1 -1.72324097619762  3.75108979567957  3.80309269036904
 1 -2.73816147014701  4.82310194929493  4.74211987488749
 1 -2.94980491299130  3.03744693879388  4.83961093789379
 1 -5.35055891519152  6.45090307280728  2.11591370717072
 1 -10.02017600010001  2.87974512641264 -3.21102225682568
 1 -10.19494697759776  4.47629516401640 -3.02612560516052
 1 -9.37654341524152  4.04262216221622 -5.44317062766277
 1 -8.13816778277828  4.91364330493049 -4.43687336913691
 1 -8.07204747964797  3.24541885578558 -4.82105622032203
 1 -8.04575115671567 -1.32190544824482 -4.79033900290029
 1 -8.46587621552155 -2.68287534783478 -3.82663200710071
 1 -9.44547779687969 -1.22709934453445 -3.69984426952695
 1 -4.06047782378238 -3.68853467646765 -1.44549948004800
 1  2.52915085888589 -6.02306960006001  0.98111649954995
 1  2.26432975957596 -5.16958548494849 -0.43836927202720
 1  3.84984096649665 -4.11103122542254  1.95427379147915
 1  2.63059051095109 -3.57584913981398 -1.58401105120512
 1  3.52165950395040 -2.16028072867287 -1.68875709320932
 1  4.36587909530953 -3.36011786808681 -2.04152560986099
 1  4.95646951595160 -1.15599114371437  0.52591298239824
 1  5.34576693509351 -2.54251856905691  1.67035092139214
 1  6.56956617661766 -4.01162546204621  0.04193351505151
 1  6.31398023752375 -2.89544176017602 -1.11503118931893
 1  7.17797859945995 -0.78770532483248  0.05191394469447
 1  7.59570848104810 -1.78553680218022  1.51925939833983
 1  8.65742164176418 -2.00998903960396 -1.45746396509651
 1  8.95109727512751 -4.19809866976698 -0.41141361156116
 1  10.51155418481848 -3.42734608930893 -0.48679626152615
 1  9.77053380098010 -3.51724745334533  1.18940990399040
 1  9.53042410331033  0.02987139753975  0.14397357175718
 1  10.01957091569157 -1.04880319961996  1.32684362166217
 1  11.96755868696870 -1.77538486018602 -0.51714102190219
 1  11.18062400260026 -0.68542017751775 -1.60454129782978
 1  11.63475349344934  1.30559363116312  0.09546233583358
 1  12.33179393809381  0.03545482878288  1.08241741684168
 1  13.14898564086409  0.65796053885389 -1.64949115391539
 1  14.52428265546555 -1.00444346164616  0.71414651215121
 1  13.89606999349935 -1.74434761366137 -0.87305355945595
 1  15.28044790129013 -0.91908523622362 -1.13453585658566
 1  13.31142038763876  2.55938423762376 -0.50253013031303
 1  14.17715532773277  1.57651406590659  1.08900772807281
 1  16.41442016911691  1.28925438693869 -0.41509932493249
 1  15.53731852735273  1.69563781518152 -1.83106663756376
 1  15.05054651675167  4.29323253095310 -0.86345762576258
 1  15.86108574247425  3.83640960036004  0.54424688348835
 1  17.98992880968097  3.14329783828383 -0.98120250815082
 1  16.69058619541954  5.22420969986999 -2.71708598749875
 1  18.08031042094209  4.02324871807181 -3.14089152275227
 1  16.53728841414141  3.23701861306131 -3.21532208540854
 1  17.79522739673967  5.24093474647465  0.65804497019702
 1  18.83331094189419  5.51057728422842 -0.93702584368437
 1  17.26711928172817  6.20981539163916 -0.56658501060106
 1 -5.07387527212721 -7.84021512091209  0.00216590059006
 1 -6.35396588788879 -7.49610899229923  0.67503734703470
 1 -4.71166338373837 -6.73712358855886  1.54349721812181
 8 -7.97313020832083  6.91984201560156 -0.51167459585959
 1 -9.40505388918892  5.97803521922192 -1.59562803030303

