%nproc=3
%Mem=2GB
# td=(NStates=1) iop(3/107=0140000000,3/108=0140000000) iop(3/107=0140000000,3/108=0140000000) CAM-B3LYP/6-31G(d,p) 

TD

0 1
12 -5.56308203940394  1.30887091479148  0.12304497329733
 6 -4.89208933073307 -2.07046101080108 -0.33720678577858
 6 -3.40658211811181  1.24566710821082  2.78637007520752
 6 -6.20462688498850  4.54316233933393  0.62364472567257
 6 -7.91843276127613  1.19145782818282 -2.39887398129813
 7 -4.28260534503450 -0.15007093019302  1.04557472447245
 6 -4.17854307470747 -1.58208939033903  0.67624134263426
 6 -3.17821922362236 -2.22868406700670  1.45848143674367
 6 -2.85600975637564 -1.28403907360736  2.63386017261726
 6 -3.56672347234723 -0.02100125272527  2.07982864146415
 6 -3.62776488448845 -1.52355904850485  4.03854171357136
 6 -1.96116095939594 -2.70338433163316  0.60174436053605
 6 -0.97507527042704 -3.62706779467947  1.41405528242824
 6  0.23743961136114 -3.99688456055606  0.56838499959996
 8  0.53939779367937 -3.52569225802580 -0.55066508190819
 8  0.94903658585859 -4.84613975877588  1.30476646514651
 7 -4.88349690069007  2.60153038973897  1.49698638523852
 6 -4.00542462966297  2.35987400340034  2.56308153395340
 6 -3.74386492369237  3.66939702220222  3.25735467986799
 6 -4.54763051875188  4.64285275077508  2.56796268046805
 6 -5.31260062246225  3.94104878137814  1.51496664856486
 6 -2.89524814971497  3.86065314901490  4.43222709320932
 6 -4.59874257425743  6.08326836103610  2.90337577437744
 8 -3.85697818511851  6.65181001120112  3.70298427092709
 7 -6.77636928652865  2.64789272177218 -0.71274394209421
 6 -6.76411860966097  3.90494089958996 -0.43887209030903
 6 -7.88521366156616  4.58849990679068 -1.19949275837584
 6 -8.39185221802180  3.67376650675068 -2.02784733713371
 6 -7.64476828832883  2.45660383448345 -1.83613738353835
 6 -8.29605188388839  5.99247061676168 -1.10365149974998
 6 -9.35368184658466  3.85219615791579 -3.18477102570257
 6 -8.47216619731973  3.78609997309731 -4.52321556825683
 7 -6.27294306160616 -0.11441662186219 -1.10022104250425
 6 -7.24701830853085 -0.04605551115112 -2.01801772437244
 6 -7.46500961756176 -1.29469462216222 -2.70810383498350
 6 -6.53658914261426 -2.18158193149315 -2.09757896779678
 6 -5.83845176867687 -1.37583161266127 -1.10567843254325
 6 -8.40479585428543 -1.57531732033203 -3.89638055745575
 6 -6.09641326842684 -3.49769887588759 -2.01431682558256
 8 -6.50735397599760 -4.52830780088009 -2.57466771247125
 6 -4.98406866036604 -3.43260502720272 -0.91409803060306
 6 -5.29077620522052 -4.62134733633363  0.16166331733173
 8 -5.62739692229223 -4.37900383378338  1.25045216551655
 8 -4.93400336353635 -5.84288817291729 -0.35304947634764
 6 -5.24426777597760 -6.93694728582858  0.51845938073807
 6  2.31873855545555 -5.19398565876588  0.71352933423342
 6  3.41067437753775 -4.28564006330633  1.05069635543554
 6  4.04158326202620 -3.53436325722572  0.26533890889089
 6  3.56408130543054 -3.29213240164016 -1.14650231903190
 6  5.21729593559356 -2.75148941714171  0.77947979887989
 6  6.48938454315431 -2.92187714071407  0.05302562846285
 6  7.55214434113411 -2.01856350215021  0.60648448304830
 6  8.91210981948195 -2.05216119811981 -0.14540125332533
 6  9.48813589368937 -3.47557746024602  0.04625775077508
 6  9.83030846644665 -0.90190081098110  0.30456842024202
 6  11.12601575887589 -0.79281207630763 -0.41493680428043
 6  12.02494011461146  0.35161435193519  0.07191797999800
 6  13.34415380948095  0.56367605450545 -0.73779353655366
 6  14.32535070807081 -0.57272800280028 -0.49223590879088
 6  14.06469640784078  1.81606637883788 -0.25543318571857
 6  15.18112739363936  2.24943687898790 -1.07068417611761
 6  15.88879849954995  3.57933044304430 -0.51872296529653
 6  17.10242463716371  4.00186910241024 -1.25869691749175
 6  16.91361034313432  4.08740430313031 -2.79314163416342
 6  17.65264868406841  5.33200132613261 -0.75714667166717
 1 -2.72374788068807  1.18333519711971  3.59270688188819
 1 -6.33164404730473  5.73368957115712  0.90243000570057
 1 -8.81957715681568  1.20882514401440 -3.22879826072607
 1 -3.58700576577658 -3.09281239793979  1.65314105620562
 1 -1.82243332933293 -1.11027863606361  2.62028419441944
 1 -3.37636696189619 -2.60478705960596  4.61444139003900
 1 -3.43930053015302 -0.72163428112811  4.64630076597660
 1 -4.68420009580958 -1.89463738173817  3.67667088968897
 1 -2.25685285088509 -3.18479152415241 -0.31435917051705
 1 -1.41345204490449 -1.78569719711971  0.25070591189119
 1 -0.63756814691469 -2.94889486178618  2.30930547164716
 1 -1.43984346294629 -4.56898373467347  1.84959399609961
 1 -1.91947059915992  2.95122980968097  4.45056743784378
 1 -2.52311996599660  4.93654329342934  4.47471313421342
 1 -3.44482441494149  3.60944413851385  5.57241421822182
 1 -5.30392425172517  6.66519450195019  2.30025214101410
 1 -10.10829481198120  3.10524767666767 -3.25270642524252
 1 -9.74607209010901  4.93918145264526 -2.81295428802880
 1 -9.19412517341734  3.61247914791479 -5.36779308990899
 1 -8.02991695769577  4.74968690929093 -4.67737741954195
 1 -7.82599287418742  3.06005031893189 -4.61694580928093
 1 -7.87699428102810 -0.90367362506251 -4.67415738473847
 1 -8.21224085198520 -2.60696775707571 -4.21030037393739
 1 -9.42353560266027 -1.29264589918992 -3.65711999709971
 1 -4.28507028302830 -3.77074289728973 -1.30609553965397
 1  2.71362930673067 -6.25030232333233  1.22445083298330
 1  2.36019934653465 -5.38441696809681 -0.33134856995700
 1  3.72110809320932 -4.23302342464246  2.12652101620162
 1  2.46430388228823 -3.63125468036804 -1.35133778387839
 1  3.62706004400440 -2.20248494909491 -1.55428364586459
 1  4.09231173857386 -3.91804366066607 -1.97702916021602
 1  4.84268813781378 -1.60093563816382  0.92397278837884
 1  5.48102046044604 -2.89141345854585  1.86536042234223
 1  6.66655587558756 -3.88847314681468  0.25838516021602
 1  6.57129596909691 -2.96163837983798 -0.95055474167417
 1  7.36029683128313 -0.92228878317832  0.53384213751375
 1  7.62767167736774 -2.08117636613661  1.73155062746275
 1  8.79247514711471 -2.06688472917292 -1.29948816751675
 1  8.81367353275328 -4.09905876577658 -0.31116358655866
 1  10.51245427482748 -3.42547590229023 -0.26044362626263
 1  9.40473722132213 -3.76447217581758  1.15101606460646
 1  9.20055111601160 -0.09194078367837  0.17293646804680
 1  10.12325128372837 -0.93165148444844  1.43355429272927
 1  11.62806473757376 -1.80917823952395 -0.17855716351635
 1  11.00633657385739 -0.59388102360236 -1.41227207090709
 1  11.36591660976097  1.17887095889589  0.32040483008301
 1  12.21753251195119  0.31852313561356  1.21021019611961
 1  13.02501324362436  0.58229297209721 -1.76142234703470
 1  14.73470369756976 -0.51914493179318  0.54275937343734
 1  13.67929831633163 -1.68351153005301 -0.77533378747875
 1  14.97354721122112 -0.72263559125913 -1.20538294129413
 1  13.29615886148615  2.62148044724472 -0.26248612591259
 1  14.20548816101610  1.72052846734673  0.91366019331933
 1  15.99224795189519  1.25042050355036 -0.91012882788279
 1  14.66245104060406  2.14432268366837 -2.03687721862186
 1  15.30547200930093  4.51801500920092 -0.41260254025403
 1  16.31340097399740  3.41977793719372  0.60546300510051
 1  17.74052386918692  3.16195970447045 -0.81519590749075
 1  16.02101923872387  4.74549182808281 -3.04376865576558
 1  17.83897628752875  4.24727112031203 -3.22282971657166
 1  16.39892457775778  3.16964187538754 -3.28873942714271
 1  17.77599547354735  5.49107976097610  0.25774494019402
 1  18.68868647944795  5.53989021552155 -1.08103024412441
 1  16.77921049084908  5.93679808990899 -1.10632898499850
 1 -4.98835672027203 -7.90813191259126  0.14284996899690
 1 -6.25485597689769 -6.90007938933894  0.68291813511351
 1 -4.89398161556156 -6.70584046024602  1.59109197759776
 8 -7.72792568786879  6.81389142054205 -0.38046147454745
 1 -9.10256364016402  6.37133454915492 -1.73521198869887

