%nproc=3
%Mem=2GB
# td=(NStates=1) iop(3/107=0140000000,3/108=0140000000) iop(3/107=0140000000,3/108=0140000000) CAM-B3LYP/6-31G(d,p) 

TD

0 1
12 -5.64412014321432  1.15752578027803  0.24621729052905
 6 -5.00927104890489 -2.20105407010701 -0.40761382648265
 6 -3.43369482938294  1.12356489798980  2.64826626482648
 6 -6.13219964226423  4.55159318241824  0.68005036623662
 6 -7.93562448044804  1.17875655805581 -2.38156225012501
 7 -4.37235431993199 -0.23831975507551  1.04579474647465
 6 -4.17721294169417 -1.55951713311331  0.62167588608861
 6 -3.18087948964896 -2.35177637623762  1.47602319091909
 6 -2.97644179957996 -1.35344601430143  2.64148093469347
 6 -3.62422922292229 -0.08098725132513  2.19991064966497
 6 -3.59640174817482 -1.72113880648065  4.03231109050905
 6 -1.89275411871187 -2.57545153835384  0.70335452155216
 6 -0.93361112401240 -3.42634772267227  1.45477935483548
 6  0.27955382278228 -3.79821469356936  0.67132529362936
 8  0.46738059195920 -3.50303999279928 -0.57585760116012
 8  0.99161084328433 -4.72847799259926  1.22277826632663
 7 -4.93192174317432  2.61843207990799  1.49080576717672
 6 -4.01828591579158  2.37141515751575  2.42984821062106
 6 -3.72100263746375  3.64329441194119  3.13408235263526
 6 -4.55633138883888  4.58267673317332  2.55390127432743
 6 -5.26135549794980  3.93978865536554  1.57266241814181
 6 -2.70245887078708  3.74672175587559  4.24542841334133
 6 -4.44484718471847  6.00601063526353  2.85581101790179
 8 -3.81760424772477  6.55439026922692  3.78681265376538
 7 -6.82168381798180  2.64121205370537 -0.66559922762276
 6 -6.81891408920892  3.96768717421742 -0.38727693079308
 6 -7.86987212741274  4.59922097889789 -1.15864867396740
 6 -8.36707974077408  3.67899702980298 -2.09016356875688
 6 -7.66201001250125  2.49722789688969 -1.73725749554955
 6 -8.35485776447645  6.01638300800080 -1.12982411701170
 6 -9.44981145954596  3.82929386768677 -3.18974152275228
 6 -8.86260524122412  3.81078244134413 -4.60553380008001
 7 -6.28834460176018 -0.15227040724072 -1.07806882728273
 6 -7.26866047274727 -0.00333123872387 -2.08572449504950
 6 -7.59019213581358 -1.22833798649865 -2.72175520012001
 6 -6.71298678237824 -2.12414618791879 -2.03146235613561
 6 -5.96761468496850 -1.40848487798780 -1.09982784748475
 6 -8.59291466616662 -1.61424121272127 -3.82013293269327
 6 -6.31491511861186 -3.59183828982898 -2.00184557845785
 8 -6.88602184278428 -4.57846281638164 -2.51828207390739
 6 -5.08942919641964 -3.51919368606861 -0.96110273107311
 6 -5.30426755435544 -4.58892409400940  0.10988813981398
 8 -5.72542672527253 -4.39520545394539  1.23046016631663
 8 -5.06565652885289 -5.86251013511351 -0.37151132253225
 6 -5.24076742594259 -7.02177576867687  0.41734926972697
 6  2.22942962456246 -5.05930219041904  0.49592757405741
 6  3.42706601670167 -4.20644214351435  0.98141942774277
 6  4.11571067476748 -3.35358517941794  0.11384375937594
 6  3.72933783108311 -3.14097728612861 -1.18319598839884
 6  5.15510971697170 -2.47488175637564  0.78106995789579
 6  6.60496610131013 -2.66361131413141  0.14225455135514
 6  7.66495562226223 -1.84094574037404  0.69931376597660
 6  9.07864647314732 -2.09201518351835  0.04011729852985
 6  9.62694977507751 -3.48457836033603  0.22794591959196
 6  10.01115655125513 -0.99284990589059  0.51634959835984
 6  11.36363952125213 -0.93441623672367 -0.17349265986599
 6  12.18023564416442  0.24713390389039  0.14664545274527
 6  13.48508790289029  0.42161184808481 -0.71775153235324
 6  14.50806897989799 -0.78576930693069 -0.43677036223622
 6  14.18405834403440  1.70397516971697 -0.19827747014701
 6  15.45648492939294  2.14863679897990 -0.93445055275528
 6  15.95544516421642  3.55003751375138 -0.66208730173017
 6  17.30338473317332  4.07936685218522 -1.38136918471847
 6  17.17869685178518  4.25921148384838 -2.95969828982898
 6  17.70961438063806  5.31345947194720 -0.73212416941694
 1 -2.65837134303430  1.03163002660266  3.34902251345135
 1 -6.27449833273327  5.61799800200020  0.65505526822682
 1 -8.67188238733873  1.19218347984799 -2.99926530743074
 1 -3.74035110031003 -3.17547066376638  1.82456819891989
 1 -2.00546163216322 -1.01036864506451  2.75195736173617
 1 -3.26251557675768 -2.74471105200520  4.27101704760476
 1 -3.27714431453145 -0.89134125182518  4.85487162306231
 1 -4.79486116191619 -1.74588250625062  3.94598782138214
 1 -2.27445461106111 -3.09810285528553  0.01008327372737
 1 -1.41065176487649 -1.68069669706971  0.19331017231723
 1 -0.56568095819582 -2.73643361566157  2.25468000910091
 1 -1.12881235983598 -4.38491532783278  2.02495153185319
 1 -1.69425807790779  3.23550823752375  4.05939832093209
 1 -2.35965361936194  4.88935857495750  4.21842750565057
 1 -3.12426235873587  3.46025922002200  5.14660163696370
 1 -4.97627148644864  6.63577155965597  2.06619873567357
 1 -9.98500248274827  2.87933508540854 -3.07786894149415
 1 -10.17530501340134  4.64197173167317 -3.04959795239524
 1 -9.62768852975297  3.84029192919292 -5.41354766536654
 1 -8.19065303130313  4.82594453505351 -4.73188287008701
 1 -8.45190546544655  2.62526684058406 -4.82357647234723
 1 -8.25011159275928 -1.03867712541254 -4.80969093809381
 1 -8.74722435033503 -2.56499355965597 -4.02677202110211
 1 -9.53522677177718 -1.26319295389539 -3.46031031613161
 1 -4.25782755875588 -3.93387921092109 -1.36211114121412
 1  2.43390133393339 -6.23331062416242  0.95663405130513
 1  2.16301962856286 -5.04487301370137 -0.51676711181118
 1  3.83259924232423 -4.04763488578858  1.93675203930393
 1  2.79704715661566 -3.22213376827683 -1.70406305640564
 1  3.92439977797780 -2.22915761636164 -1.48738695619562
 1  4.39886239363936 -3.66648850515052 -1.91712316961696
 1  4.84039790879088 -1.44382992759276  0.51739213031303
 1  5.25040739913991 -2.44273859105911  2.02164605090509
 1  6.97362658265827 -3.66635093459346  0.18639796149615
 1  6.43694253375337 -2.62826504250425 -0.93208289448945
 1  7.31000180178018 -0.67046360066007  0.62748150145015
 1  7.68495740594059 -1.94366261476148  1.70490796319632
 1  8.99872577217722 -1.88587662836284 -1.09430764946495
 1  8.93578574397440 -4.32287114701470 -0.16210868106811
 1  10.63577660706071 -3.76590994569457 -0.14643222512251
 1  9.44528127572757 -3.64188991759176  1.24199516251625
 1  9.61287234813481  0.17086549694969  0.37012618701870
 1  10.19389834843484 -0.94143246254625  1.59209014631463
 1  12.03526545764577 -1.81453877557756 -0.05979528732873
 1  10.92678861906191 -0.83278491399140 -1.37104794849485
 1  11.70861087918792  1.22178525032503  0.12992578217822
 1  12.62629338803880  0.23046432973297  1.31972114721472
 1  13.08327907020702  0.73077782058206 -1.74193039783978
 1  14.52271249844985 -0.78895191249125  0.61295639313931
 1  14.08300868736874 -1.68764194309431 -0.93696995109511
 1  15.39815967246725 -0.52158548624862 -0.82410481348135
 1  13.35534478007801  2.59463776297630 -0.14423430073007
 1  14.36093370557056  1.53518993349335  0.79231805910591
 1  16.16916564366436  1.40178564006401 -0.72017983298330
 1  15.11077587308731  2.22973122452245 -2.16536006690669
 1  15.14388585068507  4.21358456615662 -0.76752803280328
 1  16.13610324422442  3.61218717811781  0.35335779457946
 1  18.02287210401040  3.23193670217022 -1.25732011991199
 1  16.55616275307531  4.98951623052305 -3.26473075197520
 1  18.30343273317332  4.53236963016302 -3.22537997159716
 1  17.03166785208521  3.41807671887189 -3.41999255245525
 1  17.88476635063506  5.35768642164216  0.34595376107611
 1  18.75511312211221  5.77850407690769 -1.24512665376538
 1  16.88533110291029  6.09950436053605 -0.92491084318432
 1 -4.85014289888989 -7.72398349774978 -0.23063737973797
 1 -6.29385987728773 -7.16048542994299  0.51401124442444
 1 -4.92890510791079 -6.86725660186019  1.38273114151415
 8 -7.94041693699370  6.92307233863386 -0.41965539393939
 1 -9.21671505530553  6.26744416011601 -1.97996646414641

