%nproc=3
%Mem=2GB
# td=(NStates=1) iop(3/107=0140000000,3/108=0140000000) iop(3/107=0140000000,3/108=0140000000) CAM-B3LYP/6-31G(d,p) 

TD

0 1
12 -5.59312504370437  1.18868889658966  0.20950361916192
 6 -4.98945906770677 -2.18379234393439 -0.39159222432243
 6 -3.35767722762276  1.13769631113111  2.76942838103810
 6 -6.18022444474447  4.57866588968897  0.72029439063906
 6 -7.93043396139614  1.21435011741174 -2.36798089198920
 7 -4.35550263476348 -0.26877280038004  1.05406557355736
 6 -4.28576379677968 -1.61248242964296  0.71766548504850
 6 -3.17009841154115 -2.38733993259326  1.48420400900090
 6 -3.00527468286829 -1.31765243494349  2.57988477507751
 6 -3.63123992399240 -0.06513566616662  2.14144480308031
 6 -3.43544565256526 -1.89233592619262  4.00003786318632
 6 -1.94383922722272 -2.73684767796780  0.64067825392539
 6 -0.97595535843584 -3.53463855175518  1.34034791169117
 6  0.26297216461646 -3.96616148824882  0.57223538463846
 8  0.45460931483148 -3.49771946074607 -0.52421243664366
 8  0.99091077327733 -4.79066421122112  1.31789777827783
 7 -4.85982453345335  2.62005224192419  1.50112679927993
 6 -3.98747283448345  2.41275929192919  2.50694592039204
 6 -3.70450098729873  3.70530061256126  3.25440438483848
 6 -4.52923867956796  4.62902136763676  2.60009589378938
 6 -5.24163352575258  3.96234091059106  1.49309446134613
 6 -2.86047467236724  3.85728281198120  4.37350122062206
 6 -4.54223692369237  6.05161519571957  2.82537797459746
 8 -3.97611009830983  6.61230606080608  3.80668464096410
 7 -6.87924957455746  2.67016494899490 -0.65418808650865
 6 -6.90561275907591  3.99605001050105 -0.36199440254025
 6 -7.93200834103410  4.64956601340134 -1.20230303940394
 6 -8.38078111091109  3.67394652475248 -2.07007155955596
 6 -7.76937074857486  2.42457063116312 -1.69989375917592
 6 -8.33879615831583  6.05781715141514 -1.19940107470747
 6 -9.32247872627263  3.83143408170817 -3.19249179777978
 6 -8.50810979167917  3.94972633573357 -4.53870711741174
 7 -6.33418918621862 -0.11583676387639 -1.04276529692969
 6 -7.39781338803880 -0.05501640724072 -1.96763268586859
 6 -7.53486660326033 -1.28901405410541 -2.72361538613861
 6 -6.66037152085209 -2.20807458075808 -2.12961217111711
 6 -5.95063298679868 -1.38901293079308 -1.06657452215222
 6 -8.41009638433843 -1.54900468906891 -3.85508642804280
 6 -6.10378400550055 -3.60178928492849 -2.05909130303030
 8 -6.51382462306231 -4.59203417351735 -2.70626087178718
 6 -4.96222647614761 -3.63526529322932 -0.93789040984098
 6 -5.12256938453845 -4.68270347194720  0.06005315631563
 8 -5.43945812841284 -4.53662959635964  1.26383350365036
 8 -4.91274123732373 -5.90300418451845 -0.48181235263526
 6 -5.13979732893289 -6.97431102220222  0.40767830263026
 6  2.20802748434843 -5.09785604580458  0.67030501180118
 6  3.27966127622762 -4.06390789008901  1.06231751755176
 6  3.86422552625262 -3.21203102400240  0.29167154215422
 6  3.63915881318132 -3.08862205060506 -1.16406407520752
 6  5.04174838083808 -2.36493076127613  0.77285913681368
 6  6.35631123582358 -2.72529748274827  0.17494782068207
 6  7.46095522222222 -1.68863050885088  0.64374820942094
 6  8.86845545404540 -1.91888787078708  0.01339462626263
 6  9.38490557065706 -3.25395529802980  0.34003712871287
 6  9.85052048764877 -0.71687230813081  0.47657562096210
 6  11.18358151545154 -0.67488028312831 -0.40958626922692
 6  12.10816843744374  0.33068225872587  0.04334512271227
 6  13.39499889398940  0.46433612051205 -0.69123888108811
 6  14.43525169816982 -0.67907863786379 -0.46871355655566
 6  14.00192013021302  1.85746051825183 -0.34735237763776
 6  15.41367064796480  2.08682061736174 -1.11597870557056
 6  16.00397001670167  3.50471298129813 -0.65136622962296
 6  17.41540593529353  3.84571348684869 -1.31503255105511
 6  17.24235321742174  3.81266682938294 -2.87723004300430
 6  17.96460988018802  5.11094922092209 -0.80082103910391
 1 -2.61419692559256  0.90262712631263  3.55157276847685
 1 -6.54405528842884  5.67214341654165  0.88175793849385
 1 -8.67218241734173  1.29400366186619 -3.06970235113511
 1 -3.82265933113311 -3.43037615431543  1.91238698079808
 1 -1.70467155315532 -0.99710731893189  2.54178634463446
 1 -2.89864919011901 -2.80488706960696  4.21721166706671
 1 -3.21808840894089 -1.18213033073307  4.86855299119912
 1 -4.50733240904090 -2.10382830083008  3.99593281588159
 1 -2.24370153575358 -3.31374441944194 -0.21952968756876
 1 -1.29655035473547 -1.86719534693469  0.37494833613361
 1 -0.60642503260326 -3.23636360866087  2.39015355645565
 1 -1.54342382098210 -4.58469530583058  1.60158919561956
 1 -1.72386103820382  3.57144183088309  4.28399078017802
 1 -3.02758041204120  4.87454709380938  4.70678634153415
 1 -3.01625155765577  3.21307450155016  5.30580755755576
 1 -5.06208006730673  6.66739472197220  2.25577769356936
 1 -9.76940092259226  2.80956810871087 -3.28381953655366
 1 -10.18308579147915  4.64732226672667 -3.14832782538254
 1 -9.03161892279228  4.04293219321932 -5.41640795139514
 1 -7.87355132113211  4.87723966456646 -4.38126780858086
 1 -7.92121239613962  2.96295060896090 -4.56027014171417
 1 -8.25864244584458 -1.00799405710571 -4.68866883588359
 1 -8.30979060696069 -2.67664472477248 -4.17659700360036
 1 -9.59658290739074 -1.59210584518452 -3.56553083818382
 1 -4.18098987498750 -3.84930075307531 -1.64136906700670
 1  2.58781672547255 -6.12764005710571  0.79611799969997
 1  2.08940226682668 -4.82946147254725 -0.41590702580258
 1  3.80063604600460 -4.16294641694169  2.01661002510251
 1  2.63121057295730 -3.11681323622362 -1.33721637173717
 1  3.98192553055306 -1.97472217281728 -1.33944216171617
 1  4.22286479387939 -3.77558941524152 -1.72881433873387
 1  4.91448531753175 -1.29264480908091  0.57238762986299
 1  4.94118647704770 -2.23370768796880  1.96171005730573
 1  6.76313553355336 -3.67620191969197  0.45265458715872
 1  6.66591543104310 -2.94023623962396 -0.91061074727473
 1  7.21164196579658 -0.63814036833683  0.39137789108911
 1  7.37794670487049 -1.75907415591559  1.74321179357936
 1  8.67317321692169 -1.75522356305631 -1.21399961866187
 1  8.52325449084909 -3.94172303220322  0.17286481628163
 1  10.27001003040304 -3.39982333703370 -0.21582916481648
 1  9.54462120972097 -3.59635536413641  1.40208117111711
 1  9.54365542644264  0.24285269566957  0.26860603500350
 1  10.01670062866287 -0.88045636493649  1.59756069336934
 1  11.71533346444645 -1.60048737043704 -0.39044835263526
 1  10.70659659985999 -0.50664229972997 -1.40858170187019
 1  11.59122914101410  1.42830590239024 -0.06479368976898
 1  12.09879063776378  0.10639192249225  1.26085526062606
 1  13.33786452875287  0.45635037783778 -2.01313751855186
 1  14.66518674587459 -0.87601061836184  0.57046214371437
 1  13.95873626012601 -1.66722990189019 -0.73823007710771
 1  15.17936779327933 -0.46234956265627 -1.12584498749875
 1  13.22837208280828  2.75348364756476 -0.80167004430443
 1  14.09333694589459  1.87838425292529  0.67127595489549
 1  16.32578130523052  1.37553301480148 -0.86730454545455
 1  15.19956475197520  2.20123837523752 -2.12012554345435
 1  15.34276573867387  4.11143435113511 -0.90601188118812
 1  16.13834346824682  3.39600555995600  0.33951641044104
 1  17.92716253305331  2.82966647514751 -1.10511489938994
 1  16.34645178197820  4.48172545144514 -3.12192647154715
 1  18.13780617051705  4.13056945014501 -3.28947638123812
 1  17.20990567586759  2.80710562176218 -3.29293984718472
 1  17.81885975997600  5.24012466546655  0.33768293399340
 1  19.20938854965496  5.11086731323132 -1.10937307840784
 1  17.43166573637364  5.99891430153015 -1.11366971907191
 1 -4.94500238483848 -7.82684378377838 -0.30463477947795
 1 -6.08692918421842 -7.04916429782978  0.84831467476748
 1 -4.39354157155716 -7.17395727192719  1.35040790919092
 8 -7.87294018931893  6.92513254465447 -0.47676110451045
 1 -9.22556594039404  6.15269268496850 -1.81729019651965

