%nproc=3
%Mem=2GB
# td=(NStates=1) iop(3/107=0140000000,3/108=0140000000) iop(3/107=0140000000,3/108=0140000000) CAM-B3LYP/6-31G(d,p) 

TD

0 1
12 -5.75509124032403  1.21871189888989  0.22464513331333
 6 -5.04801492329233 -2.13165713041304 -0.29800286538654
 6 -3.43229468936894  1.06429897139714  2.82469390759076
 6 -6.17658408070807  4.52925094819482  0.59106146734673
 6 -8.17191810981098  1.13020170257026 -2.30263435733573
 7 -4.37290437493749 -0.25158108120812  1.13884405140514
 6 -4.32934815521552 -1.55723690509051  0.71632535103510
 6 -3.26828823052305 -2.34807600620062  1.44336992559256
 6 -3.02672682808281 -1.41609227892789  2.64419120572057
 6 -3.62713951395139 -0.08242739533953  2.18003866246625
 6 -3.81545365336534 -1.86701339393939  3.93772163156316
 6 -2.00152499579958 -2.65253924712471  0.62884707080708
 6 -1.00025778867887 -3.54524961286129  1.35468934583458
 6  0.24506037343734 -3.82964783688369  0.61378954005401
 8  0.56012986688669 -3.51673136193619 -0.48524854025403
 8  1.11233291549155 -4.71056620142014  1.32183817231723
 7 -4.94319287028703  2.48647888458846  1.61145783238324
 6 -4.08979306650665  2.34408242424242  2.54972019781978
 6 -3.68958949614961  3.62521260376038  3.23649259365937
 6 -4.54357011271127  4.58266673217322  2.52306819101910
 6 -5.33202256465647  3.83795847234723  1.53210836273627
 6 -2.85327395229523  3.68873595729573  4.39168303880388
 6 -4.64508720872087  5.98500853505351  2.81979741654165
 8 -4.05964845214521  6.65382021222122  3.64477845034503
 7 -6.94505615521552  2.64718265076508 -0.77030969866987
 6 -6.83790598839884  4.02857326282628 -0.41951015411541
 6 -7.89335447564756  4.59330038683868 -1.20601341044104
 6 -8.42415544834483  3.67046617671767 -2.05629018141814
 6 -7.83871768326833  2.43369154325433 -1.70689445924592
 6 -8.20345262396240  6.03260463016302 -1.15642677727773
 6 -9.44533101150115  3.84582552085209 -3.18202075067507
 6 -8.78275725642564  3.95759712281228 -4.57515076177618
 7 -6.39483525082508 -0.08237341754175 -0.97819884028403
 6 -7.36441004770477 -0.03024392999300 -1.99937586018602
 6 -7.60350346694669 -1.26478163086309 -2.70389341394139
 6 -6.63725920962096 -2.15015878917892 -2.13306251615162
 6 -6.06218414191419 -1.37540156965697 -1.03017088178818
 6 -8.53303867856786 -1.45867565616562 -3.77261818121812
 6 -6.15511913901390 -3.53119222522252 -2.02203759765977
 8 -6.48404164476448 -4.53950892099210 -2.63529377507751
 6 -4.94822507600760 -3.51323309000900 -0.90805742654265
 6 -5.22742987058706 -4.60375557715772  0.05138228922892
 8 -5.66144032663266 -4.49960589398940  1.22427954825483
 8 -5.05292525572557 -5.85558944304430 -0.44014818621862
 6 -5.39036238543854 -6.94992858395840  0.41830936573657
 6  2.33825050665066 -5.05604186438644  0.82037001830183
 6  3.44475778587859 -4.05256675597560  0.97582886868687
 6  4.10694979867987 -3.26362618351835  0.19921229622962
 6  3.83351824912491 -3.22749593799380 -1.32252992179218
 6  5.09947415341534 -2.39499376757676  0.70888273917392
 6  6.60835644034403 -2.62829778277828  0.05300562646265
 6  7.65505463216322 -1.69754139993999  0.62192602720272
 6  9.11268987748775 -1.94948093009301 -0.05912262546255
 6  9.67641472157216 -3.30990089258926  0.23594671967197
 6  9.97807324292429 -0.84319494039404  0.38329629302930
 6  11.24393755105510 -0.79475227032703 -0.31675698629863
 6  12.15430305090509  0.37531672217222  0.22224301250125
 6  13.57957735183518  0.47105679257926 -0.55644540174017
 6  14.44017219021902 -0.75850658065807 -0.43265995119512
 6  14.34164410261026  1.80689546174617 -0.16525416781678
 6  15.49347862876288  2.23340527582758 -1.07119422712271
 6  16.15076469616962  3.48280079007901 -0.69875096809681
 6  17.38641303600360  3.76218513401340 -1.45238628642864
 6  17.09613859595960  3.94745030773077 -2.89792211221122
 6  18.00914433363336  5.16703482948295 -0.85212616961696
 1 -2.65899140504050  1.16780364396440  3.69205681688169
 1 -6.51408229112911  5.46209241144114  0.93389315201520
 1 -8.93804900400040  0.90414467596760 -3.00559594049405
 1 -3.79141620682068 -3.32588570527053  1.81031677377738
 1 -1.83236432243224 -1.22639024722472  2.86436860286029
 1 -3.34521384658466 -2.67834441534153  4.35604555045505
 1 -3.94607120722072 -0.91457357505751  4.63879001490149
 1 -4.92694437023702 -2.16612453045304  3.71949517211721
 1 -2.23439060466047 -3.21260430543054 -0.21154888948895
 1 -1.32419311901190 -1.78742737013701  0.33258409970997
 1 -0.73003739383938 -3.12034200650065  2.25597013811381
 1 -1.47083656225623 -4.62459929622962  1.54318335503550
 1 -1.77534618671867  3.05349003570357  4.24736711781178
 1 -2.68092574657466  4.64311395049505  4.86026168906891
 1 -3.58651858435844  3.02364555865587  5.25544252105211
 1 -5.26887074637464  6.40556853935394  2.06715883168317
 1 -10.38359234173417  3.11251840374037 -3.20242139673967
 1 -9.98316579947995  4.76642417691769 -3.00848384098410
 1 -9.38877463836384  4.30330823082308 -5.21771808240824
 1 -8.05362932893289  4.64066600720072 -4.52955263706371
 1 -8.31049132403240  2.99914422832283 -4.61102521722172
 1 -8.56657323892389 -0.63298655635563 -4.56925689468947
 1 -8.23817344524453 -2.55275233553355 -4.25750509440944
 1 -9.61052430153015 -1.64407104170417 -3.40215450055006
 1 -4.10289206520652 -3.73884970797080 -1.46127105720572
 1  2.49332727652765 -6.11623891699170  1.32951133903390
 1  2.21904523112311 -5.24204273067307 -0.30769620472047
 1  3.69286526892689 -3.88335845814581  2.08527689178918
 1  2.94122157405741 -3.75415697059706 -1.69279192929293
 1  3.94965230323032 -2.03772847344734 -1.41690990849085
 1  4.51996450385038 -3.82592444874487 -1.85800725802580
 1  4.87115098409841 -1.45368091269127  0.39130952205221
 1  5.41455381378138 -2.51617593479348  1.77425131143114
 1  6.92424164416442 -3.77316161566157  0.31335065676568
 1  6.65446428592859 -2.72446466246625 -1.05849553575358
 1  7.45908671027103 -0.48293484778478  0.62427118041804
 1  8.02446135633563 -1.98586683518352  1.70441791419142
 1  8.86457235683569 -1.76205424612461 -1.28806702540254
 1  8.96572873827383 -4.29795865576558  0.26071360116012
 1  10.48680170957096 -3.64410776547655 -0.60973855575558
 1  10.03084983258326 -3.40651638023802  1.37904886788679
 1  9.01390245114511  0.12845125552555  0.05501467586759
 1  10.22946190479048 -1.08603692299230  1.34402533983398
 1  11.80439237033703 -1.72187950965097 -0.17370667846785
 1  10.91929786998700 -0.88215985148515 -1.40504134783478
 1  11.75589560766077  1.22378545034503 -0.04144135453545
 1  12.29134989368937  0.24302558585859  1.50048922402240
 1  13.32329307160716  0.63762850565056 -1.59732593739374
 1  14.50180040724072 -0.72844586188619  0.68499359685969
 1  13.95957634413441 -1.65054823372337 -0.64937119121912
 1  15.46109596609661 -0.57429075677568 -0.78711111411141
 1  13.67786703230323  2.73655195439544 -0.34725460276028
 1  14.80615822802280  1.95981239573957  0.78355718301830
 1  16.24722344944494  1.28017347884789 -0.94223203820382
 1  15.09981477697770  2.39644789618962 -2.19819335023502
 1  15.44560602270227  4.20105331303130 -0.66552783278328
 1  16.31274090799080  3.51516747614762  0.50524298309831
 1  18.11019083588359  3.17091059955996 -1.24217860576058
 1  16.29495663246325  4.81980925982598 -2.96103038193819
 1  18.01389377927793  4.24608100130013 -3.65117255085509
 1  16.69908459375937  2.95449036023602 -3.17079763296330
 1  18.31588946294629  5.00552120512051  0.06203536923692
 1  19.06204381518152  5.61414764126413 -1.30137227832783
 1  17.26916948674868  5.92844725482548 -0.89732808490849
 1 -5.10215810041004 -7.78993009240924 -0.25215953195320
 1 -6.49963045434543 -7.06198557995800  0.77424726802680
 1 -4.71256347374737 -7.16947682388239  1.39777264566457
 8 -7.64837773307331  6.94233426482648 -0.54482791119112
 1 -9.05330871467147  6.21667908360836 -1.95029349684968

