%nproc=3
%Mem=2GB
# td=(NStates=1) iop(3/107=0140000000,3/108=0140000000) iop(3/107=0140000000,3/108=0140000000) CAM-B3LYP/6-31G(d,p) 

TD

0 1
12 -5.64934066526653  1.20768079577958  0.26740940974097
 6 -5.09731985378538 -2.20002396709671 -0.28317138223822
 6 -3.37984944484448  1.20942348384838  2.70029146734673
 6 -6.07775419771977  4.51654967806781  0.62183454465447
 6 -8.02627354535454  1.14160284268427 -2.31509560346035
 7 -4.32660974547455 -0.20674659775978  0.96272643964396
 6 -4.23328854925493 -1.60820200160016  0.62918663716372
 6 -3.27279868156816 -2.24562576117612  1.46566215481548
 6 -2.96560071547155 -1.36379704940494  2.53840062666267
 6 -3.50341714171417 -0.01490064266427  2.03238389698970
 6 -3.55717782578258 -1.79380607320732  3.92345020442044
 6 -1.97208205150515 -2.68725271847185  0.69893407950795
 6 -0.95517328022802 -3.53458854675468  1.45320919781978
 6  0.19780564796480 -3.76695156725673  0.60531869296930
 8  0.49848370227023 -3.28091778057806 -0.49971998739874
 8  0.89060074227423 -4.79204434923492  1.24190017851785
 7 -4.95916446744674  2.68574881158116  1.47000368696870
 6 -4.05258934613461  2.42942095809581  2.45269049484948
 6 -3.68852939013901  3.67112719521952  3.09247819221922
 6 -4.46322207790779  4.69675814131413  2.58854473867387
 6 -5.23379274167417  3.98875355185519  1.49573472537254
 6 -2.66430505540554  3.86023310701070  4.24349822032203
 6 -4.39355205520552  6.10886092029203  2.82712814961496
 8 -3.72417490479048  6.71568639883988  3.64177815031503
 7 -6.88245989558956  2.52055998849885 -0.62967563526353
 6 -6.92609480728073  3.94979538503850 -0.38406660976098
 6 -7.91973711391139  4.60963202000200 -1.09895270437044
 6 -8.44628766156616  3.59793892399240 -2.02735728812881
 6 -7.82020583208321  2.37444561866187 -1.73411718151815
 6 -8.39060133883388  5.96303767346735 -1.09174030863086
 6 -9.37164364276428  3.76690762906291 -3.14849739833983
 6 -8.80708968966897  3.87574893799380 -4.56026927362736
 7 -6.38865463276328 -0.15017019721972 -1.06468748914891
 6 -7.40083369006901 -0.09871077667767 -2.01290721332133
 6 -7.55543866046605 -1.34916006870687 -2.69721274587459
 6 -6.73049853355336 -2.19005277857786 -2.04793400330033
 6 -6.00139806330633 -1.40512454195420 -1.10449831453145
 6 -8.54147952265227 -1.61323111171117 -3.77635855525553
 6 -6.24894852195219 -3.53556266226623 -1.94186958085809
 8 -6.69163240384038 -4.61196616671667 -2.48294854055406
 6 -5.12115236873687 -3.59550131683168 -0.86934355515552
 6 -5.26435356295629 -4.67487268886889  0.15598274927493
 8 -5.63351753435343 -4.66561249464946  1.31456857715772
 8 -5.01913187638764 -5.76735061916192 -0.47381155255526
 6 -5.24922827202720 -7.03779737083708  0.19572710751075
 6  2.31615829742974 -5.17952421262126  0.78364634593459
 6  3.41515482558256 -4.14650614991499  1.11939322512251
 6  3.96995609930993 -3.27636745764576  0.21206358135814
 6  3.56445134243424 -3.14255744414441 -1.19482715151515
 6  5.09660386638664 -2.39594386258626  0.64338618951895
 6  6.52031763646365 -2.74882983598360  0.14056438233823
 6  7.60523965066507 -1.64227587338734  0.51058489308931
 6  9.03195180368037 -1.90515649764977 -0.11757847104710
 6  9.53267034713471 -3.32608251075108  0.01769489448945
 6  10.01748718431843 -0.86422704360436  0.48545650905090
 6  11.27537069436944 -0.82370516561656 -0.30779609020902
 6  12.20949857045705  0.29554874537454  0.08759954815482
 6  13.61067046114611  0.42006169306931 -0.81959171637164
 6  14.51493966696670 -0.81086181618162 -0.61486817201720
 6  14.20666060426043  1.74179895209521 -0.17486512891289
 6  15.48605788668867  2.04656659195920 -0.85296240394039
 6  16.03230284998500  3.52249475947595 -0.47056814981498
 6  17.30088448314832  3.96466538203820 -1.22454350215021
 6  17.09324830693069  4.08092365506551 -2.81138345834583
 6  18.00201362056206  5.31710983698370 -0.65915687268727
 1 -2.66651215711571  1.22530939453945  3.52051966316632
 1 -6.22080296319632  5.65532173437344  0.71074083678368
 1 -8.74434963406341  1.05987024852485 -3.22775815671567
 1 -3.73841090629063 -3.19623273997400  1.71872761486149
 1 -1.92240332633263 -1.11803941214121  2.64446661266127
 1 -3.21543086828683 -2.85296187708771  4.23791373727373
 1 -3.32072867296730 -1.17765988368837  4.82633876977698
 1 -4.72081375717572 -1.78146606460646  3.84992821542154
 1 -2.39964713031303 -3.42806585158516 -0.06016375097510
 1 -1.46165686538654 -2.00794942234223  0.22514335563556
 1 -0.72055644574457 -3.12007197949795  2.27088162926293
 1 -1.49357883648365 -4.59748658495850  1.84738377507751
 1 -1.68620727282728  3.40875556225623  4.03119550065006
 1 -2.67224487848785  4.98360799989999  4.39821548444844
 1 -3.00463039553955  3.45917911201120  5.22363934073407
 1 -5.01029488878888  6.77925590809081  2.05296741254125
 1 -10.12420640314031  3.18099525142514 -3.20486164076408
 1 -10.09736721962196  4.58491602610261 -3.04400739333933
 1 -9.72733849474947  4.13742164216422 -5.21330764136414
 1 -7.93073703970397  4.50729266986699 -4.52933261506151
 1 -8.34218449334934  2.83822813671367 -4.83544765946595
 1 -8.01165774737474 -1.14891814951495 -4.79254922392239
 1 -8.47897752565257 -2.72402946324632 -4.15404474837484
 1 -9.52483573267327 -1.27838447304730 -3.62140642574257
 1 -4.22555433143314 -3.99284510751075 -1.45937086718672
 1  2.42091003480348 -6.07665495859586  1.23369175707571
 1  1.92837616421642 -5.19944847124713 -0.34534997009701
 1  3.67357333973397 -4.12002212451245  2.07147551165117
 1  2.68168562046205 -3.46716827172717 -1.36233888398840
 1  3.64473181118112 -2.14093879447945 -1.45367358485849
 1  4.12002450985099 -3.77729958625863 -1.97855931323132
 1  4.84473834283428 -1.26162170677068  0.26649704080408
 1  5.11541389978998 -2.22130644784478  1.70436432273227
 1  6.90890011001100 -3.78139243874387  0.33697301900190
 1  6.34721356085609 -2.84575679167917 -0.96622630883088
 1  7.29924072567257 -0.73022957725773  0.38686744004400
 1  7.60066897709771 -1.71701995049505  1.71238871127113
 1  8.90190609020902 -1.62631067176718 -1.06033425212521
 1  8.75093725912591 -3.95493435333533 -0.62224469466947
 1  10.73256628602860 -3.47104045874587 -0.36317389928993
 1  9.51250799839984 -3.79887561616162  1.13655461846185
 1  9.46818787968797  0.20428883928393  0.45829500390039
 1  10.35564452305231 -1.08856717601760  1.51764270157016
 1  11.82807473857386 -1.84610193189319 -0.04429373717372
 1  10.95933187338734 -0.73113474897490 -1.38145898959896
 1  11.75228524662466  1.35305837763776 -0.13808101850185
 1  12.56917767646765  0.17428871217122  1.18690786588659
 1  13.42880362266227  0.47048179097910 -1.82154835963596
 1  14.73671389858986 -1.18544156145615  0.56492158965897
 1  14.24399478597860 -1.66567974687469 -1.10238649274928
 1  15.46688654515451 -0.80409373707371 -0.92786518951895
 1  13.57745699129913  2.57203550275027 -0.36011588888889
 1  14.23805141734173  1.40874728922892  0.95659448674867
 1  16.36560528762876  1.46577203870387 -0.76316413141314
 1  15.44986978247825  2.23641189258926 -1.92818634953495
 1  15.26287774987499  4.29206241394139 -0.68204948494849
 1  16.11775140904090  3.61972793219322  0.71497395619562
 1  18.09756957375738  3.03140664916492 -1.18140252815281
 1  16.41805894269427  4.90148742764276 -2.97768204710471
 1  18.15418780868087  4.25973236643664 -3.14025145874587
 1  16.65990067536753  3.18901381258126 -3.12297285048505
 1  18.16235410941094  5.23742439543954  0.52008117381738
 1  18.82798040884088  5.54210043654365 -1.27804994609461
 1  17.07517008680868  6.14294870497050 -0.60062841494149
 1 -4.65979386398640 -7.89518061746175 -0.29484380038004
 1 -6.31921241254125 -7.09332871427143  0.25816565986599
 1 -4.61540375777578 -7.29258913511351  1.23060592899290
 8 -7.84985788108811  6.92752278367837 -0.41423485188519
 1 -9.19308269206921  6.38510592629263 -1.69217768526853

