%nproc=3
%Mem=2GB
# td=(NStates=1) iop(3/107=0140000000,3/108=0140000000) iop(3/107=0140000000,3/108=0140000000) CAM-B3LYP/6-31G(d,p) 

TD

0 1
12 -5.60751648284829  1.29838986668667  0.13242591139114
 6 -4.98232835463546 -2.13960792549255 -0.45175824092409
 6 -3.39904136403640  1.10367290879088  2.81110254845485
 6 -6.28594501680168  4.52662068516852  0.75338769997000
 6 -8.00920183818382  1.14463314571457 -2.34365845974597
 7 -4.31873895839584 -0.22640856395640  0.92661282828283
 6 -4.26144136453645 -1.58973015441544  0.68186190469047
 6 -3.27437883958396 -2.35024622322232  1.53318890749075
 6 -3.01681583698370 -1.34433510321032  2.65546233283328
 6 -3.55221202120212 -0.03365251785179  2.13244390299030
 6 -3.44123623162316 -1.80332702530253  3.98399625902590
 6 -2.01347619091909 -2.67628162136214  0.73746793289329
 6 -1.03937170007001 -3.62361744964496  1.46969084598460
 6  0.28014388178818 -3.88767363946395  0.62337049814981
 8  0.47501135503550 -3.38473816261626 -0.42003201860186
 8  1.08767044924492 -4.67905305010501  1.32298828732873
 7 -4.91174972597260  2.55827606430643  1.54202088868887
 6 -3.94985907310731  2.36320433643364  2.53887911371137
 6 -3.77803834103410  3.61238132063206  3.25205414981498
 6 -4.53168892459246  4.56505497099710  2.55149103330333
 6 -5.23746310871087  3.91078575507551  1.48144329622962
 6 -2.80669929482948  3.86658374207421  4.33159703020302
 6 -4.74018671867187  5.98348838303830  2.97187262406241
 8 -4.08490097739774  6.60898572877288  3.94428840134013
 7 -6.80073172277228  2.63475140764076 -0.71068373607361
 6 -7.06786898469847  3.98256866236624 -0.34097230033003
 6 -7.98676381658166  4.58674973177318 -1.20613342244224
 6 -8.39217225002500  3.61874100420042 -2.07481203360336
 6 -7.67164097559756  2.40030820492049 -1.79562333213321
 6 -8.34962724142414  6.01349271897190 -1.09979111371137
 6 -9.41111759015902  3.87328826712671 -3.16531908050805
 6 -8.92386136683668  4.00623198629863 -4.60517376407641
 7 -6.27806357365737 -0.16843202340234 -1.30112113251325
 6 -7.25903951065107  0.00244933933393 -2.07406332893289
 6 -7.52551566816682 -1.33335848854885 -2.79981300590059
 6 -6.60517600130013 -2.23512728602860 -2.19447865776578
 6 -5.82806072957296 -1.43091712121212 -1.27891575627563
 6 -8.57430280498050 -1.65544533313331 -3.81460237963796
 6 -6.16919054615462 -3.52437154315432 -2.13474886878688
 8 -6.52991623222322 -4.61995696579658 -2.65961620732073
 6 -4.95096535003500 -3.58264003070307 -1.00680730153015
 6 -5.40903803140314 -4.52824802640264  0.07333448444845
 8 -5.86715089768977 -4.28363429682968  1.19229634993499
 8 -5.27249721292129 -5.83913779787979 -0.24874904630463
 6 -5.46296964616462 -6.82250584168417  0.74388192299230
 6  2.31115779737974 -5.01672793299330  0.56539452075208
 6  3.51459476957696 -4.13718521782178  0.97369865566557
 6  4.08595769946995 -3.32891271217122  0.10093246824682
 6  3.73465836313631 -3.11683487188719 -1.32614028282828
 6  5.17372157815782 -2.41888615681568  0.68717056795680
 6  6.57122272697270 -2.65568052105211  0.09071939783978
 6  7.69436856355636 -1.77872951875188  0.64889872447245
 6  9.05963457195720 -1.99401538353835 -0.02910962416242
 6  9.63901098119812 -3.47561746424642  0.17197032203220
 6  10.03643907950795 -0.87995861676168  0.51812977637764
 6  11.42147530483048 -0.90707350245024 -0.12017732833283
 6  12.26805442604260  0.26360555105511  0.28831962016202
 6  13.55871526562656  0.45449513641364 -0.56351610881088
 6  14.63278145114512 -0.68233896389639 -0.25735242044204
 6  14.27255719391939  1.75679045124512 -0.25766340874087
 6  15.53791307220722  2.10240217551755 -1.01975908360836
 6  15.95782540224022  3.54316682668267 -0.66798789178918
 6  17.34524891959196  3.86050496599660 -1.40589163696370
 6  17.08123710581058  3.99169473217322 -3.04024634463446
 6  17.82049546874687  5.25691381738174 -0.89572052905291
 1 -2.52269777567757  1.00759762336234  3.31904951615162
 1 -6.55278616151615  5.57523372557256  0.83583334603460
 1 -8.87161236033603  0.97340160166017 -3.04219960086009
 1 -3.77629469466947 -3.16056917361736  1.76315205730573
 1 -1.92980406640664 -1.35842345054505  2.54492665866587
 1 -2.83154247944795 -2.58921550245025  4.17885783168317
 1 -3.15105170527053 -1.03470558825883  4.72926906280628
 1 -4.58101977777778 -1.85422334033403  3.91739496209621
 1 -2.25944310991099 -3.08532157715772 -0.18667640224022
 1 -1.47330803050305 -1.89215784318432  0.41778261956196
 1 -0.71885627572757 -3.16665663796380  2.35680022112211
 1 -1.57329680828083 -4.63825066136614  1.61102013871387
 1 -1.88324697679768  3.27120180688069  4.14565694679468
 1 -2.92078973297330  4.90398003710371  4.46102176507651
 1 -2.91846177867787  3.28654184828483  5.22360933773377
 1 -5.23574743404340  6.50676865936594  2.35508762456246
 1 -10.24900888338834  3.15572272417242 -3.16228738333833
 1 -9.91282876577658  4.74550208470847 -2.99484247684768
 1 -9.73051881278128  3.95427332733273 -5.43134944554455
 1 -8.28080204620462  4.74707664826483 -4.77481716351635
 1 -8.35441571647165  3.08561287518752 -5.14530864556456
 1 -8.49669625122512 -0.64359761746175 -4.50859082808281
 1 -8.29358898679868 -2.53635069536954 -4.20301964586459
 1 -9.58229147824782 -1.79037567216722 -3.33526781188119
 1 -4.11794357035704 -4.04875069806981 -1.41347627772777
 1  2.40300824462446 -6.20717801090109  0.85725411331133
 1  1.98318164476448 -5.01226975337534 -0.44635007010701
 1  3.80894687708771 -4.31792191449145  2.09351771587159
 1  2.76122357425743 -3.29170072497250 -1.47633028312831
 1  3.62493983198320 -2.10264496509651 -1.40256847434743
 1  4.42117462486249 -3.78829068536854 -1.94216567386739
 1  4.98492236123612 -1.25189073367337  0.69269966106611
 1  5.37259961836184 -2.66591090829083  1.78413229952995
 1  6.99859907990799 -3.62278657815782  0.00775009670967
 1  6.50529936943694 -2.63906612261226 -1.11829151535153
 1  7.30317111871187 -0.63544009830983  0.51890064336434
 1  7.76083499369937 -1.88925717421742  1.69639711211121
 1  8.93204910451045 -1.94541258195820 -1.15115333403340
 1  9.04927709310931 -4.10474933483348 -0.38638110831083
 1  10.45380841024102 -3.37467082178218 -0.14997257915792
 1  9.73300004760476 -3.61156688528853  1.20030099309931
 1  9.39485054595460 -0.02830442004200  0.20199937433743
 1  10.12135109370937 -0.99469778907891  1.61951288858886
 1  11.93948587968797 -1.75218253995400 -0.01962126992699
 1  11.29824576477648 -0.86346798229823 -1.23044388808881
 1  11.46138615671567  1.13105617741774 -0.05504271467147
 1  12.60715147384738  0.15232651595160  1.29606878197820
 1  13.36879762206221  0.44980972377238 -1.61608781358136
 1  14.56457668486849 -0.79602261956196  0.74693979147915
 1  14.21947233373337 -1.54145732463246 -0.83060931503150
 1  15.60847070357036 -0.46002933063306 -0.83018542154215
 1  13.56506575217522  2.54984328352835 -0.16421629892989
 1  14.60257786998700  1.80956737123712  0.82511133843384
 1  16.24773350045004  1.38598405990599 -0.77634544954495
 1  15.43387818331833  2.09033728512851 -2.13755728662866
 1  15.22830429252925  4.20815402310231 -1.16837811781178
 1  16.14292392629263  3.78736469586959  0.47492995179518
 1  18.12034185098510  3.13312682118212 -1.36038042594259
 1  16.28715585238524  4.73599087798780 -3.36973125202520
 1  17.95159754965497  4.20269666286629 -3.49395682928293
 1  16.85742042734273  3.01208611981198 -3.37890844404440
 1  18.21197907190719  5.19905055805580  0.13806297199720
 1  18.79810742154216  5.69828605510551 -1.38971111221122
 1  17.13008557835784  6.07901231133113 -1.02179053115312
 1 -5.26707459205921 -7.80598169756976  0.34906059005901
 1 -6.52970346164616 -6.67125650705071  1.00630047334733
 1 -4.97622984038404 -6.67636751295129  1.73931680008001
 8 -7.88883177847785  6.76516654805480 -0.27984141254125
 1 -9.10321370517052  6.48410582628263 -1.84798326582658

