%nproc=3
%Mem=2GB
# td=(NStates=1) iop(3/107=0140000000,3/108=0140000000) iop(3/107=0140000000,3/108=0140000000) CAM-B3LYP/6-31G(d,p) 

TD

0 1
12 -5.70569630083008  1.22738276597660  0.22038470727073
 6 -5.12045216701670 -2.13414737943794 -0.36499956505651
 6 -3.32965442534253  1.06953949544954  2.70662210041004
 6 -6.13107953025303  4.57433545664566  0.68788114931493
 6 -7.92345326332633  1.25327400980098 -2.31422551645165
 7 -4.45602268676868 -0.29848577167717  1.07819798679868
 6 -4.39067428782878 -1.62231341274127  0.72688640714071
 6 -3.31407280898090 -2.30741193979398  1.43134872347235
 6 -2.91964612001200 -1.44474514421442  2.54630141674167
 6 -3.52835963596360 -0.09748890149015  2.08625928452845
 6 -3.51519362736274 -1.90644733733373  3.83244110351035
 6 -2.00501534483448 -2.63907790099010  0.65921010711071
 6 -1.06049381228123 -3.56259134703470  1.43876775367537
 6  0.25104097149715 -3.89643451555156  0.53068122922292
 8  0.47203105700570 -3.39972966176618 -0.51323133853385
 8  1.10669235143514 -4.66893203800380  1.20809679817982
 7 -4.78731728272827  2.61157139383938  1.50145683228323
 6 -3.88399248644865  2.42387040304030  2.48531375717572
 6 -3.60284082128213  3.57360744324432  3.17271621602160
 6 -4.38730448614862  4.60009847534753  2.49315519971997
 6 -5.11303066546655  3.95729040554055  1.41989714161416
 6 -2.73380200510051  3.59062614631463  4.31949582008201
 6 -4.43626632663266  5.96885691989199  2.91381681848185
 8 -3.84044653195320  6.54467929812981  3.88833280578058
 7 -6.75273692329233  2.63263119561956 -0.66967963566357
 6 -6.92707490529053  3.96694710021002 -0.40479868296830
 6 -7.80610575077508  4.62824388118812 -1.26308911801180
 6 -8.42348538133813  3.68547767786779 -2.06134068646865
 6 -7.75303911541154  2.40593876797680 -1.66442021182118
 6 -8.25447772647265  5.99642101180118 -1.18341947654765
 6 -9.40508698709871  3.74849578787879 -3.15617816641664
 6 -8.74206318701870  4.11586294939494 -4.49158240494049
 7 -6.40983675097510 -0.15696087628763 -1.13915493589359
 6 -7.26863046974697 -0.01606251185119 -2.21743766636664
 6 -7.54011712831283 -1.38549370207021 -2.76629965456546
 6 -6.70021550525053 -2.23229700300030 -2.16320553045305
 6 -6.00349827332733 -1.43837786728673 -1.18330619531953
 6 -8.45966134083408 -1.70434022262226 -3.88904982438244
 6 -6.18326195329533 -3.58934804080408 -1.98285367926793
 8 -6.59225246584658 -4.57078204830483 -2.69317956365637
 6 -5.09369962346235 -3.53256502320232 -0.87970459125913
 6 -5.31689881748175 -4.68073327492749  0.13752090309031
 8 -5.65744992759276 -4.43099903330333  1.24708182848285
 8 -5.07531749494949 -5.92586647074707 -0.22290646204620
 6 -5.46057940714071 -7.05065865696570  0.58761629642964
 6  2.29307598919892 -5.01139739993999  0.63084106540654
 6  3.31658496859686 -4.01740323962396  1.03137442324232
 6  3.97611671537154 -3.20543036393639  0.16425880088009
 6  3.73242814011401 -2.94755794419442 -1.21763943274327
 6  5.13242744874487 -2.30136440464046  0.73954580548055
 6  6.44647025172517 -2.59440439343934  0.08112843874387
 6  7.62027115381538 -1.70242188798880  0.70888472307231
 6  8.95480408890889 -1.90722670467047  0.08508179497950
 6  9.49497657775778 -3.43903380588059  0.47409053405341
 6  9.92591802740274 -0.75391601250125  0.49131709510951
 6  11.32003516081608 -0.86315911101110 -0.23732904350435
 6  12.27110473107311  0.29096828732873  0.24954574277428
 6  13.52227162126213  0.47353704060406 -0.65168492569257
 6  14.35895406840684 -0.75424615461546 -0.46328301350135
 6  14.20071000920092  1.81333610581058 -0.15884352675268
 6  15.44797407830783  2.14150608590859 -1.03397050475048
 6  15.95882550225022  3.49087159715972 -0.63592468546855
 6  17.24506890159016  3.90542945844585 -1.46333738153815
 6  16.94749373147315  3.98793435613561 -2.97655997599760
 6  17.71354477367737  5.27938606460646 -0.88733969096910
 1 -2.47664317021702  1.00465732933293  3.59066667786779
 1 -6.40299118201820  5.70075627782778  0.78065782848285
 1 -8.78389358845885  1.12235649714972 -3.15099047994800
 1 -3.61334840004000 -3.36362947964796  1.72800854295430
 1 -1.88950003600360 -1.39888749694970  2.63395556155615
 1 -3.03846317151715 -2.88673525442544  3.89599954585459
 1 -3.32401900200020 -1.42597471517152  4.84435057095710
 1 -4.62606428222822 -1.95555347334733  3.59178240084008
 1 -2.34074123972397 -3.02095514051405 -0.35654338893889
 1 -1.42846354605461 -1.69420804820482  0.46864770607061
 1 -0.63074746484648 -3.13830380268027  2.40798533963396
 1 -1.45252473107311 -4.64611144744474  1.33852288898890
 1 -1.63441209330933  3.16151083778378  4.43141552265226
 1 -2.74350200420042  4.60701034013401  4.54200986388639
 1 -3.28778871137114  3.21375456955696  5.29666664346435
 1 -5.07287114641464  6.74266224872487  2.20071218701870
 1 -9.94647863036304  2.73124027592759 -3.15451660626063
 1 -10.01776925982598  4.67482501700170 -2.67934092669267
 1 -9.48479424032403  4.04099199919992 -5.24451076167617
 1 -8.32199616561656  5.03446538713871 -4.47235691749175
 1 -8.15095537043704  3.11428574247425 -4.64754886958696
 1 -8.34685126672667 -1.01225448314831 -4.70960092909291
 1 -8.49404903280328 -2.68556561686169 -4.45109445334533
 1 -9.54572782188219 -1.51326796139614 -3.89909419451945
 1 -4.15047682368237 -3.82308813181318 -1.50424535463546
 1  2.53350129392939 -5.87104439753975  1.04645303320332
 1  2.32069539613961 -5.10957948434844 -0.41880731583158
 1  3.47639362176218 -3.75309543184318  2.19810817491749
 1  2.81776922882288 -3.01760331523152 -1.46203885398540
 1  3.82375971397140 -1.99137383798380 -1.55357357485749
 1  4.32104461186119 -3.53650550685068 -2.09056051335134
 1  4.82718658765877 -1.25157070167017  0.43076346744674
 1  5.37009936833683 -2.47417173437344  1.77963184948495
 1  6.79128834883488 -3.55834013351335  0.44218354005401
 1  6.41881072057206 -2.49647186318632 -1.03600328652865
 1  7.35189599119912 -0.62130868516852  0.68768752205221
 1  7.73583249344934 -1.76165441394139  1.75742321472147
 1  8.81668756835684 -1.96602464316432 -1.07691591029103
 1  8.71110327572757 -4.30327918781878  0.41229875967597
 1  10.29810283968397 -3.81949530423042 -0.08415599749975
 1  9.95353210081008 -3.38647437603760  1.63107407040704
 1  9.30391145204520  0.21449986038604  0.20385956035604
 1  10.16967592619262 -0.88154647394739  1.57952889018902
 1  11.85079701080108 -1.76893421512151 -0.02964227202720
 1  11.24450039023902 -0.80482211771177 -1.41767261096110
 1  11.82047206530653  1.26258933073307  0.48221101070107
 1  12.51232199089909 -0.01208992569257  1.36537571267127
 1  13.13399414171417  0.78335307810781 -1.54580078487849
 1  14.45740596779678 -0.78995201250125  0.63644874237424
 1  13.81384177067707 -1.67546072497250 -0.86763301740174
 1  15.38845870237024 -0.66417974567457 -0.83573597659766
 1  13.46001524712471  2.78424672387239 -0.35635551285128
 1  14.34330194239424  1.83358977347735  0.83413224052405
 1  16.23168189528953  1.40546600810081 -1.22473028802880
 1  15.33132792829283  2.03094134553455 -2.18288181908191
 1  15.03821528362836  4.17843105080508 -0.87397867786779
 1  16.10604023792379  3.26889284868487  0.39454191299130
 1  18.03608342514251  3.17609111761176 -1.31219560746075
 1  16.04549168596860  4.56703398229823 -3.24867914681468
 1  17.89720211011101  4.18618501170117 -3.45911334493449
 1  16.76412109740974  2.88164307550755 -3.37869842304230
 1  17.71849972397240  5.26881753475347  0.18015718141814
 1  18.95370298109811  5.47660388688869 -0.91033317441744
 1  17.03373594339434  6.11455586568657 -1.15804415651565
 1 -4.94083196779678 -7.96386748614862  0.11329701370137
 1 -6.41424191549155 -6.97373675507551  0.76744658795880
 1 -4.82924514191419 -6.75755563176318  1.63963683208321
 8 -7.66914981028103  6.84539457085709 -0.39262269066907
 1 -9.02726611041104  6.40934835053505 -1.88876734423442

