%nproc=3
%Mem=2GB
# td=(NStates=1) iop(3/107=0140000000,3/108=0140000000) iop(3/107=0140000000,3/108=0140000000) CAM-B3LYP/6-31G(d,p) 

TD

0 1
12 -5.57339307050705  1.27383741144114  0.15598826762676
 6 -5.05654577637764 -2.07151111581158 -0.38640170527053
 6 -3.33450491039104  1.14604714621462  2.78758019621962
 6 -6.18168459075908  4.59982800590059  0.60622298349835
 6 -8.03791470947095  1.14623330573057 -2.33387748164816
 7 -4.45141222572257 -0.35690161326133  1.16186635363536
 6 -4.24231945234523 -1.62182336373637  0.66075979447945
 6 -3.22131353305331 -2.32579377797780  1.45853144174417
 6 -2.87653180858086 -1.26266693639364  2.67884467106711
 6 -3.67969476947695 -0.04083323592359  2.20013067166717
 6 -3.36518862686269 -1.78498519111911  4.06038389778978
 6 -2.00003484678468 -2.80516450965097  0.69376356245625
 6 -1.03674143704370 -3.69495458335834  1.46794067096710
 6  0.18067393479348 -3.92407727982798  0.61083924502450
 8  0.44110796469647 -3.43135282408241 -0.49271928732873
 8  1.08720040224022 -4.62981812661266  1.28919490799080
 7 -4.88447699869987  2.63689392609261  1.44017070367037
 6 -4.03807789498950  2.36219423542354  2.52832805860586
 6 -3.73168370557056  3.59474955745575  3.12810175457546
 6 -4.55836159185919  4.56921538703870  2.65432131633163
 6 -5.29041840424042  3.94005868236824  1.53638879077908
 6 -2.88781740664066  3.78226531023102  4.44291816231623
 6 -4.67072977297730  5.96576661086109  2.99792522932293
 8 -3.99557204450445  6.49448427862786  3.85865983848385
 7 -6.84716636623662  2.59958789128913 -0.76770943864386
 6 -6.88116031383138  4.00615102060206 -0.43180138323832
 6 -7.88758389858986  4.63800485728573 -1.21072388148815
 6 -8.44449748254826  3.66607573767377 -1.97629218161816
 6 -7.74644845634564  2.41648982308231 -1.74266803660366
 6 -8.22926520522052  6.05556692639264 -1.29010014461446
 6 -9.40070654905491  3.77012795109511 -3.20432298089809
 6 -8.67522650335034  3.91776313941394 -4.53794704140414
 7 -6.36167193449345 -0.07237241744174 -1.15294631503150
 6 -7.31807541424142 -0.00847175277528 -2.13122904550455
 6 -7.58430154675468 -1.32330748344835 -2.68166119071907
 6 -6.69611509520952 -2.16329010231023 -2.06712592249225
 6 -6.01534945844584 -1.37547157665767 -1.08199606430643
 6 -8.57126250095010 -1.58198798739874 -3.73666458585859
 6 -6.19024265136514 -3.57058616461646 -2.01077647154715
 8 -6.68061130173017 -4.44789976007601 -2.62388263396340
 6 -5.00524077757776 -3.56394816151615 -0.97498411921192
 6 -5.33337046464646 -4.66871207280728  0.00007715871587
 8 -5.70734491709171 -4.35708164156416  1.11114823512351
 8 -5.06874683788379 -5.86272015611561 -0.51250542194219
 6 -5.42717606680668 -7.03661725282528  0.32460999579958
 6  2.32272895449545 -4.94757101730173  0.69505748704870
 6  3.48556186628663 -4.09304080338034  1.03778506430643
 6  4.05897500120012 -3.22748256915692  0.18017039203920
 6  3.79307420472047 -3.14767795619562 -1.20424809360936
 6  5.19464367036704 -2.53644791299130  0.68888073897390
 6  6.60051565626563 -2.75074002700270  0.15227555345535
 6  7.67264639133913 -1.75619726552655  0.62784661926193
 6  9.14024263276328 -1.89257523952395 -0.02028874207421
 6  9.56537361746174 -3.35193509600960  0.29710283528353
 6  9.97794322992299 -0.74380500140014  0.45349331273127
 6  11.40454361166116 -0.87708050315032 -0.18485379597960
 6  12.19342696329633  0.38367755825583  0.28061885008501
 6  13.55879527362736  0.48175786268627 -0.51553131033103
 6  14.55939411241124 -0.74168489848985 -0.19797648284829
 6  14.29383932213221  1.79097386958696 -0.14412205460546
 6  15.42388166906691  2.15386732203220 -1.03789089678968
 6  15.99354897459746  3.46481899189919 -0.61052214521452
 6  17.16407080178018  3.84870378587859 -1.55606665446545
 6  16.90649963206321  3.95177073977398 -3.03519583958396
 6  17.82646606580658  5.17892601860186 -1.01706266326633
 1 -2.51670717661766  1.13719058265827  3.41219883108311
 1 -6.23789467236724  5.63295949814982  0.52124188688869
 1 -8.81277647674768  1.08097235873587 -3.13358873977398
 1 -3.79485655085508 -3.20805392209221  1.97216295839584
 1 -1.78829991599160 -1.02788039623962  2.75544771077108
 1 -2.97339666486649 -2.72118869976998  4.32862280818082
 1 -3.15389198929893 -1.20451256895690  4.82306844274427
 1 -4.50803247904790 -2.07235515351535  4.14086730933093
 1 -2.28339550515052 -3.54127717271727  0.01262352775277
 1 -1.60345104480448 -1.93741236863686  0.18398924022402
 1 -0.65035942604260 -3.40201017331733  2.46229077017702
 1 -1.46857633623362 -4.65018185448545  1.64029306600660
 1 -1.91748040014001  3.34031871857186  4.12427480858086
 1 -3.00058771277128  4.90097973707371  4.79928559145915
 1 -3.06146607910791  3.18061125522552  5.18077505430543
 1 -5.66954081338134  6.50387837033703  2.62485460126013
 1 -10.10641462396240  2.90031718361836 -3.02839399399940
 1 -10.07099458235824  4.50306784128413 -3.19815280788079
 1 -9.45758151905190  3.85119301930193 -5.28880519111911
 1 -8.04561852785278  4.89741168176818 -4.41481116291629
 1 -8.03060333523352  3.04165847974797 -4.59091320602060
 1 -8.33928050965097 -1.02663592129213 -4.75096506550655
 1 -8.77270689858986 -2.59677673797380 -4.03944328822882
 1 -9.41565481458146 -1.24475110971097 -3.46557084218422
 1 -4.11338311431143 -3.79591541454145 -1.60024495459546
 1  2.41229917371737 -5.94598189128913  1.04983337123712
 1  2.24065739233923 -4.78166669306931 -0.44100953605361
 1  3.84422040444044 -4.23217333963396  2.05297366146615
 1  2.80521797369737 -3.26817837273727 -1.56543919401940
 1  4.10721805980598 -2.13749845044504 -1.48759697719772
 1  4.46514902230223 -3.84221607790779 -1.96177763506351
 1  5.12474634363436 -1.34026957155716  0.17537792889289
 1  5.31475383378338 -2.40495481268127  1.80113399969997
 1  7.00833005300530 -3.88476277577758  0.49857917961796
 1  6.67649648914891 -2.72748496449645 -0.92766245244524
 1  7.33892469406941 -0.77399395369537  0.51166992029203
 1  7.57916682688269 -1.90655890439044  1.65849332173217
 1  8.82863876347635 -1.90278831953195 -1.04250246894689
 1  8.87931009640964 -4.19013787368737 -0.10658312851285
 1  10.48534156355636 -3.51634498919892 -0.32101968386839
 1  9.81876862446245 -3.42466819541954  1.29790075307531
 1  9.46290735163516  0.27298570897090  0.11304047844784
 1  10.01284024262426 -0.70425874517452  1.63551448874887
 1  11.88956088718872 -1.75185250695070 -0.15202451025103
 1  11.18802474267427 -0.76015765126513 -1.33435427912791
 1  11.40019003710371  1.16810988278828  0.41454424402440
 1  12.62906366506651  0.35942722602260  1.39970914601460
 1  13.46640738303830  0.44100884368437 -1.70040624542454
 1  14.75117534473448 -0.68979199649965  0.76807190469047
 1  13.98208859535954 -1.73741692059206 -0.60574682878288
 1  15.47707756425643 -0.56454978267827 -0.83344574757476
 1  13.47781702730273  2.52732103130313 -0.21128100540054
 1  14.66115372757276  1.89597601210121  0.91589041634163
 1  16.03846257335734  1.41260672217222 -1.11577939293929
 1  14.92827762326233  2.32219047044704 -1.99020255115512
 1  15.17800926302630  4.26450965866587 -0.74431571157116
 1  16.23953358725872  3.61304726412641  0.43245570437044
 1  17.86413623042304  2.99054256275627 -1.55830021792179
 1  16.02166930373037  4.57610488938894 -3.31237551645165
 1  17.80348273817382  4.12756915011501 -3.58700613421342
 1  16.82041672697270  3.01536644784478 -3.34058461166117
 1  18.13145101910191  5.31020167316732 -0.01743257755776
 1  18.82370998179818  5.25657188368837 -1.69716185728573
 1  17.21203377317732  6.00665507560756 -1.21406975907591
 1 -5.30310819541954 -7.92693379277928 -0.52381669766977
 1 -6.40794128542854 -6.91736111751175  0.92852269556956
 1 -4.70269248664867 -7.30952082828283  1.07337020542054
 8 -7.67858075337534  6.84510454185419 -0.47975140354035
 1 -8.91063444724472  6.32068948464847 -2.14859332683268

