%nproc=3
%Mem=2GB
# td=(NStates=1) iop(3/107=0140000000,3/108=0140000000) iop(3/107=0140000000,3/108=0140000000) CAM-B3LYP/6-31G(d,p) 

TD

0 1
12 -5.68431416261626  1.16406643434343  0.30254292309231
 6 -5.07339746154615 -2.11386535123512 -0.33965703080308
 6 -3.28848030793079  1.16887942944294  2.74517595579558
 6 -6.15231165346535  4.48412643574357  0.63330569176918
 6 -7.97495841384138  1.14366304870487 -2.29439353325332
 7 -4.43227031153115 -0.25397132023202  1.18405857285729
 6 -4.33550877127713 -1.52890407180718  0.74891861036104
 6 -3.33500490219022 -2.28229942854285  1.50792638123812
 6 -2.93310746614661 -1.29290996069607  2.61745853245325
 6 -3.55865266526653  0.02016286368637  2.14314497309731
 6 -3.45142725072507 -1.72005869846985  4.00972883228323
 6 -2.03256810011001 -2.69400339353935  0.65653984008401
 6 -1.14166192909291 -3.80338542644264  1.25860973787379
 6  0.25520138753875 -3.99998487058706  0.53383154425443
 8  0.47223107700770 -3.47780746954695 -0.49269928532853
 8  0.98149983218322 -4.86016116091609  1.29041503000300
 7 -4.91704025502550  2.53827406410641  1.50738742534253
 6 -4.03314740194019  2.40174819081908  2.52688791459146
 6 -3.62744328152815  3.68103818631863  3.12842178657866
 6 -4.60249600530053  4.53463192869287  2.67844372857286
 6 -5.25621498389839  3.92443712021202  1.58671382328233
 6 -2.65585421032103  3.77862494619462  4.30724459495950
 6 -4.65167786778678  6.04129416361636  2.85191062786279
 8 -4.17626011331133  6.56163099329933  3.76566053855386
 7 -6.80356200580058  2.55627355985599 -0.78245091279128
 6 -6.90369256705671  3.88144855035504 -0.35608381148115
 6 -7.89651479167917  4.57705876267627 -1.31165397449745
 6 -8.37092012481248  3.67863699379938 -2.02085663806381
 6 -7.75004881638164  2.36983515761576 -1.69500327012701
 6 -8.32921520022002  6.01144251395139 -1.26566770137014
 6 -9.42836931533153  3.86376731503150 -3.12228477707771
 6 -8.54454343504350  4.13749511261126 -4.40940418711871
 7 -6.39343511081108 -0.14194937513751 -1.07834885528553
 6 -7.37920152685269 -0.03243414901490 -2.10458638123812
 6 -7.52941605820582 -1.33828898159816 -2.65866889148915
 6 -6.62356784048405 -2.19212298559856 -2.09594880478048
 6 -5.93331125462546 -1.41388541804180 -1.11350921562156
 6 -8.54978035273527 -1.72536232483248 -3.70714163356336
 6 -6.07944157125713 -3.57767687368737 -2.00531592549255
 8 -6.47399063966397 -4.52564753485349 -2.71658190389039
 6 -4.99207946144614 -3.56709847654765 -0.89004562536254
 6 -5.35137226482648 -4.63457865946595  0.07672482348235
 8 -5.77944212681268 -4.40720665406541  1.18872599289929
 8 -4.95820578377838 -5.85905979007901 -0.31024519591959
 6 -5.38467181638164 -6.97880147124712  0.52687022182218
 6  2.30132681428143 -4.97637389758976  0.65215319661966
 6  3.41275458555856 -4.02737423672367  0.94243552935294
 6  3.97721682538254 -3.20781060196020  0.14468684368437
 6  3.68445334263426 -3.04384757315732 -1.34505217401740
 6  5.17295150115011 -2.36172044024402  0.60698254915492
 6  6.51015662036204 -2.58713366636664  0.03913423932393
 6  7.55276440314031 -1.67806945274527  0.60023385798580
 6  8.93168177667767 -1.93793977597760  0.00080336713671
 6  9.54091117121712 -3.34894479697970  0.28616174117412
 6  9.98623405900590 -0.86807742864286  0.49700766416642
 6  11.21974513181318 -0.90229302440244 -0.35331064166417
 6  12.10832845344534  0.37588677917792  0.09707049524952
 6  13.53671306540654  0.57651733863386 -0.57815757295730
 6  14.33627180018002 -0.63363409340934 -0.28132481768177
 6  14.15860579877988  1.87097186938694 -0.18011565396540
 6  15.47083636453645  2.14423635893589 -0.93799090679068
 6  16.16276589628963  3.51152366236624 -0.70516160916092
 6  17.47469186388639  3.84772368786879 -1.40447149494949
 6  17.22727170927093  3.86467202990299 -2.95484780478048
 6  18.07091051025103  5.17207533353335 -0.81250220722072
 1 -2.25659116501650  1.25333219681968  3.44123173437344
 1 -6.48955983888389  5.66336253845385  0.76734649734973
 1 -8.76252145124512  1.07902216371637 -3.16726210711071
 1 -3.63367043224323 -3.17587070377038  1.84334007610761
 1 -1.83587467346735 -1.11016862506251  2.44527669366937
 1 -2.95925525072507 -2.80670725162516  4.06856680258026
 1 -3.07396399649965 -1.11283340104010  4.62100823672367
 1 -4.62588426422642 -1.80021793979398  3.84018724132413
 1 -2.32392955855586 -3.25910895589559 -0.27340507510751
 1 -1.39940063976398 -2.01298992639264  0.23757459875988
 1 -0.82796718681868 -3.21640161246125  2.24212875397540
 1 -1.59038851745174 -4.72194903120312  1.58003704040404
 1 -1.63619227132713  3.47371205790579  3.99972235333533
 1 -2.68600625462546  4.85665530463046  4.64642030493049
 1 -2.90676060856086  2.97233042714271  5.06150312711271
 1 -5.38404226352635  6.63434141664166  2.23215533133313
 1 -10.11093507600760  3.01546869876988 -3.26609776437644
 1 -10.05856333923392  4.64942247674767 -2.91328432103210
 1 -9.13251901280128  4.19564746474648 -5.40866717731773
 1 -8.24041800780078  5.14444638523852 -4.24910459225923
 1 -7.94529480438044  3.30919523342334 -4.58680279497950
 1 -8.33512009360936 -1.32642590029003 -4.78820878987899
 1 -8.39555918381838 -2.95494255455546 -3.90506985088509
 1 -9.65779902900290 -1.35346198079808 -3.73848813391339
 1 -4.13815559155916 -3.89506532953295 -1.35220015011501
 1  2.70566851065107 -5.97314460756076  1.03700208810881
 1  2.14304763136314 -5.02305083148315 -0.43648908400840
 1  3.82302828522852 -4.12913303560356  1.83374173827383
 1  2.69845729762976 -3.30072162706271 -1.95746839693969
 1  3.95698303630363 -1.91185588618862 -1.61833005050505
 1  4.51578408580858 -3.64927678397840 -1.90246170347035
 1  4.89934380338034 -1.22172771737174  0.65842623372337
 1  5.18948130653065 -2.55073939113911  1.59337322362236
 1  6.83265248524852 -3.71557585708571  0.08833815551555
 1  6.41589042854285 -2.35270748674868 -1.10107979417942
 1  7.01017181878188 -0.65195174947495  0.15580433373337
 1  7.58543745394539 -1.65714396289629  1.69984745714571
 1  8.83579947954796 -1.50597863856386 -1.04895311401140
 1  8.98944110951095 -4.11431029092909  0.11784931473147
 1  10.54358738813881 -3.60102345704571 -0.13001058295830
 1  9.62435918351835 -3.59429515811581  1.35487645064506
 1  9.65169623052305  0.08248665906591  0.22788196259626
 1  10.26853581218122 -0.89581790109011  1.54058499579958
 1  11.97963989508951 -1.70918824052405 -0.18655796359636
 1  11.05328126832683 -0.81342297779778 -1.41219206290629
 1  11.50589060716072  1.33842691449145  0.18772156175618
 1  12.37640839953995  0.06088737203720  1.06848602370237
 1  13.17725846814681  0.71979672247225 -1.62287849264926
 1  14.50403063026303 -0.63354637193719  0.86615171267127
 1  13.89907029352935 -1.56039921882188 -0.56149240334033
 1  15.41437129362936 -0.62308563626363 -0.88838124112411
 1  13.52834207980798  2.57227552675268 -0.29344922222222
 1  14.52885049724972  1.93496991149115  0.75392421972197
 1  16.16558528562856  1.28291375287529 -0.60442825782578
 1  15.23323811931193  2.09617786918692 -2.14171770267027
 1  15.29126058815882  4.34875808350835 -0.78547982798280
 1  16.24977461136114  3.47536349574958  0.34791725052505
 1  18.19061887868787  3.08083159165917 -1.15015940384038
 1  16.48339547634763  4.55603288218822 -3.40652493139314
 1  18.21558394829483  4.01247764096410 -3.41296873047305
 1  16.99754443974397  2.98517342854285 -3.32405295849585
 1  17.88725659965996  5.06399705270527  0.23875304100410
 1  19.19827743854385  5.20025625212521 -1.00581272237224
 1  17.48948151795179  6.01617602770277 -1.22230058215822
 1 -4.90469835443544 -7.84086518591859 -0.00531484748475
 1 -6.55385587688769 -6.91935131653165  0.49408925222522
 1 -4.83657587498750 -7.20535041124112  1.51827469586959
 8 -7.73630652595260  6.88063809520952 -0.55589901830183
 1 -9.03328671247125  6.29128654435444 -1.91720018751875

