%nproc=3
%Mem=2GB
# td=(NStates=1) iop(3/107=0140000000,3/108=0140000000) iop(3/107=0140000000,3/108=0140000000) CAM-B3LYP/6-31G(d,p) 

TD

0 1
12 -5.71579731093109  1.24219424712471  0.18002067086709
 6 -5.04969509130913 -2.10741470617062 -0.36826989208921
 6 -3.49854131403140  1.23742628412841  2.75834727292729
 6 -6.16302272457246  4.62569059215922  0.59722208340834
 6 -7.89274019201920  1.16171485388539 -2.39892398629863
 7 -4.33149023352335 -0.30311623472347  1.05359552655266
 6 -4.24176939733973 -1.60704188558856  0.66783050155016
 6 -3.16276767846785 -2.33282448104810  1.45429101770177
 6 -2.99119327472747 -1.36588725842584  2.65222200880088
 6 -3.66377317731773 -0.12785193779378  2.22741339993999
 6 -3.52431453945395 -1.92829952255226  4.00119797919792
 6 -1.91593643694369 -2.59601359455946  0.68506269236924
 6 -0.98207597049705 -3.50765585348535  1.40827470437044
 6  0.16325219261926 -3.89987485958596  0.53044120522052
 8  0.28721257515752 -3.42248193699370 -0.53805382078208
 8  1.08460014221422 -4.72875802060206  1.22152814131413
 7 -4.90160871187119  2.61240147684768  1.40318700530053
 6 -4.06542062926293  2.34002201820182  2.52422764856486
 6 -3.74238477567757  3.63127320982098  3.17805675007501
 6 -4.62049780548055  4.55344380988099  2.64871075527553
 6 -5.29095845824582  3.95508018451845  1.43000815271527
 6 -2.92723134803480  3.68604568826883  4.36601047154716
 6 -4.73947664766477  5.99270930513051  2.99577501430143
 8 -4.01806429372937  6.56214104430443  3.79794376687669
 7 -6.87692934253425  2.58520645314531 -0.72939560726073
 6 -6.98633083088309  4.00266067156716 -0.27655585868587
 6 -7.97177231743174  4.62063312011201 -1.22907571667167
 6 -8.47611064386439  3.70994012411241 -2.07616216861686
 6 -7.74734854635464  2.41420959505951 -1.73429719951995
 6 -8.35401768046805  6.04866623632363 -1.18283941854185
 6 -9.45099157755776  3.89705064336434 -3.12668521712171
 6 -8.73834281498150  3.89580094319432 -4.60187343404340
 7 -6.40119588688869 -0.10390557075708 -1.05856687708771
 6 -7.33564717141714 -0.00436134173417 -2.06833275587559
 6 -7.50077319391939 -1.34531968466847 -2.75521854645465
 6 -6.73629911361136 -2.15989976327633 -2.06858606850685
 6 -5.95455337883788 -1.34166819631963 -1.06369423412341
 6 -8.52764813951395 -1.58714850345035 -3.90312123152315
 6 -6.13751737883788 -3.50515962196220 -2.08477387128713
 8 -6.50174341494149 -4.52009697979798 -2.64883512921292
 6 -5.07746800030003 -3.56245801250125 -0.85638225902590
 6 -5.35167229482948 -4.66101130273027  0.15802295329533
 8 -5.83811799439944 -4.63241917531753  1.28405552585259
 8 -5.09151911511151 -5.87152103620362 -0.43634780618062
 6 -5.35532888208821 -7.00116370747075  0.44848238303830
 6  2.32716939853985 -4.99601586178618  0.49121710301030
 6  3.31918522862286 -4.02758425772577  1.01136242204220
 6  4.06198530223022 -3.21347116801680  0.24877725272527
 6  3.76741163846385 -3.07433062146215 -1.25004267306731
 6  5.25971017701770 -2.39630389858986  0.70778262916292
 6  6.69909551425143 -2.68152310531053  0.22156248214821
 6  7.69029815651565 -1.65081672747275  0.71986582118212
 6  9.08284689318932 -1.94316029802980  0.23027631443144
 6  9.54511159125913 -3.30554045654565  0.56584970997100
 6  10.03437887348735 -0.84839546044604  0.57921588498850
 6  11.38478163546355 -0.84759755485549 -0.21626693729373
 6  12.25757337793779  0.37305649614961  0.01967275547555
 6  13.59354874897490  0.50061974887489 -0.74400415761576
 6  14.42457063006301 -0.75400613061306 -0.62842952815282
 6  14.23143308150815  1.80563533573357 -0.28114575697570
 6  15.47993727462746  2.15801773707371 -1.12282939063906
 6  16.21759137883788  3.48457096709671 -0.63161425442544
 6  17.46261065576558  3.81674058955896 -1.38391943974397
 6  17.23527250935093  3.97235279797980 -2.91283360336034
 6  18.11973539273927  5.05256338233823 -0.90980193719372
 1 -2.78304381028103  1.06356321992199  3.59551716291629
 1 -6.40721160406041  5.80636683888389  0.54715447814781
 1 -8.79820501960196  1.24290855235524 -3.19809519041904
 1 -3.85370243544354 -3.44748786548655  1.53237897999800
 1 -1.97408849484948 -1.13599120732073  2.76601876787679
 1 -3.18527785298530 -2.84415099599960  4.15388533443344
 1 -3.17140374047405 -1.26010812851285  4.79007514341434
 1 -4.63018469426943 -1.99832775077508  4.12969619221922
 1 -2.16442360796080 -3.07912095709571 -0.25571330593059
 1 -1.47011771147115 -1.64568319571957  0.50759160046005
 1 -0.51757614771477 -3.05873584588459  2.31584612571257
 1 -1.59753923252325 -4.50342717901790  1.72733176987699
 1 -1.90953960606061  3.48015270197020  3.97552993409341
 1 -2.92896055005501  4.84019365846585  4.59198486138614
 1 -3.21740167266727  2.99353254735474  5.31718869566957
 1 -5.39502336163616  6.53317129962996  2.27945006080608
 1 -10.22556653915392  3.09816696859686 -3.22864401900190
 1 -10.10858834173417  4.84212174667467 -3.00445343794380
 1 -9.71403716461646  3.92761066106611 -5.25160147074708
 1 -8.30265423142314  4.78308024862486 -4.58363804560456
 1 -8.40084035893589  2.85834014791479 -4.78452256695669
 1 -8.19569615121512 -1.18915217291729 -4.86053602260226
 1 -8.46349597749775 -2.61546860716072 -4.18366771067107
 1 -9.46665991509151 -1.26431306590659 -3.73071735683568
 1 -4.09245102110211 -3.83254907790779 -1.29829475957596
 1  2.80572851665166 -6.09463675677568  0.75432382028203
 1  2.07994132073207 -4.97837636403640 -0.46303173827383
 1  3.77745372777278 -3.98047817011701  1.95009337343734
 1  2.75936338823882 -3.33799535443544 -1.57169982008201
 1  3.83389072707271 -1.99127382798280 -1.44403262076208
 1  4.37284979237924 -3.53482533883388 -1.96106756405641
 1  5.20725459445945 -1.31164670927093  0.71549194029403
 1  5.16159851825183 -2.53308762596260  1.83662754905491
 1  6.89734895489549 -3.77834213371337  0.53650297199720
 1  6.55738457795780 -2.81108332433243 -0.89413910011001
 1  7.46168697029703 -0.58380493479348  0.47896664996500
 1  7.59916882708271 -1.71023927242724  1.85514298669867
 1  8.79627552715272 -2.11503954465446 -0.88882710141014
 1  8.87711987738774 -4.07221608150815  0.15349287908791
 1  10.61603463286328 -3.17579093379338  0.31400381848185
 1  9.50663741134113 -3.31623735233523  1.71319228222822
 1  9.62234329522952  0.26422483288329  0.06493566796680
 1  10.33242220082008 -0.76731505080508  1.63235417271727
 1  11.69539147024702 -1.92022934463446 -0.01644095189519
 1  11.15517145734574 -0.84464610011001 -1.29297014071407
 1  11.73738375647565  1.43341641344134 -0.18341555195519
 1  12.52829358805881  0.62474375767577  0.96939611471147
 1  13.21962270457046  0.57457220002000 -1.83048925372537
 1  14.62553278047805 -1.06562958025803  0.51994709220922
 1  13.95133552005201 -1.65551873077308 -1.13220947504750
 1  15.38084794129413 -0.58382170987099 -0.90255265826583
 1  13.49669891549155  2.55772407160716 -0.26563644094409
 1  14.65178279047905  1.73030944544454  0.66606543384338
 1  16.27208593569357  1.30110557205721 -1.03777159215922
 1  15.36929172467247  2.33994224562456 -2.28697222812281
 1  15.35316677877788  4.31527473517352 -0.59662094209421
 1  16.55668530243024  3.31704766416642  0.37481994079408
 1  18.03381319811981  2.82847635613561 -1.35761014891489
 1  16.54543167996800  4.82975025392539 -3.04676895579558
 1  18.27869025892589  3.97933432663266 -3.39178661226123
 1  16.52113679897990  3.13159807100710 -3.45319587278728
 1  18.13648152215221  5.08213886688669  0.16346551225123
 1  19.03460107090709  5.33177940444044 -1.39907204830483
 1  17.53001557135714  5.93772818291829 -1.20024837693769
 1 -4.94124200880088 -7.87120822022202 -0.16853116911691
 1 -6.31799229052905 -7.09115849724973  0.84906474977498
 1 -4.40349256665667 -7.02393226942694  1.31006387478748
 8 -7.77925082038204  6.79906993839384 -0.32936636503650
 1 -9.16124950875088  6.53364077977798 -1.76921538903890

