%nproc=3
%Mem=2GB
# td=(NStates=1) iop(3/107=0140000000,3/108=0140000000) iop(3/107=0140000000,3/108=0140000000) CAM-B3LYP/6-31G(d,p) 

TD

0 1
12 -5.66669240044004  1.21870189788979  0.29647231603160
 6 -5.08351847364736 -2.14934889958996 -0.32669573467347
 6 -3.32895435533553  1.10235277677768  2.79748118631863
 6 -6.22677910021002  4.51260928402840  0.62756511771177
 6 -7.97668858685869  1.20469915231523 -2.38496259015902
 7 -4.48006509100910 -0.35215113821382  1.08125829282928
 6 -4.35249046944694 -1.69990117151715  0.66808052655266
 6 -3.23447484918492 -2.42895409400940  1.50130571917192
 6 -2.98639279467947 -1.46864753445345  2.65316210281028
 6 -3.59557635763576 -0.09933908650865  2.15598625722572
 6 -3.58488059605961 -1.81946863946395  3.94382224162416
 6 -1.97661250455046 -2.76409040224022  0.69510369646965
 6 -0.86708447134713 -3.55185027292729  1.43599747664766
 6  0.33456932433243 -3.87441231333133  0.58776693779378
 8  0.53083693759376 -3.49938962776278 -0.52597261266127
 8  1.13794547674767 -4.71904704950495  1.18437442594259
 7 -4.93040159115912  2.62647288398840  1.45746243284328
 6 -3.97656174337434  2.46915493149315  2.41317654345435
 6 -3.77901843904390  3.70181026352635  3.12810175457546
 6 -4.53403915961596  4.66518498399840  2.53128901310131
 6 -5.25333469586959  3.99058373487349  1.48910406230623
 6 -2.79145777067707  3.93917100080008  4.26699056955696
 6 -4.59210191019102  6.10542057625763  2.94092952975298
 8 -3.82844533183318  6.64184901510151  3.71991596409641
 7 -6.91649329892989  2.63001093359336 -0.74679734743474
 6 -7.01515371317132  3.92983338883888 -0.36987519061906
 6 -7.97792293249325  4.69260031683168 -1.17030984008401
 6 -8.48977201000100  3.57368649874988 -2.01616616901690
 6 -7.76930074157416  2.47100527462746 -1.76155992579258
 6 -8.26815909460946  6.00986235593559 -1.22639377397740
 6 -9.37023350175017  3.83209414771477 -3.11411395999600
 6 -8.82106108680868  3.64721608470847 -4.57911115781578
 7 -6.34284005130513 -0.14109929012901 -1.03529454985499
 6 -7.39782338903890  0.01561065546555 -1.97480340294029
 6 -7.58675179177918 -1.34264941764176 -2.56149917451745
 6 -6.78365384908491 -2.13423719701970 -1.95854506440644
 6 -6.01544946844685 -1.39940396989699 -1.05847371207121
 6 -8.58570394509451 -1.66000578917892 -3.74017493689369
 6 -6.25984961206121 -3.59172827882788 -2.00129552345234
 8 -6.71054429502950 -4.57422239233923 -2.53633387908791
 6 -5.12372262576258 -3.52905467216722 -0.87254387518752
 6 -5.36089321692169 -4.66308150975098  0.09498664966497
 8 -5.69636381898190 -4.50582651605160  1.23849096939694
 8 -5.02075203840384 -5.84355823992399 -0.36921109250925
 6 -5.19732308150815 -7.01411500260026  0.33556109090909
 6  2.44042072367237 -4.96782304250425  0.55742372367237
 6  3.51651496159616 -4.03257475677568  0.99649093489349
 6  3.99008811251125 -3.06758657955796  0.10172254725473
 6  3.55241013831383 -2.82812600100010 -1.26820448924893
 6  5.12647685368537 -2.23008727692769  0.64572642354235
 6  6.47542314701470 -2.52100705370537  0.07533785968597
 6  7.65248437513751 -1.67348899469947  0.59097293189319
 6  9.03368197669767 -2.00395637763776 -0.09495620882088
 6  9.48737581768177 -3.36900680318032  0.07901102610261
 6  10.10868630423042 -1.00128074897490  0.41411937533753
 6  11.38869202650265 -0.92232502760276 -0.39981529212921
 6  12.23909152975298  0.23371256175618  0.07954874307431
 6  13.58121751585158  0.45625531243124 -0.58696845404540
 6  14.40667884088409 -0.75281601160116 -0.45245193039304
 6  14.27679761796180  1.77909268146815 -0.14531217361736
 6  15.46211549244924  2.15418735403540 -0.89705681338134
 6  16.03097271697170  3.57132964296430 -0.54380547354735
 6  17.35035943064306  3.82207112261226 -1.22588363616362
 6  17.21163014511451  3.83605916861686 -2.70408272827283
 6  18.07700111931193  5.20547867386739 -0.71578253525353
 1 -2.54199970587059  1.46141300490049  3.54585219641964
 1 -6.34879576247625  5.56720292249225  0.96393615631563
 1 -8.73097829692969  1.20756501800180 -3.08400378127813
 1 -3.58478554375438 -3.37075019171917  1.86426216831683
 1 -1.70948203420342 -1.17848545674568  2.71669383538354
 1 -3.28423774897490 -2.84865144604460  4.42470241614161
 1 -3.29740634073407 -1.08405052275228  4.73396953285329
 1 -4.72789446524652 -1.88889680768077  3.75138836143614
 1 -2.10911807740774 -3.48365141014101 -0.13480121472147
 1 -1.65211591129113 -1.94944357175718  0.06053689498950
 1 -0.65562995309531 -3.04809478177818  2.38889343044304
 1 -1.41162064066407 -4.56410324662466  1.48839787648765
 1 -1.76481513361336  4.11968665536554  3.92718509960996
 1 -3.05684333833383  4.94943458255826  4.57512317521752
 1 -3.05320525302530  3.25199839393939  5.12626960376037
 1 -5.26950080938094  6.67558554105410  2.28730084588459
 1 -10.22858684118412  3.01759891179118 -2.96054720932093
 1 -9.92348983188319  4.80513804830483 -3.28031102370237
 1 -9.49433519441944  3.80559845984598 -5.36210252085209
 1 -8.04483844984498  4.32301424202420 -4.79086876867687
 1 -8.32740301520152  2.57241155505551 -4.50754486918692
 1 -8.32531911351135 -1.11987524522452 -4.80601057005701
 1 -8.78423805170517 -2.74086114641464 -3.76213555745574
 1 -9.55501875097510 -1.09997663226323 -3.39862414751475
 1 -4.21150292629263 -3.79305512851285 -1.61039596969697
 1  2.68403634743474 -5.89904719781978  0.92643103100310
 1  2.37747107370737 -5.00361888828883 -0.50392582768277
 1  3.96528251065106 -4.17398752105210  2.09838820292029
 1  2.53230068196820 -2.98403995889589 -1.57260991109111
 1  3.54068140614061 -1.88563326392639 -1.68822704020402
 1  4.39173168056806 -3.26955881218122 -2.05395685298530
 1  4.80591446044605 -1.08519406400640  0.23508389948995
 1  5.28046040444045 -2.35619993719372  1.61683556985699
 1  6.61502072207221 -3.61144544404440  0.25338466016602
 1  6.58858769826983 -2.22830504650465 -1.12404209040904
 1  7.48278908050805 -0.58970552485249  0.34459321262126
 1  7.72816172637264 -1.79631788028803  1.62385985838584
 1  8.86266216581658 -1.97641568226823 -1.22740095879588
 1  8.95956812221222 -4.28056691659166 -0.24250672087209
 1  10.43744677407741 -3.36571992669267 -0.39015659755976
 1  9.74888163576358 -3.65569129772977  1.19255021802180
 1  9.62779384028403 -0.00942253185319  0.65596477087709
 1  10.28590754935493 -1.24312263156316  1.48861979927993
 1  12.10429236033603 -1.96888421012101 -0.31451075887589
 1  10.94635057525753 -0.84377601310131 -1.48888973267327
 1  11.55712573067307  1.02189526132613 -0.05216242664266
 1  12.41553231193119  0.03932521582158  1.08657783288329
 1  13.33968471077108  0.55371011381138 -1.71426763156316
 1  14.93318354555456 -0.86711972927293  0.48185328282828
 1  13.87221760826083 -1.77565074397440 -0.67888414251425
 1  15.26242609910991 -0.90754408210821 -1.25907831083108
 1  13.44412365796580  2.66344464366437 -0.26284616191619
 1  14.60950856305631  1.61862827732773  0.99896872417242
 1  16.38239696679668  1.55565102660266 -0.63060087508751
 1  15.47242203770377  2.04939319071907 -2.04491802270227
 1  15.44298576067607  4.35259846754675 -0.82226350635063
 1  16.05021465536553  3.93533949334933  0.47925038383838
 1  17.98380819761976  3.05141865036504 -0.88849323722372
 1  16.45780291709171  4.61747902680268 -2.87269154805481
 1  18.01136352625262  4.45441183438344 -3.07307474107411
 1  17.12903758905890  2.89743465466547 -3.46933748694870
 1  18.07705557955796  5.04980563356336  0.38976814251425
 1  18.85600321112111  5.82499872637264 -1.28642078317832
 1  17.20479304910491  5.77764217431743 -0.76537488958896
 1 -4.84614249884989 -7.87266836623662 -0.10717503350335
 1 -6.29415990729073 -7.23524290569057  0.59108895219522
 1 -4.64580679807981 -6.82977285348535  1.25688855725573
 8 -7.73794668996900  6.85457548894889 -0.49741316971697
 1 -9.01909529332933  6.39513692939294 -1.98291675917592

