%nproc=3
%Mem=2GB
# td=(NStates=1) iop(3/107=0140000000,3/108=0140000000) iop(3/107=0140000000,3/108=0140000000) CAM-B3LYP/6-31G(d,p) 

TD

0 1
12 -5.73610934213421  1.16259628732873  0.33178584738474
 6 -4.89024914671467 -2.07775173987399 -0.53180624572457
 6 -3.35874733463346  1.20300284178418  2.74634607280728
 6 -6.38063448574858  4.52119014211421  0.76113847504750
 6 -8.02326324432443  1.10350903330333 -2.31531562546255
 7 -4.35120220472047 -0.28520444354435  1.08576874387439
 6 -4.22477769816982 -1.62558373977398  0.69017273577358
 6 -3.18859026072607 -2.29972117071707  1.57229281788179
 6 -2.84918907430743 -1.27231790149015  2.61589837643764
 6 -3.60686748674867 -0.08954810741074  2.14322498109811
 6 -3.25949805780578 -1.64480117271727  4.12335019441944
 6 -2.03685852915292 -2.78354234743474  0.71170535663566
 6 -0.99309707260726 -3.66047113501350  1.49894377127713
 6  0.24516038343834 -3.95310018211821  0.65729389048905
 8  0.52945679957996 -3.50304999379938 -0.41487150255026
 8  1.04421610381038 -4.74028917371737  1.42857884638464
 7 -4.90686923792379  2.64225446214621  1.49535622222222
 6 -3.97529161636164  2.39935795179518  2.44311953775378
 6 -3.68925946314631  3.72047212971297  3.09105805020502
 6 -4.63843959965997  4.63172163766377  2.62579846404640
 6 -5.40800016241624  3.98547322382238  1.54497964986499
 6 -2.75579420432043  3.99134621832183  4.24901877237724
 6 -4.72222492249225  6.04600463466347  2.94815025182518
 8 -3.95643813111311  6.53929876007601  3.83347732023202
 7 -6.97524917451745  2.65043297579758 -0.72065473317332
 6 -7.02777497529753  3.87506791229123 -0.29504770787079
 6 -7.94148928912891  4.65544660146015 -1.17708051715171
 6 -8.46928996179618  3.67986711681168 -2.12033658605861
 6 -7.83846765826583  2.41722989708971 -1.72607637743774
 6 -8.29793207190719  6.08138950865087 -1.24763589818982
 6 -9.49180565896590  3.86043698199820 -3.16535908450845
 6 -8.93113209390939  4.05612697579758 -4.51626487318732
 7 -6.25551131843184 -0.12598777897790 -1.10858187858786
 6 -7.26800040674067 -0.01373227882788 -2.06003192579258
 6 -7.43769688628863 -1.27866301900190 -2.77222024662466
 6 -6.50397588128813 -2.18704247754775 -2.14366357625763
 6 -5.86812473597360 -1.41414544404440 -1.17817568226823
 6 -8.60609598429843 -1.60045983458346 -3.71770268966897
 6 -6.02643627072707 -3.51152025802580 -2.11194658855886
 8 -6.40321356195620 -4.51068603870387 -2.79256950265027
 6 -4.97078733223322 -3.53937570427043 -0.99918653945395
 6 -5.14092121972197 -4.63282848444844 -0.00021287028703
 8 -5.60237442004200 -4.38937487088709  1.07123424372437
 8 -4.84614457765777 -5.88789267336734 -0.42567673907391
 6 -5.13046639583958 -6.93429702080208  0.43734126892689
 6  2.34124080568057 -5.11597785798580  0.85309329062906
 6  3.50361367146715 -4.12414391369137  1.11831311711171
 6  3.99788889258926 -3.22618243914391  0.19685206020602
 6  3.69770466776678 -3.25355854425443 -1.26439410821082
 6  5.05046925292529 -2.27993226142614  0.66011786268627
 6  6.49751535623562 -2.62937789078908  0.09150947684768
 6  7.59581870857086 -1.76176782258226  0.52484631923192
 6  8.87387599609961 -2.03362934493449 -0.09278599179918
 6  9.47723480358036 -3.43939384188419  0.26024914991499
 6  9.90175561116112 -0.96664728562856  0.27273523692369
 6  11.25684884218422 -0.91564435953595 -0.29797510811081
 6  12.11890951155116  0.34654384488449  0.16185697389739
 6  13.42167156125613  0.41407109400940 -0.65997575477548
 6  14.30790896389639 -0.74155488548855 -0.57358404360436
 6  14.14066400460046  1.71989676187619 -0.18271591399140
 6  15.43006228712871  2.03154508980898 -0.93241034873487
 6  16.00388000770077  3.47832034203420 -0.58120921392139
 6  17.42148654335433  3.85635455095510 -1.30501154895490
 6  17.16988597069707  3.98729429212921 -2.80575289528953
 6  17.83984740394039  5.21225935193519 -0.84518547554755
 1 -2.54690019591959  1.13635049864986  3.60332794399440
 1 -6.70547143004300  5.56982318451845  0.78678844154415
 1 -8.65531073017302  1.11828609010901 -3.28953433433343
 1 -3.59100616581658 -3.23015613231323  2.01558730083008
 1 -1.87824891089109 -1.15009261746175  2.60961312731273
 1 -2.44031335653565 -2.56460304120412  4.35388533443344
 1 -3.11793839393939 -0.77530964866487  4.70188632453245
 1 -4.18551022682268 -2.05402332033203  4.15152837543754
 1 -2.47863502910291 -3.18126117111711 -0.12374010861086
 1 -1.26550725042504 -2.10081870927093  0.52046288758876
 1 -0.88310270037004 -3.32692266456646  2.50840538163816
 1 -1.45537501610161 -4.82137897419742  1.62796183288329
 1 -1.74842349444944  3.56206089278928  4.01951433253325
 1 -2.82536019001900  4.95667530663066  4.56288195109511
 1 -3.06311624412441  3.34116731083108  5.08979595639564
 1 -5.68276213551355  6.59492747524752  2.53435555135514
 1 -10.19111309380938  3.13642079397940 -3.23860501510151
 1 -9.98721620452045  4.74046158065807 -2.89930292289229
 1 -9.76153191409141  4.15377327732773 -5.09486579717972
 1 -8.41676564256426  4.98233017361736 -4.52905258705871
 1 -8.42148242314232  3.22930724462446 -5.18763287798780
 1 -8.25174175577558 -1.06098935663566 -4.39904987398740
 1 -8.21506113401340 -2.61966902720272 -4.11509085298530
 1 -9.54929817891789 -1.46235286988699 -3.34555884098410
 1 -3.97636941294129 -3.83806962996300 -1.50558548864887
 1  2.63790173397340 -6.03723101620162  1.22721110901090
 1  2.04272759935994 -5.33102162856286 -0.12937837293729
 1  3.84127010941094 -4.14673479577958  2.23015137923792
 1  2.83771122302230 -3.63126468136814 -1.49414206430643
 1  3.74723206120612 -2.12820752135214 -1.77944616211621
 1  4.50796330373037 -3.77568942524252 -1.66849830713071
 1  5.00297416641664 -1.26337188178818  0.20444083518352
 1  5.17349970837084 -2.15527984518452  1.69264315061506
 1  6.78056727672767 -3.64016831633163  0.13169249094909
 1  6.52453129262926 -2.54760697669767 -1.09405909210921
 1  7.46219702130213 -0.81423797809781  0.29434818811881
 1  7.60469938013801 -1.86695494399440  1.77114458685869
 1  8.80658655825583 -1.86266430713071 -1.28743696239624
 1  8.78844100950095 -4.20316917681768  0.04340186998700
 1  10.40396342574257 -3.92449580428043 -0.04271185308531
 1  9.46261300890089 -3.66699242784278  1.38102906590659
 1  9.42112317321732 -0.00729231883188  0.13280245464546
 1  9.89184814341434 -1.15203352265227  1.44952588988899
 1  11.68915084618462 -1.93139046074607 -0.23568287608761
 1  10.99810575077508 -0.52218385388539 -1.53578442214221
 1  11.59454947304730  1.24220729252925 -0.10477768816882
 1  12.54310506920692  0.23306458975898  1.13244241934193
 1  13.11455219751975  0.71634637743774 -1.70268647344735
 1  14.65384561176118 -1.15553857115712  0.49097419491949
 1  13.86082646914691 -1.55340851975197 -1.09656591069107
 1  15.24859471597160 -0.60350367806781 -1.16917932093209
 1  13.49287853345334  2.53727202640264 -0.30211008830883
 1  14.17275488768877  1.65810222472247  0.95581440874087
 1  15.98102682978298  1.06169163066307 -0.64848266326633
 1  15.23178797429743  2.10968922032203 -2.06829035993599
 1  15.24921638373837  4.12594580228023 -0.95202648264827
 1  16.30090972487249  3.51086704610461  0.44034649344935
 1  18.04564438123812  2.99353286178618 -1.09273366126613
 1  16.36618375517552  4.72258953785379 -3.03609788868887
 1  18.03068545844584  4.55532192539254 -3.55325275887589
 1  16.96721140644064  3.26138104930493 -3.30233078627863
 1  17.94805267926792  5.52315296829683  0.28755792149215
 1  18.67661527232723  5.64130035653565 -1.48736087718772
 1  17.10771334113412  5.92099650975098 -1.15500385248525
 1 -4.90139802440244 -7.91108220762076  0.11169685368537
 1 -6.23869436073607 -6.85042442384239  0.65081492479248
 1 -4.55234745214521 -7.01418129432943  1.31931479987999
 8 -7.77182007730773  6.94169420082008 -0.53815724412441
 1 -9.05137852165216  6.41674909060906 -2.04026249374937

