%nproc=3
%Mem=2GB
# td=(NStates=1) iop(3/107=0140000000,3/108=0140000000) iop(3/107=0140000000,3/108=0140000000) CAM-B3LYP/6-31G(d,p) 

TD

0 1
12 -5.61653738493849  1.26308633633363  0.17447011581158
 6 -5.05913603540354 -2.11204516921692 -0.32749581468147
 6 -3.54607606750675  1.22294483598360  2.81506294449445
 6 -6.26768319061906  4.51130915401540  0.72248460966097
 6 -8.02519343734373  1.16708539093909 -2.40646474037404
 7 -4.47335441994199 -0.24232015511551  1.11749191619162
 6 -4.28652387278728 -1.63810499189919  0.71783550205021
 6 -3.21419282098210 -2.39829102770277  1.54645023362336
 6 -2.96128028342834 -1.34414508420842  2.69397618421842
 6 -3.65215201520152 -0.04056320892089  2.16217687628763
 6 -3.59596170417042 -1.88204489708971  3.96291415081508
 6 -1.98031287458746 -2.56420041324132  0.73986817291729
 6 -1.07104486738674 -3.49877496539654  1.45045892279228
 6  0.22700856825683 -3.87759263136314  0.65255341644164
 8  0.49747360126013 -3.66458614741474 -0.47602761816182
 8  1.07104878707871 -4.65392053685369  1.55245123362336
 7 -4.91346989798980  2.60448068476848  1.55235192179218
 6 -4.06755084228423  2.43350136613661  2.49897512331233
 6 -3.76577711491149  3.63036311881188  3.23450239463946
 6 -4.65721147684769  4.57736620212021  2.69575545974597
 6 -5.33163252565257  3.89229390589059  1.56066121802180
 6 -2.83720234513451  3.65330241394139  4.27465133563356
 6 -4.61483418341834  6.06943697789779  2.89093453025303
 8 -3.96180866816682  6.53867869806981  3.90264423692369
 7 -6.81842349194919  2.65915384788479 -0.68998166586659
 6 -6.96480867866787  4.01873227872787 -0.38532673577358
 6 -7.85441058125813  4.71679273607361 -1.29952276137614
 6 -8.48439147194719  3.75092422252225 -2.11418597099710
 6 -7.77501131263126  2.45289346344634 -1.78398216801680
 6 -8.31318359705971  6.01641301100110 -1.18783991859186
 6 -9.29864634303430  3.73112405070507 -3.22896544514451
 6 -8.59612859355936  3.96106746984698 -4.54093734043404
 7 -6.35852161946195 -0.10870605080508 -1.15668668906891
 6 -7.44491809850985 -0.02432333793379 -2.10795671827183
 6 -7.57080019661966 -1.34566971967197 -2.74556758135814
 6 -6.68206369006901 -2.19314308760876 -2.06468567846785
 6 -5.96796471997200 -1.40918494799480 -1.16050391509151
 6 -8.37280265496550 -1.70775056365637 -3.94893581298130
 6 -6.14601822892289 -3.52794190019002 -1.98247364126413
 8 -6.43928716931693 -4.52812778287829 -2.63972421812181
 6 -5.13305355885589 -3.56430819751975 -0.86786340714071
 6 -5.22390951855185 -4.67127232883288  0.12983013401340
 8 -5.66081026362636 -4.42621855525553  1.22631975227523
 8 -5.11432139533953 -5.91819570367037 -0.44324849624963
 6 -5.22520586978698 -6.92980657175718  0.59385692049205
 6  2.34019070067007 -5.08083434363436  0.93777175847585
 6  3.40533384348435 -3.98491999129913  1.13621490729073
 6  4.06689579327933 -3.25291511241124  0.21914428942894
 6  3.68446334363436 -3.22313550195019 -1.23521118991899
 6  5.26496070207021 -2.36073034123412  0.65582743364336
 6  6.50801640634063 -2.63483843684368 -0.08348802290229
 6  7.63070219691969 -1.73153479927993  0.35069890449045
 6  8.96846545504551 -1.91966794879488 -0.22355906910691
 6  9.48841592169217 -3.36137604010401 -0.07445432043204
 6  9.93787922352235 -0.93472409330933  0.38433639703970
 6  11.26921007830783 -0.73961675677568 -0.43686899749975
 6  12.26524414501450  0.39484867536754  0.09695048324832
 6  13.59178857295730  0.45515520242024 -0.66436619381938
 6  14.46397457045705 -0.77489821982198 -0.46993367856786
 6  14.29190912911291  1.69259403160316 -0.19790743314331
 6  15.51588086898690  2.16158809410941 -1.07799490719072
 6  16.03095271497149  3.46474898489849 -0.65517661066107
 6  17.49586398109811  3.88959787528753 -1.34408545634563
 6  17.14418340044005  4.10106566926693 -2.91996431643164
 6  18.05380880008001  5.10832895889589 -0.53977493449345
 1 -3.11259676557656  1.07945480908091  3.76674428562856
 1 -6.56162704560456  5.56178238043804  0.83129289198920
 1 -8.57346254535454  1.36789105060506 -3.22736811771177
 1 -3.80174723992399 -3.31368448514851  1.85944168626863
 1 -2.01677276327633 -1.32668027622762  2.96279844584459
 1 -2.84198352355236 -2.77670425132513  4.20673061896190
 1 -3.49263586368637 -1.21141325902590  4.78984512041204
 1 -4.62179385518552 -2.26237415541554  3.73849707230723
 1 -2.22319948554855 -3.01435448044804 -0.27244497909791
 1 -1.46083678337834 -1.70570919831983  0.39079992129213
 1 -0.90231462156216 -3.01323129542954  2.46370091119112
 1 -1.54992447104710 -4.44862169846985  1.87063610031003
 1 -1.71452010411041  3.65216990369037  4.03529591069107
 1 -2.89861751575158  4.52035167426743  4.98887455035503
 1 -2.94002393489349  2.78808200230023  4.90882785958596
 1 -5.34386824612461  6.67322530503050  2.23493560936094
 1 -9.86078006050605  2.72179933183318 -3.33247440204020
 1 -10.15890337323732  4.46093362786279 -2.99307229982998
 1 -9.30099586048605  4.05852375237524 -5.38332464306431
 1 -8.03051701770177  4.94574651525152 -4.72944262606261
 1 -7.83253352825283  3.13066738063806 -4.75908002270227
 1 -8.10969755135514 -1.05578883658366 -4.66584655365537
 1 -8.26676630453045 -2.78488554885489 -4.19177852175218
 1 -9.51384463356336 -1.67835447004700 -3.80123440854085
 1 -4.18784056005601 -3.76683250625062 -1.55704063416342
 1  2.64307225102510 -5.97985527862786  1.40339872777278
 1  2.18553187978798 -5.26350487688769 -0.14005944104410
 1  3.85927190959096 -3.75392551485149  2.25205356945695
 1  2.85542299419942 -4.06952850775078 -1.68306095619562
 1  3.47157449544954 -2.22445714631463 -1.71205942344234
 1  4.52375488288829 -3.61829368566857 -1.83435489278928
 1  4.58191206020602 -1.45324086868687  0.73406379747975
 1  5.37410976937694 -2.70824514171417  1.76326021232123
 1  6.63748296829683 -3.78883318281828 -0.06044672297230
 1  6.26054489398940 -2.68027024302430 -1.15334502070207
 1  7.43939474107411 -0.62760931523152  0.01477023032303
 1  7.89106801700170 -1.68295654415441  1.56241371377138
 1  8.95913181278128 -1.74941298199820 -1.22686090479048
 1  8.99270143554355 -4.02662152205221 -0.52443491369137
 1  10.47507053645364 -3.49398275297530 -0.45458304020402
 1  9.54446119371937 -3.76361208980898  1.05083604660466
 1  9.65951701260126  0.11923033343334  0.50801997639764
 1  10.07910686928693 -1.22131045034503  1.43771470877088
 1  11.68505043614362 -1.63542086378638 -0.39687899569957
 1  10.92429837003700 -0.40243187868787 -1.40758160186019
 1  11.42662268036804  1.26109918171817  0.14871766136614
 1  12.34324508320832 -0.06670538723872  1.12427160226023
 1  13.33601434373437  0.59491423422342 -1.71903810861086
 1  14.74028425562556 -0.72813583088309  0.55765086258626
 1  13.99336972347235 -1.74883806270627 -0.82629888398840
 1  15.37073693019302 -0.68415174287429 -0.96126852985299
 1  13.46095534113411  2.27074537373737 -0.08936881418142
 1  14.74050166236624  1.75905231973197  0.90940976827683
 1  16.29453818091809  1.35446090759076 -1.04601241624162
 1  15.16300109560956  2.20046829822982 -2.07015054595460
 1  15.40722218431843  4.23352656035603 -0.93747502750275
 1  16.13371300520052  3.47596355575558  0.52914537333733
 1  18.13143296009601  2.90829433793379 -1.35416980488049
 1  16.44194133093309  4.95186246514651 -2.96359063796380
 1  18.08398078797880  4.63336973017302 -3.22738017161716
 1  16.95507019231923  3.19757466866687 -3.44431498469847
 1  18.17657553155315  4.93962461546155  0.52729189488949
 1  18.95885349614962  5.56922314881488 -1.06233837493749
 1  17.14677724752475  6.01962637273727 -0.37230558265827
 1 -4.86480436503650 -7.86060716011601  0.17140282428243
 1 -6.29284977627763 -7.18803818521852  0.88148799209921
 1 -4.67741995939594 -6.80719059525953  1.45117798619862
 8 -7.86564946024602  6.94407443884388 -0.52493592199220
 1 -9.13414679847985  6.14652206790679 -1.83081154865487

