%nproc=3
%Mem=2GB
# td=(NStates=1) iop(3/107=0140000000,3/108=0140000000) iop(3/107=0140000000,3/108=0140000000) CAM-B3LYP/6-31G(d,p) 

TD

0 1
12 -5.56218194939494  1.30084011171117  0.05852852165217
 6 -5.00909103090309 -2.09419338403840 -0.39049211431143
 6 -3.43632509240924  1.19035157665767  2.73307474567457
 6 -6.26352277457746  4.57989601270127  0.65241760296030
 6 -8.05291620962096  1.08237692009201 -2.33360745464546
 7 -4.41214829932993 -0.27956387948795  1.06867703470347
 6 -4.23655887628763 -1.61780296169617  0.68434215271527
 6 -3.22506390809081 -2.36891809040904  1.44550013861386
 6 -2.99131328672867 -1.32489315901590  2.64903168976898
 6 -3.65185198519852 -0.12519167176718  2.15431609020902
 6 -3.67570967896790 -1.88433512611261  4.08832669206921
 6 -1.94951979527953 -2.59062305550555  0.59792397849785
 6 -0.99426718961896 -3.37560264816482  1.46994087098710
 6  0.28922478987899 -3.83007787988799  0.68675683678368
 8  0.44155800970097 -3.61340102890289 -0.48611862726273
 8  1.14534621682168 -4.69182432723272  1.42917890639064
 7 -4.90934948594859  2.63845408210821  1.42577926452645
 6 -4.08267235443544  2.37356537253725  2.55865109090909
 6 -3.81396193339334  3.58364844734473  3.25061400580058
 6 -4.53281903760376  4.57554602010201  2.56896278047805
 6 -5.29291865426543  3.98433310981098  1.54542969486949
 6 -2.88952757765777  3.75347243094309  4.41372524302430
 6 -4.61358405840584  5.96326636083608  2.92065750255026
 8 -4.11443393069307  6.51467629782978  3.85344931743174
 7 -6.90124177377738  2.63992192469247 -0.70449311701170
 6 -7.01620381818182  4.00360076557656 -0.36824502760276
 6 -7.97083222342234  4.67495855265527 -1.21063387248725
 6 -8.39874290709071  3.64210334043404 -2.07992254465447
 6 -7.72624643614361  2.46227440154015 -1.82990676047605
 6 -8.28416069476948  6.06320769046905 -1.18475961056106
 6 -9.45105158355836  3.74407534583458 -3.15063761236124
 6 -8.83761274197420  3.97802916601660 -4.56364961166117
 7 -6.25067083438344 -0.14142932313231 -1.25367638803880
 6 -7.34292789948995 -0.02379328492849 -2.19982590519052
 6 -7.66225934253425 -1.39976512921292 -2.74942796739674
 6 -6.77310279397940 -2.18539231253125 -2.05899510941094
 6 -5.96319424292429 -1.38598262776278 -1.16351421612161
 6 -8.60881625632563 -1.64837462606261 -3.88517943734373
 6 -6.32272589968997 -3.51887099309931 -2.04104949884989
 8 -6.73486672727273 -4.45985095519552 -2.66118636433643
 6 -5.10150040354035 -3.53633540024002 -0.96069269006901
 6 -5.19152628022802 -4.60466566816682  0.15785293629363
 8 -5.60300448304830 -4.41438737213721  1.29622674297430
 8 -4.89685964916492 -5.89358324242424 -0.29236340774077
 6 -5.25546889608961 -6.92817640874087  0.54141167596760
 6  2.35438211981198 -4.97400366056606  0.69363734503450
 6  3.47967127722772 -4.08368986828683  1.03301458725873
 6  4.05944504820482 -3.28143796469647  0.17288966396640
 6  3.70574547184718 -2.98462165056506 -1.23520118891889
 6  5.12749695569557 -2.38088235643564  0.64755660656066
 6  6.55478108280828 -2.71641659465947  0.06765709160916
 6  7.64895402210221 -1.79858150395040  0.62165600020002
 6  8.99636824532453 -2.07154313631363 -0.02383909710971
 6  9.51847892799280 -3.52832273477348  0.22665579057906
 6  10.08019345494550 -1.07201782268227  0.59951791519152
 6  11.31845500280028 -0.92054484958496 -0.28840415101510
 6  12.29162678327833  0.23174236473647  0.11692248044804
 6  13.68062745684568  0.37142682958296 -0.66631638883888
 6  14.64042221522152 -0.82811354135414 -0.54120080528053
 6  14.28269820802080  1.76116088828883 -0.23987162956296
 6  15.66344562546255  2.05013694899490 -0.99440654835484
 6  16.09984960466047  3.56055856585659 -0.61400249324932
 6  17.26756115081508  4.01148006350635 -1.41005205300530
 6  17.09225820792079  4.15837139983998 -2.94626694669467
 6  17.99575299449945  5.36008413441344 -0.81635259225923
 1 -2.86717222312231  1.09563642724272  3.52280989218922
 1 -6.24474535743574  5.69213541574157  0.82490225292529
 1 -8.78903410251025  1.00240450195020 -3.01130651155116
 1 -3.75422248744874 -3.24169728642864  1.88215395749575
 1 -1.85559664566457 -1.04983259145915  2.97512967896790
 1 -3.09484881008101 -2.60112669356936  4.57711765766577
 1 -3.85510211031103 -0.95310742844284  4.76118225412541
 1 -4.59396107190719 -2.26842476047605  3.71332455505551
 1 -2.16392355795580 -3.06562960796080 -0.23191092569257
 1 -1.49020972067207 -1.73144177157716  0.33811465276528
 1 -0.81437582768277 -2.88173814611461  2.50281482258226
 1 -1.62296177477748 -4.32533937023702  1.63033206990699
 1 -1.90941959405941  3.54696938363836  3.95773815491549
 1 -2.78238589258926  4.73150278937894  4.85147080998100
 1 -3.08757869036904  2.79218241234123  5.12637961476148
 1 -5.19521338063806  6.44399238173817  2.17728984478448
 1 -10.16684066656666  2.94136128802880 -3.04929608420842
 1 -9.96962444534453  4.71240877537754 -2.92742573517352
 1 -9.73608936983698  4.27843574357436 -5.23464977557756
 1 -8.00094406040604  4.97212915351535 -4.48596827862786
 1 -8.26446672157216  3.22377669156916 -4.93357747244724
 1 -8.41720830243024 -0.92529578727873 -4.67906787578758
 1 -8.48157778567857 -2.76531359165917 -4.31308065196520
 1 -9.64726797589759 -1.51159779437944 -3.63638792389239
 1 -4.22555433143314 -3.85467129012901 -1.62359728982898
 1  2.57178512231223 -6.03872116521652  1.05233362126213
 1  2.18613193979398 -5.20402892929293 -0.30809624472447
 1  3.95250123252325 -4.02561268356836  2.09093745784578
 1  2.68883633553355 -3.38314986988699 -1.72300495059506
 1  3.44415175317532 -1.96154085468547 -1.53469168666867
 1  4.59817232463246 -3.48292014831483 -2.04282573987399
 1  4.75237910691069 -1.20003554815481  0.50839123022302
 1  5.06114847324733 -2.33246756395640  1.82046593289329
 1  6.87813703370337 -3.63608790829083  0.47924724642464
 1  6.51248008750875 -2.53453566956696 -0.85914560076008
 1  7.33711451305131 -0.70123667796780  0.39960871417142
 1  7.68792770297030 -2.18494674317432  1.79354682708271
 1  9.12080798039804 -1.68191623232323 -1.18575679437944
 1  8.86138830423042 -4.21829068896890 -0.14222669286929
 1  10.30890391979198 -3.77659101380138 -0.40177775967597
 1  9.71265801340134 -3.77805353395340  1.31307227022702
 1  9.34425548644864 -0.20412200180018  0.73192236663666
 1  10.27873683228323 -1.28706702600260  1.60559149644964
 1  11.80960289138914 -1.92925024672467 -0.21905121292129
 1  11.02549849004900 -0.74125576107611 -1.27486833053305
 1  11.73731374947495  1.36365943774377  0.04099688928893
 1  12.50697145584559 -0.01934065076508  1.03730290539054
 1  13.25089583188319  0.47055179797980 -1.63508971377138
 1  14.48436866406641 -0.97158017531753  0.58077317481748
 1  14.27739812631263 -1.76074925382538 -1.15930218431843
 1  15.74312416891689 -0.47281060876088 -0.92869527252725
 1  13.46594584018402  2.56364466366637 -0.29603948124812
 1  14.42802041424142  1.79238565306531  1.10537936523652
 1  16.52171089818982  1.30532599409941 -0.83090090509051
 1  15.21120591609161  2.17325557695770 -2.09525305620562
 1  15.32574403650365  4.24891809950995 -0.71295257525753
 1  16.34415404930493  3.55823178257826  0.50155261406141
 1  18.23912372917292  3.31098460696069 -1.30540492839284
 1  16.35696283308331  4.78241552045205 -3.08243252215222
 1  18.03074546444644  4.44212060526053 -3.39006644024402
 1  16.97550223552355  3.20604551575158 -3.56002655585559
 1  18.14873274727472  5.27455810881088  0.14100326602660
 1  18.88901651245125  5.60027625412541 -1.38714085518552
 1  17.36286885668567  6.24496890699070 -0.99387773987399
 1 -5.09023690829083 -8.00057115651565  0.06327201120112
 1 -6.36247673897390 -7.05964534593459  0.62852269556956
 1 -4.85082730013001 -6.86396627282728  1.52187505590559
 8 -7.83907680298030  6.91115114651465 -0.36675010341034
 1 -8.75169855365537  6.45233264896490 -1.86850531803180

