%nproc=3
%Mem=2GB
# td=(NStates=1) iop(3/107=0140000000,3/108=0140000000) iop(3/107=0140000000,3/108=0140000000) CAM-B3LYP/6-31G(d,p) 

TD

0 1
12 -5.56752248344834  1.28425845354535  0.24227689648965
 6 -4.99309943174317 -2.10558452315232 -0.39861292639264
 6 -3.39467092699270  1.27813035453545  2.80705214341434
 6 -6.27801422372237  4.51374939803980  0.77999036023602
 6 -8.05440635863586  1.20223890629063 -2.46579067296730
 7 -4.40867795229523 -0.27923384648465  1.00424059105911
 6 -4.30156537693769 -1.62164334573457  0.56777049554956
 6 -3.27145854755476 -2.29132033063306  1.51471706030603
 6 -2.96740089548955 -1.38444911461146  2.70153694029403
 6 -3.64433123312331  0.03589443684368  2.20833149174917
 6 -3.35277738573857 -1.72132882548255  4.10471833123312
 6 -2.00199504280428 -2.76484047724772  0.70725491159116
 6 -0.90403816671667 -3.64342943084308  1.49230310721072
 6  0.31176704410441 -4.06719159125913  0.65574373547355
 8  0.45654950885088 -3.52079176797680 -0.39038905430543
 8  1.04247592979298 -4.90047519231923  1.34865085358536
 7 -5.00920947194719  2.60641087778778  1.56078276487649
 6 -3.99931401860186  2.52802081808181  2.38247347314731
 6 -3.65118565576558  3.61209129162916  3.09107805220522
 6 -4.51554731043104  4.64991345684568  2.53967985218522
 6 -5.21309067146715  3.96136081258126  1.52457760966097
 6 -2.65053367826783  3.89949703340334  4.21928579907991
 6 -4.66909960996100  6.03308334253425  2.84473991079108
 8 -4.03104559185919  6.69553438363836  3.76528050055005
 7 -6.87747939753975  2.51149908240824 -0.69496216391639
 6 -6.95882808060806  3.83753415891589 -0.40677888098810
 6 -7.90032517271727  4.55184624142414 -1.16841965106511
 6 -8.42716574937494  3.60397952805281 -2.09845439783978
 6 -7.75546935843584  2.39165733983398 -1.75663943374337
 6 -8.20853313201320  6.00842221192119 -1.12576371097110
 6 -9.47272375077508  3.93375431373137 -3.20732328092809
 6 -8.76437541824182  4.21385274837484 -4.53156640334033
 7 -6.36265203250325 -0.05165034523452 -1.11575259565957
 6 -7.37270087678768  0.02094118851885 -2.13069899249925
 6 -7.47710082668267 -1.30774592729273 -2.79342236683668
 6 -6.61766725042504 -2.20284405770577 -2.12373158305831
 6 -5.92893081658166 -1.32440647014701 -1.19571743644364
 6 -8.47103247794780 -1.59494928352835 -3.92941386078608
 6 -6.14991861896190 -3.53563266926693 -1.98382377627763
 8 -6.55746898749875 -4.55724069416942 -2.60130037573757
 6 -4.98008826232623 -3.45468723542354 -0.87863448424842
 6 -5.24404153175318 -4.60577577917792  0.15155230623062
 8 -5.63462764536454 -4.31689762316232  1.27881500180018
 8 -4.91640160336034 -5.81973585768577 -0.27663183458346
 6 -5.28152150135014 -6.89010260136014  0.67316485128513
 6  2.29440612221222 -5.25490175037504  0.68874685598560
 6  3.42155546564656 -4.25848734803480  1.09709099489949
 6  4.07897700140014 -3.41987180808081  0.28325070007001
 6  3.55946084338434 -3.16906009440944 -1.24033170197020
 6  5.25689989598960 -2.60809507770777  0.62984483538354
 6  6.55641124582458 -2.94116906990699 -0.08886856095610
 6  7.59321844854485 -1.96715836163616  0.44228806340634
 6  9.10247885638564 -2.04588057005701 -0.20061677487749
 6  9.65062214231423 -3.43476337883788 -0.03759063406341
 6  10.00153558915892 -0.94272489338934  0.40237820122012
 6  11.35238839613961 -1.00717351245125 -0.27490280088009
 6  12.16355397599760  0.32720191069107  0.12151293949395
 6  13.46000539463946  0.47841752865287 -0.57457721492149
 6  14.39804797779778 -0.71042177217722 -0.39278596379638
 6  14.09317925612561  1.79714448664866 -0.14950259265927
 6  15.31592087298730  2.14213614891489 -0.99932704040404
 6  15.78230785048505  3.56614912491249 -0.65963705670567
 6  17.18420281498150  4.08192710821082 -1.27883893169317
 6  16.98157713981398  4.21570713341334 -2.79945226522652
 6  17.67378079727973  5.35337346334634 -0.64157511451145
 1 -2.84517002290229  1.24319118271827  3.69506711791179
 1 -6.32777366026603  5.67109331153115  0.66693645634563
 1 -8.81223642274227  1.14363862536254 -3.22503788468847
 1 -3.82362942814281 -3.25346846354635  1.86240198229823
 1 -1.75874696069607 -1.02126973517352  2.63620578657866
 1 -2.54981430663066 -2.43753033393339  4.37043698959896
 1 -3.24937153725373 -0.91297341504150  4.66713284918492
 1 -4.43210488628863 -2.04100201820182  4.10713393599360
 1 -2.29920708630863 -3.41421446644664 -0.07625536013601
 1 -1.22197289698970 -2.05202382978298  0.18260910221022
 1 -0.68374276437644 -2.83007297959796  2.33025756685669
 1 -1.40712019061906 -4.53441027732773  2.03739277597760
 1 -1.71048970107011  3.67600228692869  3.75746812791279
 1 -2.74375202920292  4.97694733383338  4.54908057095710
 1 -2.68858879137914  3.30669386348635  5.24394137093709
 1 -5.14688854815481  6.49554753725373  2.09406152195220
 1 -10.14140812331233  3.05782293419342 -3.29833098769877
 1 -9.91709919281928  4.75581311581158 -2.96538953155315
 1 -9.55052081298130  4.44155205520552 -5.33756006660666
 1 -8.04578854485449  5.03534547514751 -4.67832751455146
 1 -8.18396867176718  3.33107742164216 -4.98813292799280
 1 -8.06817339893989 -1.05926918461846 -4.92499246824682
 1 -8.63509313721372 -2.62014907520752 -4.23536288018802
 1 -9.48402165126513 -1.03369000360036 -3.74938922402240
 1 -4.25039681568157 -3.87756357935793 -1.74195912601260
 1  2.46186413021302 -6.30421771487149  0.93274166206621
 1  2.24947827442744 -5.13511203760376 -0.29905534063406
 1  3.71579756215622 -4.42626274857486  2.18206657075708
 1  2.72794024592459 -3.47585914081408 -1.58351100120012
 1  3.89450678867887 -2.22172687328733 -1.64151236873687
 1  4.29101160856086 -3.81029288558856 -1.85883734103410
 1  4.93086695569557 -1.45943148774877  0.60463085418542
 1  5.38260061846185 -2.64038835603560  1.66910079637964
 1  6.86295551555155 -3.88796309580958  0.05316463816382
 1  6.62724156365636 -2.79292150815082 -1.38252793899390
 1  7.10081088268827 -1.06653320762076  0.18021677497750
 1  7.86810572077208 -2.06651489999000  1.63421089348935
 1  9.03527942754275 -1.91942998369837 -1.32952117081708
 1  9.02326449184918 -4.32579143904390 -0.80126259645965
 1  10.78945197459746 -3.52851620632063 -0.22952053395340
 1  9.59855660326033 -4.01491722032203  1.19082004500450
 1  9.51336239713971  0.02790120052005  0.01538071247125
 1  10.26221518011801 -1.35212353165317  1.48860979827983
 1  11.77208914001400 -1.90701802350235  0.06495718791879
 1  11.20197613781378 -1.00282191769177 -1.34516536023602
 1  11.62144216231623  1.17543061486149 -0.18637584798480
 1  12.24348510721072  0.55204648794879  1.18803797889789
 1  13.39593033533353  0.54771951475147 -1.66454265906591
 1  14.65344557175718 -0.70266328362836  0.72997809530953
 1  13.91447183368337 -1.59850302920292 -0.58695494959496
 1  15.21289114561456 -0.83720704840484 -1.04509691269127
 1  13.38069731533153  2.59132743194319 -0.34929480678068
 1  14.47695530773077  1.69730614511451  0.76575540284028
 1  16.30754948204820  1.62891835333533 -0.59272708770877
 1  15.20162495799580  1.93517176857686 -2.17618114901490
 1  14.86707816991699  4.24465767346735 -0.88350963096310
 1  16.05160479437944  3.74393035243524  0.31357381618162
 1  18.00167998479848  3.28249175767577 -1.03746813471347
 1  16.47971510831083  5.11715899479948 -3.06598087698770
 1  17.92396478637864  4.64703109630963 -3.11532896649665
 1  16.72123680898090  3.47606251745175 -3.35965651885188
 1  17.87936581058106  5.37355800880088  0.52545171087109
 1  18.60399801060106  5.63772999949995 -1.01142328342834
 1  16.84786735653566  6.18602301240124 -0.88438679077908
 1 -5.10183806840684 -7.89477057645765  0.04983066706671
 1 -6.37323781508151 -6.75236461786179  0.98824866816682
 1 -4.62106432383238 -6.89708958515852  1.59095196359636
 8 -7.69600249554955  6.89949998139814 -0.45192862126213
 1 -9.13556694049405  6.10228764446445 -1.90128859635964

