%nproc=3
%Mem=2GB
# td=(NStates=1) iop(3/107=0140000000,3/108=0140000000) iop(3/107=0140000000,3/108=0140000000) CAM-B3LYP/6-31G(d,p) 

TD

0 1
12 -5.53842957415742  1.24639466716672  0.11999466826683
 6 -4.98632875467547 -2.21181514621462 -0.36905997109711
 6 -3.47468892879288  1.12984552605261  2.75333677187719
 6 -6.22933935623562  4.60278830193019  0.61522388358836
 6 -7.95040595859586  1.20333901630163 -2.38592268616862
 7 -4.36159324382438 -0.30789671277128  1.02958312531253
 6 -4.34273949434944 -1.57478866026603  0.65945966446645
 6 -3.31924332603260 -2.38721992059206  1.56875246384638
 6 -2.99430358575858 -1.32222289198920  2.67326411301130
 6 -3.59350615061506 -0.07352650525053  2.08570922952295
 6 -3.71095320332033 -1.69452614521452  3.98630649004900
 6 -1.97314215751575 -2.67303129632963  0.66290047614761
 6 -1.03109087198720 -3.59370445834583  1.45483936083608
 6  0.24094996239624 -3.83105797789779  0.61092925402540
 8  0.52522637653765 -3.36673636243624 -0.50838085348535
 8  1.07531921412141 -4.69913505830583  1.28192418091809
 7 -4.90800935193519  2.64067430413041  1.47015370197020
 6 -4.02775686288629  2.47486550255026  2.44810003580358
 6 -3.85943648084808  3.62281236373637  3.20244918931893
 6 -4.60419617531753  4.59629809530953  2.61865774997500
 6 -5.29556891929193  4.02680735723572  1.49291444334433
 6 -2.78153677857786  3.84711179487949  4.32118598909891
 6 -4.65489818981898  6.01078111231123  2.98289372617262
 8 -4.00969345664566  6.49018384858486  3.88612258475848
 7 -6.83910556015601  2.60081801430143 -0.75060772847285
 6 -7.02932513031303  3.92744314981498 -0.45144334743474
 6 -7.95859099929993  4.58947000380038 -1.19431224032403
 6 -8.39516254905491  3.69629875997600 -2.08696324872487
 6 -7.70822463396340  2.43774194829483 -1.84627839763976
 6 -8.40744302300230  5.98496986668667 -1.09667080168017
 6 -9.46552303070307  3.76218715701570 -3.17129967856786
 6 -8.87300628132813  3.84976633973397 -4.56928017471747
 7 -6.47319308660866 -0.11615679587959 -1.01955297569757
 6 -7.38464207090709 -0.04828573417342 -2.05361128372837
 6 -7.58565168176818 -1.29960511321132 -2.67260028462846
 6 -6.67767325102510 -2.16113988728873 -2.01695090499050
 6 -5.98901682518252 -1.38306233573357 -1.05578344304430
 6 -8.37009238393839 -1.62229201780178 -3.79615053445345
 6 -6.25925955305531 -3.49347845384538 -2.13597899179918
 8 -6.48259149974997 -4.58706367646765 -2.64598484418442
 6 -5.09169942344234 -3.56006777347735 -0.85220184098410
 6 -5.44056118371837 -4.62721792339234  0.15140229122912
 8 -5.81117530013001 -4.47542347574757  1.25317243754375
 8 -5.13264322752275 -5.83829771387139 -0.27398156955696
 6 -5.41735508470847 -6.78223181428143  0.58862639743974
 6  2.34512119371937 -4.90118637883788  0.54603258455846
 6  3.47150046014601 -4.02794429372937  0.97137842364236
 6  4.12921202490249 -3.16822664356436  0.14944731973197
 6  3.81259615691569 -3.09714290269027 -1.26361403020302
 6  5.30116432243224 -2.38604287248725  0.68000985188519
 6  6.64610021472147 -2.80526547954796  0.00310063596360
 6  7.77981710841084 -1.79452109790979  0.59763359795980
 6  9.11250985948595 -2.03756973897390 -0.13219993319332
 6  9.53855093519352 -3.43987388988899  0.04650777577758
 6  10.13322875847585 -0.99410003090309  0.43406136953695
 6  11.45458861616162 -0.97563035813581 -0.25646095669567
 6  12.27204482508251  0.28198738923892  0.18388917711771
 6  13.70516991109111  0.42502218911891 -0.56139589678968
 6  14.65369354235423 -0.75276600660066 -0.26346303150315
 6  14.30241017921792  1.82100687288729 -0.20077772017202
 6  15.45601488238824  2.10812274757476 -1.05216232393239
 6  15.93271289098910  3.45005751575158 -0.56817791079108
 6  17.24883927862786  3.94583349884988 -1.31035208300830
 6  17.06070505260526  4.08226378907891 -2.90927324732473
 6  17.94756817601760  5.21102922892289 -0.82237319431943
 1 -2.61514702060206  1.19209607320732  3.55872348354835
 1 -6.45215609850985  5.57565376757676  0.76437620032003
 1 -8.72720791989199  1.32836709820982 -3.25903128402840
 1 -3.68825589078908 -3.24759787648765  1.93502924502450
 1 -1.89118020402040 -1.29657726592659  2.88898106410641
 1 -3.35730505570557 -2.64642122302230  4.26781672757276
 1 -3.42681928202820 -0.97291940964096  4.76587272317232
 1 -4.69984165996600 -1.70775869386939  3.95987921052105
 1 -2.20773793939394 -3.35642868786879 -0.27695543014301
 1 -1.53686438613861 -1.71215984338434  0.32220306160616
 1 -0.82199658975898 -3.12104207650765  2.31007554865487
 1 -1.47668714731473 -4.59282611891189  1.51959099579958
 1 -1.80753940604060  3.62133682038204  3.77129951105111
 1 -2.61713936793679  4.82495213431343  4.54570023292329
 1 -3.13583351585158  3.33697689178918  5.27566454325433
 1 -5.26367022632263  6.67978596109611  2.34544666046605
 1 -10.07854183668367  2.77222437433743 -3.04915607020702
 1 -10.16657414031403  4.65036257075707 -2.98766175877588
 1 -9.66222198309831  4.00923882388239 -5.32868917951795
 1 -8.20376434243424  4.79672161276128 -4.58038772057206
 1 -8.12384265916592  3.00920523442344 -4.90982509720972
 1 -8.04398097969797 -0.84062732043204 -4.71582155115512
 1 -8.34088371627163 -2.69652671297130 -3.99949929382938
 1 -9.53634688378838 -1.55617225182518 -3.68410269536954
 1 -4.15100687668767 -4.12991881488149 -1.41788671877188
 1  2.73132107590759 -5.93858115121512  0.75686407430743
 1  2.10141346794680 -5.06596512291229 -0.57780321542154
 1  3.94304028642864 -4.11652177447745  2.03682204630463
 1  2.95056250815081 -3.39357091199120 -1.25163781388139
 1  3.92760009800980 -2.25274997559756 -1.68579679717972
 1  4.46819932733273 -3.86456831313131 -1.50435189248925
 1  5.08808267726773 -1.51566711131113  0.24439483058306
 1  5.26757911631163 -2.62645696289629  1.77318120442044
 1  6.91486070607061 -3.84904920442044  0.26346566826683
 1  6.77032587208721 -2.66744896089609 -1.08521820802080
 1  7.29612041364136 -0.85802235653565  0.44026277957796
 1  7.87249615981598 -1.90422867136714  1.63284075647565
 1  8.96975287488749 -1.84669270997100 -1.29605782448245
 1  8.70987315271527 -4.20569942984298 -0.19499196939694
 1  10.57929095849585 -3.58151150585058 -0.77971555345535
 1  9.88810555815582 -3.67315304390439  1.07578854185419
 1  9.74927598849885  0.17374578497850  0.12932210661066
 1  10.24245320392039 -1.33572189148915  1.47632857015702
 1  12.12256418751875 -1.81276859855986 -0.13268257605761
 1  11.21313725392539 -0.94389602510251 -1.25635647934794
 1  11.60649066716672  1.23971704350435 -0.21936914731473
 1  12.52114287298730  0.21023230653065  1.23851302640264
 1  13.37203794609461  0.54332907570757 -1.51702790759076
 1  14.65308553575358 -0.91365438273827  0.75807090459046
 1  14.18556894339434 -1.67118029692969 -0.68834508860886
 1  15.65799565606561 -0.72077540524052 -0.70812321532153
 1  13.37719696529653  2.48201650085008 -0.32252212951295
 1  14.55206281848185  1.93048946344635  0.72114094139414
 1  16.01580030713071  1.31400686218622 -0.99679749474948
 1  15.21247604310431  2.00989924132413 -2.21492502340234
 1  15.17979944204420  4.27282048974898 -0.82762404240424
 1  16.01890152405240  3.11458741814181  0.56231869066907
 1  17.79594941174118  2.97160066856686 -1.32290667856786
 1  16.15281241804180  4.82762004090409 -2.93868814771477
 1  18.02854524442444  4.50312670587059 -3.27301473507351
 1  16.73242792809281  3.09121403260326 -3.36363691689169
 1  18.04053192719272  4.97596824982498  0.28329749544955
 1  18.90715832663266  5.49783601010101 -1.29334147524752
 1  17.27406997679768  6.13592800290029 -0.95348370047005
 1 -5.04478236283628 -7.79318041744174  0.30759644364436
 1 -6.48214870617062 -6.87780716211621  0.62330217351735
 1 -4.88182039943994 -6.54900477667767  1.50527339573957
 8 -7.89694258955896  6.75491552295230 -0.37292072047205
 1 -9.22820620442044  6.45482289798980 -1.75950441794179

