%nproc=3
%Mem=2GB
# td=(NStates=1) iop(3/107=0140000000,3/108=0140000000) iop(3/107=0140000000,3/108=0140000000) CAM-B3LYP/6-31G(d,p) 

TD

0 1
12 -5.59736546774677  1.22777280498050  0.17539020782078
 6 -4.98149827162716 -2.13228719341934 -0.35889895499550
 6 -3.25022648254826  1.22597513901390  2.70145158335834
 6 -6.19891631393139  4.52116013911391  0.55495785698570
 6 -8.02631354935493  1.15640432283228 -2.32383647754775
 7 -4.42122920742074 -0.30153607670767  1.13777394439444
 6 -4.30184540494049 -1.54437561896190  0.71602532103210
 6 -3.17228863056306 -2.28617981658166  1.50368595719572
 6 -2.90206436183618 -1.23841451115112  2.60374716131613
 6 -3.51119791979198  0.03257410481048  2.08354901350135
 6 -3.35254736273627 -1.72241893449345  4.00223808320832
 6 -1.97206204950495 -2.60751474467447  0.56517070317032
 6 -1.02337009990999 -3.54487957585759  1.29444332123212
 6  0.21971783918392 -3.88497336943694  0.51578974007401
 8  0.54820867476748 -3.57440712951295 -0.63369338473847
 8  1.05844752695270 -4.69173431823182  1.24584057255726
 7 -4.85049360036004  2.72982321902190  1.34289097569757
 6 -3.96987107430743  2.47565558155816  2.38576380218022
 6 -3.77407794499450  3.76745682818282  3.15659460386039
 6 -4.48882463816382  4.70651911741174  2.44279016321632
 6 -5.24339370177018  3.96100077657766  1.43835898779878
 6 -2.82306093099310  3.88930601430143  4.39923379387939
 6 -4.61961466146615  6.21319135333533  2.74860029682968
 8 -4.04094658195820  6.62383721392139  3.72124609710971
 7 -6.95438708830883  2.56568450095009 -0.64866753445345
 6 -6.95063726152615  3.91031143664366 -0.37755595869587
 6 -7.95523066326633  4.57140819761976 -1.12909571867187
 6 -8.45069810261026  3.61819094919492 -1.98703325572557
 6 -7.78817262876288  2.38936711081108 -1.71430520032003
 6 -8.39679195789579  5.95968733843384 -1.10334146874687
 6 -9.44904138253825  3.71049198749875 -3.06030857945795
 6 -8.85023400410041  3.81010237333733 -4.45565881258126
 7 -6.29992575987599 -0.10934611481148 -1.08288930933093
 6 -7.37131073777378 -0.04268517411741 -2.02755867846785
 6 -7.55523864046405 -1.34572972567257 -2.69983300790079
 6 -6.65020050375038 -2.16604037733773 -2.10572978287829
 6 -5.93198112161216 -1.41531556105611 -1.04092195689569
 6 -8.63589896459646 -1.70000978957896 -3.68335925532553
 6 -6.26424005110511 -3.52738184418442 -1.97828322222222
 8 -6.56257949854986 -4.49020399049905 -2.64705495119512
 6 -5.09575982948295 -3.56368813551355 -0.83855047584758
 6 -5.42550967856786 -4.61159636123612  0.15683283428343
 8 -5.86272045464546 -4.44928086148615  1.25193231353135
 8 -5.20293025622562 -5.91268515261526 -0.32517668906891
 6 -5.41720506970697 -6.95050864196420  0.62876041084108
 6  2.37041372297230 -5.03453971417142  0.60255823712371
 6  3.38715202530253 -4.11519301860186  0.87311859765977
 6  4.10580968466847 -3.29894971587159  0.11642401740174
 6  3.70909580688069 -3.18505169356936 -1.29688735753575
 6  5.31689589558956 -2.55092936113611  0.65945779667967
 6  6.61566717141714 -2.84603955695570 -0.03198287238724
 6  7.66555568226823 -1.85285693149315  0.54509834443444
 6  9.02669127762776 -1.96198218021802 -0.19126583978398
 6  9.69647672777278 -3.39089899239924  0.14939806480648
 6  10.03241867746775 -0.88682930383038  0.22256021942194
 6  11.32100525782578 -0.95363815891589 -0.37543285388539
 6  12.21451907250725  0.23055224572457  0.16609739793979
 6  13.52915230933093  0.51530121702170 -0.54411416861686
 6  14.43562173517352 -0.72539326932693 -0.35162184738474
 6  14.16923686188619  1.72026679887989 -0.07387502990299
 6  15.45066434733473  2.20141207650765 -0.83512061976198
 6  16.00220984068407  3.56814932493249 -0.47064815781578
 6  17.42842723742374  3.89928884438444 -1.22311335913591
 6  17.23372235433543  4.00888645134513 -2.77130945094509
 6  18.01000441964196  5.28018614461446 -0.71828278527853
 1 -2.42108761466147  1.36806366996700  3.48801641284128
 1 -6.30760164306431  5.68854505670567  0.66692645534553
 1 -8.70150534963496  1.18428268976898 -3.18791417231723
 1 -3.43131019621962 -3.29398251495149  1.87884362646265
 1 -1.84300538653865 -1.13371097929793  2.69468163416342
 1 -2.73354267946795 -2.55987256815682  4.31632157805781
 1 -3.14054065416542 -0.85054717241724  4.71459759565957
 1 -4.41674335013501 -2.01203912191219  4.06419964256426
 1 -2.54350151575158 -3.40976402140214 -0.16092382698270
 1 -1.41334203390339 -1.74339296669667  0.33031387268727
 1 -0.49208359845985 -3.08519849214922  2.27937247834784
 1 -1.42703218181818 -4.43195003130313  1.71746078277828
 1 -1.67818647074707  3.67578226492649  4.02082446354635
 1 -2.94791244524452  5.03035267436744  4.82370803370337
 1 -3.27308724122412  3.03542673677368  5.08536551335134
 1 -5.37848170747075  6.91520950345034  2.17111922772277
 1 -10.05882986548655  2.69092624452445 -3.03997515211521
 1 -10.03990147304730  4.64066160066007 -2.81763475607561
 1 -9.55627138803880  3.92031993199320 -5.29835614621462
 1 -8.22984695069507  4.65946788738874 -4.80491017281728
 1 -8.30490076497650  2.84039835373537 -4.62151626632663
 1 -8.26732331393139 -1.25572883058306 -4.75762573157316
 1 -8.60076970487049 -2.74402146244624 -3.96095543944394
 1 -9.53988723782378 -1.41825846044604 -3.50455474057406
 1 -4.12922469846985 -3.92492831583158 -1.45525045514551
 1  2.69177712151215 -6.13769106220622  0.80915930383038
 1  2.07836116271627 -5.15192371877188 -0.57366280138014
 1  3.74332031443144 -4.10194031633163  1.80189855395540
 1  2.80766821872187 -3.63181473637364 -1.75936858695870
 1  3.82379971797180 -2.18916361696170 -1.67358557605761
 1  4.54138664606461 -3.81837369366937 -1.79125058235824
 1  5.01810567956796 -1.59267481208121  0.23154354545455
 1  5.55617797619762 -2.54553887108711  1.74857874417442
 1  6.71460068006801 -3.78419271877188  0.33146246794679
 1  6.47969680918092 -2.56677889388939 -1.11450113631363
 1  7.31233203480348 -0.77823437773777  0.56526527982798
 1  7.97489639983998 -2.28443669216922  1.57584505690569
 1  8.94108000760076 -1.92991103180318 -1.28443666236624
 1  9.04113627902790 -4.26931579147915 -0.25408787898790
 1  10.48719174857486 -3.65735909060906 -0.33924150605061
 1  9.66978372597260 -3.32934866346635  1.26841780478048
 1  9.55337639853985  0.03656206660666  0.07390656505651
 1  9.98759771837184 -1.05501382068207  1.35045598289829
 1  11.82009394049405 -1.91956927862786 -0.08954826262626
 1  11.20611655185519 -1.03259489498950 -1.46762760646065
 1  11.67899791789179  1.13307637943794  0.19787257685769
 1  12.35496625532553 -0.13502221892189  1.18507768286829
 1  13.15538628092809  0.51036577937794 -1.58414461926193
 1  14.44340456765677 -1.06279929722972  0.92474757225723
 1  13.93411379787979 -1.60326350525053 -0.80545679977998
 1  15.51880173667367 -0.36792011971197 -0.80243264626463
 1  13.47055630123012  2.36534483368337 -0.27136701400140
 1  14.52960057225723  1.90561697619762  1.02012083938394
 1  16.22071079817982  1.46198165966597 -0.73320113511351
 1  15.27737253275327  2.05493374477448 -1.95074860576058
 1  15.26103756585658  4.34373758145815 -0.71441272127213
 1  16.31719135303530  3.60378633803380  0.58768122692269
 1  18.24428424522452  3.22895640414041 -0.81772616051605
 1  16.48037517431743  4.74861214011401 -3.01469574847485
 1  18.27642003190319  4.34548094129413 -3.12230966456646
 1  17.05102978827883  2.98752366356636 -3.33400395359536
 1  18.25137301130113  5.08818947194719  0.29747891359136
 1  18.91178878967897  5.90673690019002 -1.20588272937294
 1  17.51545411521152  6.38211262136214 -0.74480283238324
 1 -5.28538642324232 -8.02854395379538  0.17181286528653
 1 -6.34407489878988 -6.73677305870587  1.08086793009301
 1 -4.81298351575158 -6.85901577777778  1.43655652405241
 8 -8.00692358765876  6.82058208960896 -0.28970239863986
 1 -9.35061844564456  6.08265568126813 -1.68135660316032

