%nproc=3
%Mem=2GB
# td=(NStates=1) iop(3/107=0140000000,3/108=0140000000) iop(3/107=0140000000,3/108=0140000000) CAM-B3LYP/6-31G(d,p) 

TD

0 1
12 -5.68406413761376  1.25455548324832  0.30431310011001
 6 -4.97354747654765 -2.10167413211321 -0.26878994409441
 6 -3.35704716461646  1.15598814031403  2.79440087828783
 6 -6.19155557785779  4.59898792189219  0.71707406860686
 6 -8.00868178617862  1.15249393179318 -2.38704279817982
 7 -4.39543662816282 -0.23297922102210  1.14659482648265
 6 -4.24657987838784 -1.58464964636464  0.70115383388339
 6 -3.14995639733973 -2.27422862146215  1.51026661526153
 6 -2.82636679207921 -1.29481015071507  2.63737052365237
 6 -3.48292509250925  0.00095094249425  2.14967562616262
 6 -3.32175428342834 -1.72399909250925  4.00708856825683
 6 -1.98629347264726 -2.77667166036604  0.66701088718872
 6 -0.93818158105811 -3.57421250915092  1.36830070697070
 6  0.32927879527953 -3.82230710281028  0.60489865096510
 8  0.46040989488949 -3.54534422322232 -0.56677669306931
 8  1.09501118331833 -4.77401254605461  1.27090307880788
 7 -4.98797734873487  2.56979721642164  1.56549323592359
 6 -3.98711279847985  2.33422143814381  2.50372559835984
 6 -3.77897843504350  3.57532761526153  3.12158110251025
 6 -4.50522627832783  4.59600806630663  2.53274915911591
 6 -5.29301866426643  3.90008468496850  1.52236738863886
 6 -2.80824944984498  3.88269535323532  4.21743561406141
 6 -4.52768546854685  6.06798683288329  2.68485392219222
 8 -4.09315180248025  6.63599843004300  3.66882085458546
 7 -6.85203685328533  2.64353228572857 -0.72941560926093
 6 -6.93329552735274  3.94761516701670 -0.28303650675068
 6 -7.93616875707571  4.62702375917592 -1.22861567066707
 6 -8.48696172897290  3.63792292239224 -2.04051860426043
 6 -7.80975478697870  2.34949312341234 -1.73516728652865
 6 -8.31201348004801  6.01086245594559 -1.30752188678868
 6 -9.38008448684869  3.86078701700170 -3.18928147674767
 6 -8.75753473417342  4.01518288138814 -4.55540878757876
 7 -6.38156392369237 -0.09108428862886 -1.02563358375838
 6 -7.32729633633363 -0.02398330393039 -2.04190011261126
 6 -7.56742985958596 -1.29775492819282 -2.73883690829083
 6 -6.67481296499650 -2.17867164046405 -2.05593480338034
 6 -5.93511143464346 -1.38058208770877 -1.07173503820382
 6 -8.40949632433243 -1.58175796439644 -3.89656057545755
 6 -6.13724735183518 -3.54037314331433 -1.94573996789679
 8 -6.44256749734974 -4.49140411051105 -2.67113735943594
 6 -5.04163441694169 -3.54739650635064 -0.82778939973997
 6 -5.29444657225723 -4.65970117171717  0.12941009200920
 8 -5.80927511011101 -4.50882681608161  1.29094621492149
 8 -5.04708467166717 -5.88944282838284 -0.40840501190119
 6 -5.35136848604860 -6.86307989908991  0.57019455425543
 6  2.36520320192019 -4.99766602680268  0.48011599289929
 6  3.40845415551555 -4.04761626092609  0.89674095989599
 6  4.01440054375438 -3.14807462836284  0.04430680568057
 6  3.70010490779078 -2.89989317771777 -1.38010567936794
 6  5.13195740174017 -2.32493676187619  0.63195504640464
 6  6.54074967966797 -2.80773572657266  0.15756608250825
 6  7.69017814451445 -1.84698634443444  0.59401323592359
 6  9.11448005650565 -2.14508049004901 -0.09621633483348
 6  9.58341542164216 -3.56254615711571  0.17386051105111
 6  9.99930536613661 -1.03063368426843  0.45582354575458
 6  11.38467162446245 -0.95695849094910 -0.22796810741074
 6  12.24462208280828  0.19753894439444  0.25778656685669
 6  13.51261065516552  0.48085777267727 -0.54442419961996
 6  14.45197337033703 -0.67661839183918 -0.37148383358336
 6  14.21479141734173  1.72224699689969 -0.08325596799680
 6  15.38883816471647  2.13577551285129 -1.04325143284328
 6  15.93546316601660  3.47997050705071 -0.64000509350935
 6  17.26458085278528  3.95483439893989 -1.38125917371737
 6  17.04227320942094  4.02507807050705 -2.85261758175818
 6  17.69734315351535  5.30314844084408 -0.77446840384038
 1 -2.58988449434943  1.12571943554356  3.65795340654065
 1 -6.35977686058606  5.62648885108511  0.60541030373037
 1 -9.02180737983798  1.14346860836084 -2.99610499139914
 1 -3.61315838103810 -3.17252036873687  1.92158790089009
 1 -1.84702578857886 -1.10768837703770  2.55490765676568
 1 -2.80061938713871 -2.74598117901790  4.06695664156416
 1 -2.97256385648565 -1.07155927362736  4.91235737163716
 1 -4.43346502230223 -2.15433335133513  3.96237946054605
 1 -2.39722688828883 -3.29704274927493 -0.09713744834483
 1 -1.59531023072307 -1.94797342474247  0.02713355465547
 1 -0.59623401350135 -3.07707768006801  2.26479102020202
 1 -1.58043752235224 -4.43090992729273  1.82359139583958
 1 -1.69577822992299  3.82502718941894  3.96514889598960
 1 -2.92553020702070  4.90129976907691  4.60061572447245
 1 -3.06836676917692  3.12469566366637  5.10610758755876
 1 -5.19842370167017  6.64346232873287  2.07831994779478
 1 -9.84952893539354  2.90586773867387 -3.39331048564856
 1 -10.03606108900890  4.71311884638464 -3.11990498309831
 1 -9.44954071497150  4.02333023302330 -5.46321263186319
 1 -8.20285425142514  4.93790573117312 -4.68741842364236
 1 -8.06852712761276  3.24388870277028 -4.73545766046605
 1 -7.96572315391539 -1.00956421412141 -4.73448341734173
 1 -8.22241186908691 -2.59502656295630 -4.23168251215122
 1 -9.43076632573257 -1.47159379397940 -3.77775206030603
 1 -4.16538831483148 -4.13910973397340 -1.43821875197520
 1  2.68514645844584 -5.96640393349335  0.90306869476948
 1  2.18711203780378 -5.10805933233323 -0.55855129022902
 1  3.64453043544354 -3.82651277357736  2.01789015311531
 1  2.56175362726273 -2.73141469636964 -1.50737338743874
 1  4.14789212721272 -1.92690739133913 -1.59702792029203
 1  4.26843935133513 -3.71869372567257 -1.88800025732573
 1  4.94812868186819 -1.28588413301330  0.16398678977898
 1  4.96008836723672 -2.15957027422742  1.70059394569457
 1  6.96679589958996 -3.79556385588559  0.58258758045805
 1  6.75101394089409 -2.82889510551055 -0.87022670887089
 1  7.25890669226923 -0.67129368366837  0.62743149644965
 1  7.67661657185719 -2.06163441194119  1.63531100350035
 1  8.79817571717172 -1.85629367006701 -1.29406762546255
 1  8.78542070747075 -4.44339319921992  0.31414894469447
 1  10.41502453185318 -3.75511886658666 -0.65486306820682
 1  9.89939668726873 -3.36852258085809  1.35323628662866
 1  9.54954601550155  0.04115252565257  0.38026720112011
 1  10.13099205780578 -1.16183450275027  1.68783972127213
 1  11.87480941204121 -2.01743906560656 -0.22548185598560
 1  11.19856579677968 -0.99170080558056 -1.22939378307831
 1  11.45787580568057  1.08400147194719  0.33593638323832
 1  12.38210896959696  0.03967525082508  1.29936911201120
 1  13.28008875117512  0.44459920272027 -1.55164136893689
 1  15.04489471667167 -0.81422443974397  0.66132122962296
 1  13.99598998549855 -1.56868004690469 -0.66155240934093
 1  15.26557641414141 -0.64819814751475 -1.25727813081308
 1  13.54186343194319  2.65979427862786  0.22532265496550
 1  14.59485709790979  1.68488490299030  1.01189001630163
 1  16.25900462756276  1.42176763826383 -0.90844865986599
 1  15.13276807230723  2.10026827822782 -2.18073160406041
 1  15.06539800190019  4.21569477717772 -0.75444672467247
 1  16.12503213711371  3.29443540294029  0.45548800760076
 1  17.97206702350235  3.21034454295430 -1.43116750465046
 1  16.31457859465947  4.71774905380538 -3.02220649954996
 1  17.85291768166817  4.54057045024502 -3.42513994759476
 1  16.83364805010501  3.02832774397440 -3.38296885008501
 1  17.79329720372037  5.09150980398040  0.25058422412241
 1  18.55312292309231  5.46951317781778 -1.34265640674067
 1  16.96091866166617  5.99983439353935 -0.89872822492249
 1 -5.04512239683968 -7.77702880228023 -0.00902521852185
 1 -6.44525501680168 -6.68105748714872  0.73299314261426
 1 -4.96125834323432 -6.68705858205821  1.68259112751275
 8 -7.98996189148915  6.75239527092709 -0.33743717211721
 1 -9.14362774657466  6.31508892459246 -2.01488995649565

