%nproc=3
%Mem=2GB
# td=(NStates=1) iop(3/107=0140000000,3/108=0140000000) iop(3/107=0140000000,3/108=0140000000) CAM-B3LYP/6-31G(d,p) 

TD

0 1
12 -5.66052178337834  1.18116814451445  0.14266693549355
 6 -5.05898602040204 -2.08653261796180 -0.34961802690269
 6 -3.35340680058006  1.18455099659966  2.78602004020402
 6 -6.15493191549155  4.52078010111011  0.64912727392739
 6 -8.06460737873787  1.23829251165117 -2.42408650255025
 7 -4.45189227372737 -0.27951387448745  1.00648081508151
 6 -4.32155737613761 -1.58147932933293  0.68086180468047
 6 -3.21304270597060 -2.30488168676868  1.40113570217022
 6 -2.84590874627463 -1.25909657935794  2.54457124372437
 6 -3.51718851885188  0.01174202160216  2.06438709730973
 6 -3.27364947294729 -1.75549224182418  3.92751061046105
 6 -1.96096093939394 -2.84123811701170  0.56456064216422
 6 -0.99570733363336 -3.58281336923692  1.36092996989699
 6  0.24243011041104 -3.98792366446645  0.55332349344935
 8  0.47683153705371 -3.56788647744775 -0.53569358475848
 8  1.10937261946195 -4.87712285708571  1.31764775327533
 7 -4.86231478247825  2.58565880258026  1.38254494109411
 6 -3.95274936213621  2.46837485348535  2.44930015581558
 6 -3.65857639483948  3.66758684118412  3.13166211061106
 6 -4.44570032573257  4.56423488898890  2.54950083428343
 6 -5.30218958135814  3.93759843634363  1.62205735763576
 6 -2.66788541344134  3.79323640734073  4.19712358285829
 6 -4.64583728372837  6.00614064826483  2.88426386318632
 8 -3.81285377267727  6.53421825202520  3.74184815731573
 7 -6.97691934153415  2.65567349984999 -0.65087775547555
 6 -7.01323352115211  3.99439984548455 -0.37155535863586
 6 -8.03381852205221  4.71463252005200 -1.13415622472247
 6 -8.48823185598560  3.68491762186219 -2.03900845324532
 6 -7.87192100360036  2.41104927902790 -1.72467623742374
 6 -8.40321259996000  6.01653302300230 -1.18216935153515
 6 -9.43424990339034  3.82777371567157 -3.19153170177018
 6 -8.81202018271827  4.07492885598560 -4.52098534523452
 7 -6.45430119741974 -0.05059023922392 -1.10900192059206
 6 -7.42025563226323  0.03881297569757 -2.12506842944294
 6 -7.63968708530853 -1.33075822852285 -2.71240426502650
 6 -6.74400988468847 -2.09483325662566 -2.02367157705771
 6 -6.00106803030303 -1.42582661216122 -1.14882274697470
 6 -8.70555593029303 -1.63042283088309 -3.68914983438344
 6 -6.21910553765376 -3.52571167716772 -2.03274866876688
 8 -6.49841308190819 -4.56867183728373 -2.63887413311331
 6 -5.04440469396940 -3.46051781848185 -0.86695331613161
 6 -5.27069419701970 -4.54030923252325  0.11682883388339
 8 -5.67287146974697 -4.44180011341134  1.29693681398140
 8 -5.03808377157716 -5.74560844494449 -0.37314148554856
 6 -5.25402875207521 -6.79915350645065  0.49504703950395
 6  2.36072275387539 -5.15671193139314  0.70947892919292
 6  3.45306861696170 -4.27593909320932  1.09116040184018
 6  4.15384448814882 -3.45184500540054  0.26931930693069
 6  3.77721261856186 -3.32378556695670 -1.17532520132013
 6  5.25236944294429 -2.46221048924892  0.67184903580358
 6  6.57169277397740 -2.85702065506551  0.07758808470847
 6  7.59403853055306 -1.89755140094009  0.54175801040104
 6  8.98204681318132 -2.08120410241024 -0.03355006820682
 6  9.57065414551455 -3.40450035253525  0.29410253525353
 6  10.00504594019402 -0.85520614151415  0.36569453285329
 6  11.33769692699270 -0.86946974207421 -0.28688399899990
 6  12.26485410601060  0.28152734323432  0.24298508670867
 6  13.64936433053305  0.44905459235924 -0.43795355255526
 6  14.54035220822082 -0.79882061206121 -0.30861754695470
 6  14.33476341454145  1.77010178237824 -0.05142278467847
 6  15.45937521842184  2.24155609090909 -0.93952105980598
 6  16.03311293099310  3.61911442144214 -0.60482157515752
 6  17.25040943564357  4.04794370987099 -1.43600464826483
 6  17.01184016611661  4.09822538523852 -2.92496481648165
 6  17.74601802100210  5.33063118911891 -0.85953691069107
 1 -2.37125263116312  1.39006587018702  3.61259887108711
 1 -6.24073495639564  5.61096729892989  0.75604536723672
 1 -8.52660785988599  1.23662792429243 -3.43288866976698
 1 -3.58873593879388 -3.23905702240224  1.90541628372837
 1 -1.79683076907691 -1.26521412961296  2.58456062206221
 1 -2.80220954615462 -2.58005458635864  4.33630357625763
 1 -3.54204080418042 -0.83731584928493  4.72789892579258
 1 -4.20309198499850 -1.98753667166717  3.77874109670967
 1 -2.18907607320732 -3.54683772877288 -0.28121585618562
 1 -1.50992169186919 -1.89154778217822  0.05892673397340
 1 -0.43421781188119 -3.14100407270727  2.22866740784078
 1 -1.45355483408341 -4.52597943424342  1.82731176787679
 1 -1.49430808290829  3.75647033373337  4.00210259135914
 1 -2.61734938893889  4.88329796889689  4.57503316621662
 1 -2.76070600310031  3.09895308940894  4.98675565236524
 1 -5.49203306260626  6.63631161366137  2.31986410221022
 1 -10.01702568506851  3.02085923782378 -3.05610676527653
 1 -10.12845032793279  4.76147368186819 -3.09940293289329
 1 -9.70599636053605  3.97088498849885 -5.27352366296630
 1 -8.35837980398040  4.96004794539454 -4.71342102390239
 1 -8.25048532343234  3.15565987988799 -4.76942105680568
 1 -8.54340092169217 -0.98587184488449 -4.49304927392739
 1 -8.82516214411441 -2.76372343264326 -3.91800114401440
 1 -9.46777002610261 -1.34387102170217 -3.08322260736074
 1 -4.00627240324032 -3.62697852085208 -1.29776470657066
 1  2.60088803260326 -6.19607690079008  1.12973136103610
 1  2.17864119071907 -5.11496002240224 -0.25248068316832
 1  3.60845682808281 -4.20445056735674  2.20614897899790
 1  2.80480793269327 -3.63992554745474 -1.31525417551755
 1  4.07961529952995 -2.32562726332633 -1.35027324482448
 1  4.54082659005901 -3.79568142444244 -1.98199965726573
 1  5.04774864386439 -1.28187373197320  0.30379077017702
 1  5.35587794619462 -2.80300461766177  1.83236712301230
 1  6.67673689368937 -3.90577487698770  0.30817013871387
 1  6.56468530803080 -2.93368558455846 -1.04625431163116
 1  6.97067786938694 -0.76950350465047  0.42921167446745
 1  7.78519742994299 -2.14157240574057  1.39309678207821
 1  8.93852975257526 -1.96692473317332 -1.23607182588259
 1  8.75951811721172 -4.15564442434243  0.09516704650465
 1  10.48838186758676 -3.66040939563956 -0.12117969986999
 1  9.66969371697170 -3.46865259385939  1.33127409040904
 1  9.42805386628663  0.05682409280928  0.15922509690969
 1  9.87644660326033 -1.01447976727673  1.56527746504650
 1  11.68627055815582 -1.84052137383738 -0.01479078687869
 1  11.21823776397640 -0.73384502000200 -1.51159200290029
 1  11.69508952705270  1.26214928672867  0.01130391999200
 1  12.33111387008701  0.17217850115012  1.31305048014801
 1  13.41781252355235  0.56145088788879 -1.66632283708371
 1  14.98181840904090 -1.04689770707071  0.67719281678168
 1  14.08773916041604 -1.70096327522752 -0.65959221332133
 1  15.30287014351435 -0.70004333203320 -1.04156655965597
 1  13.51473071867187  2.34668296749675 -0.08028790609061
 1  14.67907551975198  1.54874128862886  1.01139996729673
 1  16.25755448254825  1.52310777227723 -1.06683449844985
 1  15.02158695419542  2.30590884228423 -1.94461799269927
 1  15.06988845094509  4.22735594329433 -0.58752003200320
 1  16.41146077997800  3.49938589798980  0.41879433823382
 1  17.90650046684668  3.31245475397540 -1.31446583448345
 1  16.23357049384938  4.92551983088309 -3.19061334023402
 1  18.03776616651665  4.58004439763976 -3.63680111371137
 1  16.81687637293729  3.07050196139614 -3.24504505770577
 1  18.08146602060206  5.30119077207721  0.22225139083908
 1  18.77811542234224  5.74904113061306 -1.47886002710271
 1  16.78149071887189  6.08716312641264 -0.68587693979398
 1 -4.73381126572657 -7.51716281568157 -0.13718803480348
 1 -6.26797728902890 -6.96652603400340  0.44058390169017
 1 -4.92709492689269 -6.44203407960796  1.58694156255626
 8 -7.98850174547455  6.92972300370037 -0.44702813121312
 1 -9.11120450425043  6.27589500520052 -2.07196566406641

