%nproc=3
%Mem=2GB
# td=(NStates=1) iop(3/107=0140000000,3/108=0140000000) iop(3/107=0140000000,3/108=0140000000) CAM-B3LYP/6-31G(d,p) 

TD

0 1
12 -5.69141487268727  1.25161518921892  0.23861653045305
 6 -4.97171729352935 -2.18966293099310 -0.34314737983798
 6 -3.50702216211621  1.22065460696070  2.82029346754675
 6 -6.38247466976698  4.47402542564256  0.67266962816282
 6 -8.18807972597260  1.07530621302130 -2.31907600150015
 7 -4.50132721722172 -0.26731265436544  1.08927909490949
 6 -4.39034425482548 -1.65885706710671  0.69869358785879
 6 -3.25804720642064 -2.28630982958296  1.49003459205921
 6 -2.98135229062906 -1.20590125982598  2.59840662726273
 6 -3.63699049904990 -0.00705985858586  2.18932959155916
 6 -3.49175128312831 -1.69790648324832  3.99046690609061
 6 -2.07179202250225 -2.59123311651165  0.68247243334333
 6 -1.08617638053805 -3.56285137303730  1.32010588748875
 6  0.27205307270727 -3.74108898099810  0.54718287938794
 8  0.48110196409641 -3.34317400620062 -0.56624664006401
 8  1.07247893009301 -4.52368751355136  1.28547453595360
 7 -4.90471902290229  2.65110534723472  1.44638132473247
 6 -4.07662174937494  2.38328634463446  2.45040026582658
 6 -3.82935347254725  3.64811489398940  3.20652959735974
 6 -4.74483023872387  4.58777724322432  2.55560144434443
 6 -5.37927729012901  3.93020769726973  1.48216336823682
 6 -2.93758238313831  3.80243732743274  4.33712758325833
 6 -4.91319401940194  5.96862689688969  2.91229666646665
 8 -4.30305279257926  6.63988881908191  3.85191916441644
 7 -6.96654830443044  2.58569650215021 -0.66152882058206
 6 -7.05039723752375  3.88464887038704 -0.38701690479048
 6 -8.07523266346635  4.55012606940694 -1.19274208330833
 6 -8.59276230903090  3.59504863496350 -2.11682623502350
 6 -7.89599341084108  2.37099527362736 -1.67977174697470
 6 -8.49307158585859  5.89191056075608 -1.23309444404440
 6 -9.50958743714371  3.83824476277628 -3.21222377097710
 6 -8.93691267196720  4.08701006410641 -4.59816306300630
 7 -6.40034580188019 -0.14785996619662 -1.04169518991899
 6 -7.42792639933993 -0.03532443804380 -1.97903382598260
 6 -7.58421153775378 -1.36405155785579 -2.67597062166217
 6 -6.75449093279328 -2.17691146444644 -2.05154436433643
 6 -6.01732965646565 -1.44615864536454 -1.05335320002000
 6 -8.56708208290829 -1.73167295589559 -3.74312523192319
 6 -6.32465609270927 -3.63661276727673 -1.93797919181918
 8 -6.44433767436744 -4.57402237233723 -2.70226047174717
 6 -5.10493074657466 -3.60071183788379 -0.90982760356036
 6 -5.35319244684468 -4.67364256585659  0.17986513751375
 8 -5.81972615521552 -4.46218215161516  1.31417853815382
 8 -4.99576954015402 -5.78895277937794 -0.32798697009701
 6 -5.23176652585258 -6.97281087218722  0.57146468126813
 6  2.38536521812181 -4.85353161336134  0.62943092439244
 6  3.48426173627363 -3.85682718201820  1.01136242204220
 6  4.13517262096210 -3.02999282018202  0.15001737673767
 6  3.71636653395340 -2.74819800820082 -1.21659932873287
 6  5.26965117111711 -2.18141240944094  0.64773662456246
 6  6.66845244994499 -2.73631858485849  0.01743206910691
 6  7.78090721742174 -1.75186683248325  0.50069390399040
 6  9.23648225672567 -2.09111509350935 -0.13596030923092
 6  9.81655873597360 -3.48940884338434  0.09060218521852
 6  10.23820925652565 -1.00498111901190  0.37621558495850
 6  11.57024018131813 -0.96851964706471 -0.38037334793479
 6  12.52983060366037  0.20531972247225  0.05610639883988
 6  13.72598199229923  0.38724841174117 -0.78297805500550
 6  14.65158333133313 -0.82635336533653 -0.62318900410041
 6  14.37887782598260  1.63651842404240 -0.29653729612961
 6  15.70605988688869  2.01128306360636 -0.99703681138114
 6  16.16842646234623  3.42017452745275 -0.53298439143914
 6  17.55359975467547  3.75694460996100 -1.25728677647765
 6  17.50316929902990  3.96628219091909 -2.73727604760476
 6  18.20330374957496  5.05887401340134 -0.45655661266127
 1 -2.81914742064206  0.92585944954495  3.67401501270127
 1 -6.48171905480548  5.56973317551755  0.72214197689769
 1 -9.04849004810481  0.92782704420442 -2.93247862876288
 1 -3.85323238843884 -3.42138525522552  1.94038978107811
 1 -1.81812289828983 -0.89834744294429  2.54748691469147
 1 -3.16140546574657 -2.78599518041804  4.21974192009201
 1 -3.24339093919392 -0.81773389108911  4.83128926482648
 1 -4.65035671147115 -1.95233315131513  3.94722794539454
 1 -2.11644881048105 -2.80368341334133 -0.42195993059306
 1 -1.68314901460146 -1.51198982638264  0.43484432573257
 1 -0.68241263136314 -3.04338431073107  2.33406794789479
 1 -1.39375885448545 -4.52733957025703  1.60863990069007
 1 -1.84122277437744  3.87796248294829  4.04304668576858
 1 -3.19821747574758  4.82209184828483  4.98711437433743
 1 -3.21927185968597  3.01223441754175  5.01336831363136
 1 -5.76130999029903  6.60875885838584  2.60537265306531
 1 -10.16993097559756  2.89674682658266 -3.22448360296030
 1 -10.18721620452045  4.65788332283228 -2.79097208980898
 1 -9.63105886678668  3.78395629562956 -5.17329363996400
 1 -8.42977694369437  5.07695963656366 -4.56361604340434
 1 -8.19724999989999  3.42190650455046 -4.72591670637064
 1 -8.16579316091609 -1.46810006770677 -4.82550251925193
 1 -8.87445707360736 -2.68727578787879 -3.76193553745375
 1 -9.61091434053405 -1.21543817841784 -3.60784506960696
 1 -4.28549032503250 -3.88896471947195 -1.65847077717772
 1  2.66367431123112 -5.82249954305431  0.79796818471847
 1  2.21756508310831 -4.70840936733673 -0.54689012411241
 1  3.86374235663566 -3.78252837513751  2.09659802390239
 1  2.56712416431643 -3.10552210711071 -1.21852450255026
 1  3.85890322832283 -1.81642634323432 -1.61383960146015
 1  4.38382088948895 -3.59881173747375 -1.71675313261326
 1  5.25426929592959 -0.92873841844184  0.65076546764676
 1  5.39177153555356 -2.33570788798880  1.74191807810781
 1  6.69278849884989 -3.73601790129013  0.34897421912191
 1  6.37257609710971 -2.80807302330233 -1.09243893009301
 1  7.45541634323432 -0.71212776707671  0.45755450875088
 1  7.85348425862586 -1.82374062256226  1.64358183058306
 1  9.16462236183618 -1.90239828052805 -1.23173139183918
 1  8.98971113651365 -4.19889874977498 -0.26230870107011
 1  10.62717574697470 -3.65502885758576 -0.44849243114311
 1  9.80633738133813 -3.56353208180818  1.14607557055706
 1  9.79774083498350  0.02896130653065  0.18694786918692
 1  10.43518247684769 -1.22521084038404  1.46318725602560
 1  12.03518544964497 -1.98882620432043 -0.23793310111011
 1  11.33290923112311 -0.77900953645365 -1.46129697339734
 1  12.02031204930493  1.16256932873287  0.08982177177718
 1  12.62693345204520  0.30199148244825  1.08622779787979
 1  13.46029677197720  0.54730947374737 -1.87045325012501
 1  15.03063329052905 -0.94821783908391  0.34602970047005
 1  14.20063044954495 -1.87277045594559 -0.93675993009301
 1  15.44335419191919 -0.72742607030703 -1.37702010501050
 1  13.69759900550055  2.42062036123612 -0.33799367666767
 1  14.34745235743574  1.49207562206221  0.91617044434443
 1  16.45341406850685  1.33123858535854 -0.70608842384238
 1  15.61421621712171  2.13217146854685 -2.22537606850685
 1  15.39031049314931  4.07690089778978 -0.58059933993399
 1  16.28560819471947  3.53190915031503  0.65021748054805
 1  18.30697051385139  2.81849535803580 -1.07998238613861
 1  16.75057219401940  4.73648092699270 -2.82269654855486
 1  18.43020541044104  4.64272066526653 -3.13104053765377
 1  17.22003668896890  3.06249116031603 -3.52902345554555
 1  18.28701657565756  5.04647530053005  0.74942410811081
 1  19.25954356515652  5.16212243874387 -0.82797493859386
 1  17.54966753655366  5.97418182828283 -0.77014536663666
 1 -4.98265615021502 -7.99569066846685  0.05613129712971
 1 -6.28826931823182 -7.03471285268527  0.84441428472847
 1 -4.37393961136114 -6.87378725492549  1.30428329672967
 8 -7.84026692199220  6.74442447384738 -0.55317874627463
 1 -9.28700208400840  6.20681809750975 -1.93662212971297

