%nproc=3
%Mem=2GB
# td=(NStates=1) iop(3/107=0140000000,3/108=0140000000) iop(3/107=0140000000,3/108=0140000000) CAM-B3LYP/6-31G(d,p) 

TD

0 1
12 -5.56207193839384  1.21378140584058  0.14039670847085
 6 -4.98730885268527 -2.19651361606161 -0.30991405650565
 6 -3.37681914181418  1.11894443594359  2.82026346454645
 6 -6.14629105140514  4.57433545664566  0.54268662986299
 6 -7.94151506950695  1.23956263866387 -2.41274536843684
 7 -4.39608669316932 -0.29305522862286  1.05736590359036
 6 -4.25706092649265 -1.58008919031903  0.69353307180718
 6 -3.13430483218322 -2.28345954455446  1.49142473107311
 6 -2.99027318271827 -1.27831850155016  2.67644443104310
 6 -3.61876867686769 -0.02794194679468  2.14046470507051
 6 -3.47204931293129 -1.81100779337934  3.98705656505651
 6 -1.90828567186719 -2.60234422762276  0.65503969006901
 6 -0.96598436133613 -3.47326241414141  1.34182805970597
 6  0.34775064246425 -3.86334120622062  0.64471263236324
 8  0.47091094499450 -3.47057674647465 -0.52827284268427
 8  1.17661934413441 -4.64878002280228  1.23679966846685
 7 -4.81464001500150  2.62443267996800  1.40552723932393
 6 -3.95211929912991  2.38696671267127  2.41857708350835
 6 -3.73546408360836  3.53226330883088  3.14400334473447
 6 -4.51366712241224  4.55693415891589  2.56891277547755
 6 -5.18103746614661  3.96064074057406  1.47332248414841
 6 -2.81352997789779  3.70843792749275  4.22916678717872
 6 -4.55393809380938  5.99313934813481  2.93776921372137
 8 -3.95093758105811  6.48071290149015  3.89980395289529
 7 -6.80428207780778  2.62157008950895 -0.75743841154115
 6 -6.89776197399740  4.00380078557856 -0.37323552665267
 6 -7.95397053725373  4.53867492429243 -1.16674948404840
 6 -8.33762679547955  3.62588171827183 -2.10813536593659
 6 -7.68860267176718  2.37414558865887 -1.77452122192219
 6 -8.32933521222122  5.92882425212521 -1.21647278187819
 6 -9.36210268866887  3.77544848314832 -3.25169771837184
 6 -8.79017799849985  4.14408577167717 -4.66756000270027
 7 -6.25488125542554 -0.14659984018402 -1.18336935733573
 6 -7.36573017971797 -0.04643554915492 -2.09494541714171
 6 -7.60554367096710 -1.34729988268827 -2.69401242584258
 6 -6.74096958065807 -2.16971074437444 -2.03351256115612
 6 -5.95011293479348 -1.46473050255026 -1.05209307400740
 6 -8.87418279297930 -1.55412520112011 -3.62075299469947
 6 -6.32509613671367 -3.61325043104310 -1.94741013491349
 8 -6.80804404500450 -4.58204317441744 -2.48243848954896
 6 -5.11663191669167 -3.62295406210621 -0.87665428622862
 6 -5.34503163076308 -4.65886108770877  0.18456560756076
 8 -5.88551273387339 -4.48302423582358  1.30508762906291
 8 -5.08691865506551 -5.85530941504150 -0.25427959935994
 6 -5.53172652185219 -6.89398298939894  0.53474100890089
 6  2.43679036063606 -4.99849610981098  0.57505548684868
 6  3.57623093319332 -4.02330382968297  1.06873815961596
 6  4.12211131483148 -3.17709753065307  0.15037741274127
 6  3.68149304660466 -3.12008519691969 -1.33236090489049
 6  5.17947215321532 -2.30301456965697  0.60903275417542
 6  6.45469107380738 -2.71437639063906  0.05089541544154
 6  7.64618374507451 -1.74677632343234  0.44515835043504
 6  9.06155476397640 -1.90619660166017 -0.14017073027303
 6  9.54674175427543 -3.38772867536754 -0.11190806580658
 6  9.99217465306531 -0.94403502440244  0.54945290869087
 6  11.30616377367737 -0.85606840194019 -0.31048635923592
 6  12.20977859845985  0.23547273777378  0.23063385158516
 6  13.51770116421642  0.48627831473147 -0.46238599579958
 6  14.54951312431243 -0.65907663766377 -0.35487217241724
 6  14.13372331053105  1.83784855705571 -0.18518616101610
 6  15.48819810071007  2.13169510481048 -0.89434654235424
 6  16.03776339603960  3.55809831983198 -0.61918301130113
 6  17.38540293499350  3.86000491599160 -1.33156420422042
 6  17.20021900400040  3.93499906260626 -2.82257457745775
 6  17.83137655685568  5.24837296329633 -0.66549750675068
 1 -2.61298680458046  1.06490335393539  3.53846145734573
 1 -6.56399728262826  5.68800500270027  0.68485824852485
 1 -8.81681688078808  0.79818407990799 -3.02930831173117
 1 -3.60521758695870 -3.20074319101910  1.82554829692969
 1 -1.97314840084008 -1.36515412361236  2.81062322832283
 1 -2.94733405860586 -2.75792237313731  4.39514946084608
 1 -3.28582518261826 -1.11260337803780  4.74542067796780
 1 -4.43878555435544 -2.20072799079908  3.81935515811581
 1 -2.28174534013401 -2.86130917591759 -0.44355208980898
 1 -1.22410311001100 -1.80038866626663  0.48888973027303
 1 -0.61198558865887 -3.08588856115612  2.34559910101010
 1 -1.35286476507651 -4.46505334163416  1.69064810151015
 1 -1.79699835193519  3.48120280698070  3.99127150825082
 1 -2.72605025902590  4.69853949304930  4.71855751865186
 1 -3.16627656015602  3.04233742784278  5.08441541834183
 1 -5.17884174347435  6.54438242074207  2.30645276107611
 1 -10.09843382588259  2.81231838373837 -3.38854000860086
 1 -10.27538502140214  4.55011254575457 -2.99497248984899
 1 -9.74894065496550  4.26885478547855 -5.33756006660666
 1 -8.37824179017902  5.24881682228223 -4.61759144094409
 1 -7.89611988688869  3.49359367326733 -5.14259837453745
 1 -8.92774935653565 -0.97190044774477 -4.56163613261326
 1 -8.63388301620162 -2.67991505180518 -3.99855919981998
 1 -9.87700094919492 -1.35483211781178 -3.37034131923192
 1 -4.24919669566957 -3.99093491649165 -1.49545447554756
 1  2.44559250305030 -6.00193748684868  0.90244863276328
 1  2.01495482208221 -4.88365689208921 -0.38277371247125
 1  3.72656863926393 -4.01027114941494  2.22105046914691
 1  2.50019747164716 -3.32504405930593 -1.35842849294930
 1  3.83433077107711 -2.07886258685869 -1.75180339783978
 1  4.31971447884789 -3.77490934723472 -1.91016247354735
 1  4.89592346134613 -1.37509305390539  0.39892028312831
 1  5.25192755115512 -2.54371868906891  1.76126001230123
 1  6.64171339133913 -3.81006530603060  0.36872619431943
 1  6.60349918941894 -2.56834905090509 -1.12405209140914
 1  7.45139594119412 -0.61598815311531  0.21387014031403
 1  7.76828573877388 -1.67906615511551  1.61407888028803
 1  8.86096199579958 -1.76103414411441 -1.17534575327533
 1  8.73987615301530 -4.17965682558256 -0.34266673687369
 1  10.37645067446745 -3.72032538723872 -0.76121370327033
 1  9.89925667326733 -3.78550427902790  0.91808277127713
 1  9.53861492239224  0.08966737713771  0.63516269066907
 1  10.39155811441144 -1.38365668496850  1.50505144244424
 1  11.82088401950195 -1.98237555925593 -0.08685799359936
 1  11.18194413461346 -0.49552118761876 -1.31903274697470
 1  11.60386040414041  1.09007207900790  0.32441523112311
 1  12.44909566826683  0.05042632593259  1.23508268336834
 1  13.13340408270827  0.80047479027903 -1.45745194999500
 1  15.05996622382238 -0.66984000130013  0.54842994049405
 1  14.05950633713371 -1.60977415631563 -0.58193444754476
 1  15.33058291479148 -0.32930625832583 -1.16945934893489
 1  13.42046129172917  2.61276957615762 -0.34250412771277
 1  14.31148876107611  1.72626904140414  0.94909373667367
 1  16.22830155725572  1.35858131963196 -0.53329114411441
 1  15.27112190769077  1.88669692109211 -1.98708223912391
 1  15.36618808090809  4.33598680638064 -1.25779705970597
 1  16.13255288918892  3.83494945434543  0.46260871967197
 1  18.08880869766977  3.12418592709271 -1.33257764566457
 1  16.40046718351835  4.62684996389639 -3.06805108400840
 1  18.14321671157116  4.32026842004200 -3.32687012061206
 1  16.90499518481848  2.98819373057306 -3.14479503270327
 1  17.64607248124812  5.25827648064806  0.34251341704170
 1  18.92472008280828  5.48899512601260 -1.08432057315732
 1  17.14613718351835  5.95691010111011 -1.18884723682368
 1 -5.32293017761776 -7.92835393479348  0.14357004100410
 1 -6.59620011131113 -6.77767714911491  0.59337918121812
 1 -5.25312753015301 -6.85327520372037  1.59598246664666
 8 -7.85534843014301  6.79071910331033 -0.42568599699970
 1 -9.09380276407641  6.18743615931593 -1.88297676517652

