%nproc=3
%Mem=2GB
# td=(NStates=1) iop(3/107=0140000000,3/108=0140000000) iop(3/107=0140000000,3/108=0140000000) CAM-B3LYP/6-31G(d,p) 

TD

0 1
12 -5.60138586978698  1.24336436413641  0.20055272407241
 6 -5.04525464726473 -2.21723568826883 -0.33569663476348
 6 -3.28734019391939  1.22264480598060  2.75121655985599
 6 -6.11730815311531  4.48829685278528  0.64508686988699
 6 -7.95850676867687  1.09105778817882 -2.33532762666267
 7 -4.29678676317632 -0.23467939103910  0.93998416541654
 6 -4.25620084048405 -1.67774895629563  0.70352407090709
 6 -3.19423082478248 -2.31270246884688  1.43196878547855
 6 -2.82858701410141 -1.25642631233123  2.62026881348135
 6 -3.54909170917092 -0.04779393199320  2.14665532413241
 6 -3.33832594059406 -1.76951364396440  3.95080293969397
 6 -1.92210705400540 -2.79108310151015  0.63069725582558
 6 -1.04824258715872 -3.66699178707871  1.33381725862586
 6  0.25202106950695 -3.96415128722872  0.56057421852185
 8  0.55798965286529 -3.46566625542554 -0.45077509290929
 8  1.02960464266427 -4.81554669946995  1.25139112761276
 7 -4.87931648264826  2.64498473517352  1.61455814241424
 6 -3.95656974417442  2.41209922592259  2.54631985778578
 6 -3.58006854405441  3.70286036853685  3.20389933433343
 6 -4.45750150585059  4.65448391389139  2.52912879707971
 6 -5.20651001340134  3.92277695419542  1.56195134703470
 6 -2.57651627652765  3.87405448914891  4.21109497999800
 6 -4.50895359535954  6.12468250245024  2.83927936473647
 8 -3.91794428172817  6.67277210741074  3.73816778927893
 7 -6.74891654125413  2.64816274877488 -0.72439510721072
 6 -6.98157035483548  4.00170057555756 -0.35277348044804
 6 -7.89554469466947  4.68499955675568 -1.28259106820682
 6 -8.41462449524952  3.63377250735073 -2.15028958135814
 6 -7.66913072457246  2.42280045414541 -1.76837060686069
 6 -8.19523180188019  6.09688105780578 -1.33149428402840
 6 -9.33417989638964  3.85760669896990 -3.19931247984798
 6 -8.69264824552455  4.02343370647065 -4.63213646034603
 7 -6.45466123342334 -0.15622080228023 -0.95951697209721
 6 -7.25195880258026 -0.07048795439544 -2.07914383698370
 6 -7.52614573117312 -1.43320847354735 -2.69355237983798
 6 -6.80904638833883 -2.26874064736474 -1.85641485138514
 6 -6.05888381188119 -1.42738676817682 -0.91125899059906
 6 -8.57424279897990 -1.64486427502750 -3.67143806320632
 6 -6.18579220632063 -3.57335644164416 -1.93335872977298
 8 -6.59083232383238 -4.51342631273127 -2.68002824852485
 6 -5.11551180468047 -3.66390815751575 -0.90550717151715
 6 -5.40580770837084 -4.72356755835584  0.23219037003700
 8 -5.76806098869887 -4.36836276967697  1.28902602290229
 8 -5.21678164136414 -5.87679156325633 -0.36128029942994
 6 -5.49519286848685 -6.93073666476648  0.50331786658666
 6  2.31830851245125 -5.19047530773077  0.58695667696770
 6  3.38987229732973 -4.16270777007701  0.92637392319232
 6  3.97941704540454 -3.33586340724072  0.12339471447145
 6  3.66989188648865 -3.04795798419842 -1.35814348314831
 6  5.15632983898390 -2.43883815201520  0.71085293619362
 6  6.52853845854585 -2.63771872487249 -0.01618129222922
 6  7.68093722042204 -1.85683732953295  0.58667250185019
 6  8.98468707720772 -2.02541852385239 -0.14304101730173
 6  9.52004908500850 -3.43708361086109 -0.01013788878888
 6  10.00363579917992 -0.99618023892389  0.33938190159016
 6  11.35402856015602 -0.99812260736074 -0.36272158275828
 6  12.18677629822982  0.25330452095210  0.18785957415742
 6  13.46339573367337  0.43343303020302 -0.56200595779578
 6  14.43554172717272 -0.72324305430543 -0.20163684888489
 6  14.11313125132513  1.87218199039904 -0.07442508490849
 6  15.34656393729373  2.25205714101410 -0.86098320602060
 6  15.91800141984198  3.63598610861086 -0.54792588558856
 6  17.27381177587759  4.04899381488149 -1.38457950575057
 6  16.93240222232224  4.24303986668667 -2.78930125012501
 6  17.72714613381338  5.30806893289329 -0.73631458845885
 1 -2.63893939983998  1.11778864246425  3.54908251945194
 1 -6.33308419131913  5.59306550875088  0.71113087578758
 1 -8.84482968206821  0.97606186768677 -3.13078845974597
 1 -3.81829889508951 -3.15356847354735  2.11567730983098
 1 -1.64211529752975 -1.05067267546755  2.81537370337034
 1 -2.92026135133513 -2.55752233313331  4.12369231513151
 1 -3.30056665676568 -1.00499261696170  4.84584071997200
 1 -4.39518119391939 -2.12326024402440  3.90227344994499
 1 -2.40122728832883 -3.15536858185819 -0.30545828042804
 1 -1.41950264996500 -1.88317694509451  0.26408725002500
 1 -0.71801619171917 -3.32514248654865  2.40484502560256
 1 -1.25205468406841 -4.87395423172317  1.51966100280028
 1 -1.51110976307631  3.68367305400540  3.63928630973097
 1 -2.53252090609061  4.89392903200320  4.50764642754275
 1 -2.60217014951495  3.15398859295930  5.06326330313031
 1 -5.30898475777578  6.80495847834784  2.28000011581158
 1 -9.89915389788979  2.96704385628563 -3.14390554515452
 1 -9.97561504440444  4.78599613411341 -3.10060305290529
 1 -9.77349311021102  3.87056495649565 -5.21055736633663
 1 -8.48529249524952  5.05930787138714 -4.96494617641764
 1 -7.79760003490349  3.33886820072007 -4.92012612731273
 1 -8.31320790239024 -1.24179743744375 -4.64618458745875
 1 -8.52160178807881 -2.80583764406441 -3.69977932183218
 1 -9.59171242034203 -1.42951958655866 -3.18654293939394
 1 -4.07353912991299 -3.92841866486649 -1.45452038213821
 1  2.55881382518252 -6.06720401350135  0.92159054695469
 1  2.25600892749275 -5.48444697109711 -0.53612904800480
 1  3.81360734313431 -4.24799492179218  2.01237960206021
 1  2.71291874377438 -3.30032158705871 -1.77016966706671
 1  3.61810914891489 -2.16299099969997 -1.56111432893289
 1  4.48798130553055 -3.51740359665967 -1.92115357265727
 1  4.74857872687269 -1.34318986358636  0.53151354245425
 1  5.26307866626663 -2.73676799399940  1.82316620292029
 1  6.79631885188519 -3.79429372887289 -0.08375905420542
 1  6.36968580808081 -2.48957117311731 -1.08744843104310
 1  7.43688449004900 -0.70931748604861  0.51668042134213
 1  7.55116402660266 -1.95535378387839  1.58783625602560
 1  8.65483138273827 -1.62508054875488 -1.20398861756176
 1  8.79683184858486 -4.19130799069907 -0.47107957815782
 1  10.47495052445244 -3.88943229792979 -0.36540412231223
 1  9.43533028062806 -3.74032976157616  1.03411437443744
 1  9.51736279717972  0.08341675207521  0.19547872227223
 1  10.09454841344134 -1.06508482778278  1.52376331363136
 1  11.87148908000800 -1.93552087378738 -0.20189949774977
 1  11.20300624082408 -0.83692532803280 -1.43081392509251
 1  11.58521853995399  1.10024309610961  0.24091688128813
 1  12.45451621032103 -0.08155687238724  1.16978615371537
 1  13.49775051735173  0.54881962476248 -1.72284848964896
 1  14.78756898409841 -0.81149416671667  0.77746284378438
 1  14.04091447794780 -1.61928510741074 -0.56977323142314
 1  15.31443129962996 -0.57648097579758 -0.95211761476148
 1  13.24194343994399  2.56396469566957 -0.48514839213921
 1  14.00281789398940  1.86555296979698  1.03122194949495
 1  16.25972469956995  1.48717417891789 -0.67245506050605
 1  15.27379217471747  2.24553280468047 -1.85160869176918
 1  15.22451391349135  4.39723293099310 -0.70602188218822
 1  16.17260689458946  3.71100706010601  0.61244370317032
 1  18.06348616541654  3.23986749524953 -1.23593798169817
 1  16.03743087988799  5.06126340524052 -2.78230250915092
 1  17.66169855975598  4.67813420662066 -3.54962239583958
 1  16.58082276757676  3.16506141734173 -3.14273482668267
 1  17.75330320432043  5.08572922592259  0.24211337703770
 1  18.69081669246925  5.72656888338834 -0.95215735683568
 1  16.97126969676968  6.24322873297330 -0.84462281438144
 1 -5.02838072267227 -7.84945604500450  0.00457614161416
 1 -6.58833932523252 -6.83503288468847  0.43229307260726
 1 -5.00500271767177 -6.93755363156316  1.55555842424242
 8 -7.72470536583658  6.83046307770777 -0.44378780718072
 1 -8.76843022682268  6.50511792749275 -2.04451291879188

