%nproc=3
%Mem=2GB
# td=(NStates=1) iop(3/107=0140000000,3/108=0140000000) iop(3/107=0140000000,3/108=0140000000) CAM-B3LYP/6-31G(d,p) 

TD

0 1
12 -5.59030476167617  1.19852988068807  0.22307497629763
 6 -5.09929005080508 -2.15550951565157 -0.32509557465747
 6 -3.37516897679768  1.11822436393639  2.75308674687469
 6 -6.22126854915492  4.54548257135714  0.80857321852185
 6 -7.96441735973597  1.10668935133513 -2.40892498639864
 7 -4.32632971747175 -0.28013393649365  1.09243941094109
 6 -4.36397161756176 -1.60587176857686  0.70492421092109
 6 -3.30845224692469 -2.30051124972497  1.47262285088509
 6 -2.95235939133913 -1.41131180088009  2.63078986558656
 6 -3.54135093509351 -0.07909706230623  2.17661832043204
 6 -3.50438254625463 -1.82878957155716  3.94865272467247
 6 -1.96383122642264 -2.74304829802980  0.65102928902890
 6 -1.00049781268127 -3.49474456235624  1.58964284118412
 6  0.29304517191719 -3.89489436153615  0.70865902700270
 8  0.49653350725072 -3.38260794959496 -0.39908992439244
 8  1.06864854705471 -4.87369251405141  1.34440042854285
 7 -4.97937648864886  2.61488172487249  1.57190387698770
 6 -4.02462654985499  2.37730574657466  2.49759498529853
 6 -3.63049358655866  3.57423750625063  3.17717666206621
 6 -4.41326708240824  4.61825029052905  2.57299318351835
 6 -5.26454581698170  3.95505018151815  1.60156530843084
 6 -2.69679830473047  3.80629771347135  4.27937180768077
 6 -4.46431913191319  6.02472250645065  2.86716215301530
 8 -3.92171465876588  6.58939376957696  3.78835280778078
 7 -6.88440008960896  2.54538247074707 -0.66504917261726
 6 -6.87066926472647  3.91531193669367 -0.33030123322332
 6 -7.75295043524352  4.61555261206121 -1.21659446854685
 6 -8.29759279207921  3.66250538063806 -2.07421197359736
 6 -7.68413222472247  2.36124429852985 -1.75289905970597
 6 -8.24606688538854  5.96321769146915 -1.28082921752175
 6 -9.37784426282628  3.82689362766277 -3.28451099969997
 6 -8.55268424912491  3.79207057015702 -4.60092333903390
 7 -6.30015578287829 -0.10734591479148 -1.08518953935394
 6 -7.29703331003100 -0.01273217881788 -2.06382230483048
 6 -7.56218933553355 -1.28350350305031 -2.79131215581558
 6 -6.66939242294229 -2.13396717001700 -2.03475268516852
 6 -6.01591951545155 -1.35802983248325 -1.15229309400940
 6 -8.70537591229123 -1.53884367296730 -3.76483740314031
 6 -6.25782941004100 -3.54899400540054 -2.08402379627963
 8 -6.52130537113711 -4.52326729682968 -2.60193043874387
 6 -5.12014226772677 -3.55845761246125 -0.90945756655666
 6 -5.55051217881788 -4.64707990959096  0.09432658365837
 8 -5.81008519111911 -4.45752168556856  1.22934005430543
 8 -5.28062802600260 -5.86839072317232 -0.37413158455846
 6 -5.55722907210721 -6.84388797989799  0.54885242004200
 6  2.36186286788679 -5.10644690489049  0.59722770407041
 6  3.33214652475248 -4.04751625092509  0.92091337713771
 6  3.98713781748175 -3.14947476837684  0.08443081808181
 6  3.74943984128413 -3.14744793319332 -1.37383505230523
 6  5.13021722772277 -2.32032630083008  0.73071492239224
 6  6.54056966166617 -2.70199515251525  0.15691601750175
 6  7.64526365306531 -1.89147079287929  0.58381221582158
 6  8.95871447994800 -2.12505848784878 -0.18716542974297
 6  9.52740982108211 -3.50199010151015  0.08663178817882
 6  9.98104353995400 -0.88969959085909  0.37969593299330
 6  11.38326148344834 -0.87211000610061 -0.38257356795680
 6  12.14881250185019  0.38969816031603  0.02573336153615
 6  13.55811520562056  0.48122780968097 -0.55377513471347
 6  14.51090926392639 -0.63755448544854 -0.38338502370237
 6  14.20044998319832  1.85347011921192 -0.16117375977598
 6  15.37009629052905  2.28682061736174 -1.12733984168417
 6  15.96426604630463  3.61913442344234 -0.62698379137914
 6  17.32990738543854  3.99067798329833 -1.26075712351235
 6  17.22867184928493  4.07688325102510 -2.76606892689269
 6  17.96108952815282  5.28655678167817 -0.69227018401840
 1 -2.70699620552055  1.02109897349735  3.69265687688769
 1 -6.24106498939894  5.74072027422742  0.50634039673967
 1 -8.72925812491249  1.04392865436544 -3.02414779567957
 1 -3.87754481968197 -3.45239835653565  1.87877361946195
 1 -1.75746683268327 -1.32602021022102  2.67647981398140
 1 -3.04792411761176 -2.53242982388239  4.36781672757276
 1 -3.34730133023302 -1.06605872357236  4.83779991589159
 1 -4.59855153095310 -1.85397331533153  3.93344656725673
 1 -2.17225439103910 -3.37916096109611 -0.20999873447345
 1 -1.46772747244725 -1.82460108750875  0.34375521682168
 1 -0.64847923802380 -2.93708368066807  2.54063860496050
 1 -1.24838431703170 -4.54410124642464  1.98544758145815
 1 -1.60486913901390  3.41920660736074  3.99335171627163
 1 -2.63142079607961  4.82647228632863  4.71252691559156
 1 -2.94634456695670  3.20309350345035  5.15577255405540
 1 -5.25467932723272  6.50670865336534  2.25020713651365
 1 -10.21150513301330  3.20746789868987 -3.15982713731373
 1 -9.84101158405841  4.91822935743574 -3.06249924252425
 1 -9.03387914881488  3.89400730073007 -5.61582789338934
 1 -7.72806677267727  4.52573451405140 -4.56889657145715
 1 -8.11303157805781  2.79728404230423 -4.58789290399040
 1 -8.32788937053705 -0.78875213291329 -4.54843481248125
 1 -8.73828345624562 -2.64038109840984 -4.15399474337434
 1 -9.75210845994599 -1.28528516311631 -3.47026131123112
 1 -4.17464924092409 -3.90444626762676 -1.45743067316732
 1  2.45638358215822 -6.03211050415042  1.10105849374938
 1  1.86253958055806 -5.29322784918492 -0.46467190229023
 1  3.67000298269827 -4.06212633493349  1.88961732583258
 1  2.70694814671467 -3.21907346224622 -1.53331598169817
 1  3.91791912991299 -2.15175987658766 -1.72989120662066
 1  4.40170267766777 -3.85523738003800 -1.84148560586059
 1  5.08678254725473 -1.29267481208121  0.35616600770077
 1  5.26849920832083 -2.20581489868987  1.83174706100610
 1  6.86041526152615 -3.75421972147215  0.27446676837684
 1  6.52169100860086 -2.61156337233723 -1.00975066126613
 1  7.30303110471047 -0.70846740104010  0.51445019831983
 1  7.82496140634063 -2.10119836833683  1.67205467786779
 1  8.82988888848885 -1.91776981768177 -1.42112033073307
 1  8.79514167956796 -4.27652651255126 -0.19553202340234
 1  10.54856788618862 -3.52508586328633 -0.45684326622662
 1  9.74924167176718 -3.64511023962396  1.09693065606561
 1  9.60479154005400  0.07308571897190 -0.06918774437444
 1  10.28384734333433 -0.90516883618362  1.40317125442544
 1  11.84503643474348 -1.80938826052605 -0.16167547534753
 1  11.16220216041604 -0.71456309180918 -1.44485532923292
 1  11.56166618471847  1.29160223202320 -0.15164237463746
 1  12.41952271097110  0.28505978927893  1.07797697279728
 1  13.38163890619062  0.74330907370737 -1.61506771157116
 1  14.61560178737874 -0.66647966526653  0.70880597809781
 1  14.12348273477348 -1.76154933383338 -0.71013726782678
 1  15.20936079257926 -0.41054438213821 -0.81504390739074
 1  13.48183742934293  2.73390168936894 -0.24573445074507
 1  14.53237084928493  1.69418583308331  0.84082290959096
 1  16.03675240234023  1.47717317881788 -1.13836165116512
 1  14.97744253975397  2.27893614501450 -2.19239277017702
 1  15.24407586968697  4.50961416911691 -0.89099037903790
 1  15.98769840374037  3.75779173857386  0.41508396719672
 1  17.96793661046105  3.04779828832883 -1.20097448534853
 1  16.39599673647364  4.65135241414141 -3.07324160306031
 1  18.20172256215621  4.31470786398640 -3.18560599419942
 1  17.00122480778078  3.08346325752575 -3.26916746994699
 1  18.20343821782178  5.22725337833783  0.36382554825483
 1  18.92182979377938  5.44865109160916 -1.27777991909191
 1  17.32340491029103  6.14709912001200 -0.93267161926193
 1 -5.09914779937994 -7.87221832123212  0.13754943894389
 1 -6.49004949624963 -6.89970935233523  1.10419026232623
 1 -5.01089330673067 -6.78961883808381  1.54135700410041
 8 -7.83191608690869  6.81499153055305 -0.51771519991999
 1 -9.30008339213921  6.20410782648265 -2.06108457595760

