%nproc=3
%Mem=2GB
# td=(NStates=1) iop(3/107=0140000000,3/108=0140000000) iop(3/107=0140000000,3/108=0140000000) CAM-B3LYP/6-31G(d,p) 

TD

0 1
12 -5.65257098829883  1.23652368006801  0.19426209500950
 6 -5.11582170397040 -2.18883284798480 -0.39492255735574
 6 -3.45740720062006  1.11295383688369  2.69601103930393
 6 -6.30735715801580  4.52961098419842  0.75684804600460
 6 -7.91478239623962  1.21542022442244 -2.39380347424742
 7 -4.42401948644864 -0.35272119521952  0.99272943994399
 6 -4.30956617701770 -1.59798097949795  0.58159187768777
 6 -3.16568797049705 -2.32292349094910  1.51912750135013
 6 -2.87312146754675 -1.25029569926993  2.57760454705471
 6 -3.56131293129313 -0.09768892149215  2.05636629522952
 6 -3.46593870187019 -1.64112080468047  4.06416427582758
 6 -1.97664250755076 -2.78868286148615  0.74082826892689
 6 -1.02416017891789 -3.57833292119212  1.50351422832283
 6  0.18093396079608 -3.91432630473047  0.61150931203120
 8  0.41021487538754 -3.47617730653065 -0.55981599699970
 8  1.06474815701570 -4.68453359815982  1.29083507200720
 7 -4.93731228222822  2.61937217391739  1.52390907750775
 6 -4.01640572777278  2.41104912091209  2.51068629442944
 6 -3.77562810001000  3.58425850835083  3.19061800620062
 6 -4.59203495919592  4.58048651415141  2.61285716991699
 6 -5.32341170357036  3.87847252375238  1.66279143104310
 6 -2.67621624652465  3.96312339603960  4.24393826432643
 6 -4.58074077407741  6.02948298249825  2.89315475227523
 8 -4.07406989428943  6.58103293349335  3.90947491999200
 7 -6.96203785338534  2.67298523102310 -0.65522819051905
 6 -7.12992519031903  3.97054746024602 -0.27299550265026
 6 -7.99110425062506  4.55648670547055 -1.15399820892089
 6 -8.43378641144114  3.66049517961796 -2.07914246664666
 6 -7.78185199669967  2.43073124722472 -1.72589635943594
 6 -8.41785406410641  5.94090546024602 -1.10920205480548
 6 -9.56697317571757  3.83667460576058 -3.10827337593759
 6 -9.04100308100810  3.93608497159716 -4.56605985268527
 7 -6.25653142044204 -0.15019019921992 -1.10074109450945
 6 -7.29698330503050  0.02377147154715 -2.17924384698470
 6 -7.45286840344034 -1.29934508720872 -2.75570859545955
 6 -6.63842932663266 -2.16767054035404 -2.07193640354035
 6 -5.97753567706771 -1.36919094859486 -1.13069093379338
 6 -8.41735711041104 -1.57980776937694 -3.92324324372437
 6 -6.20647427452745 -3.53384249024903 -2.12479787368737
 8 -6.49643288388839 -4.52214718481848 -2.83224347004700
 6 -5.10430068356836 -3.57805957265727 -0.95805242604260
 6 -5.25095222282228 -4.67833303490349  0.09796694769477
 8 -5.65103928652865 -4.47696362976298  1.22431955225523
 8 -5.04155411861186 -5.89616350045004 -0.51638580998100
 6 -5.27125047424742 -7.09772336343634  0.28443597839784
 6  2.34752143374337 -4.98248450865086  0.63635161646165
 6  3.43338664876488 -4.02904440374037  1.11770305610561
 6  4.01152025572557 -3.08484830573057  0.28543091809181
 6  3.81542643994399 -2.87670085848585 -1.19612728152815
 6  5.08662286828683 -2.22883715191519  0.85443729462946
 6  6.49520512521252 -2.51557651065106  0.03652397829783
 6  7.63534266096610 -1.73973561936194  0.60592442704270
 6  9.05020362886289 -1.99407538953895  0.15064835163516
 6  9.55405248534853 -3.40838074057406  0.37295042004200
 6  10.12949838543854 -0.87904852575258  0.56257422082208
 6  11.42894605190519 -0.89099189428943 -0.04151946254625
 6  12.34091171177118  0.30546973747375  0.25033582178218
 6  13.53723311741174  0.45559524642464 -0.55850560776078
 6  14.42666083908391 -0.73220395039504 -0.43883056825683
 6  14.33217315551555  1.72147691989199 -0.12070971337134
 6  15.59738901980198  2.14889682498250 -1.06749385708571
 6  16.14435405510551  3.44110662066207 -0.77808890189019
 6  17.45806020072007  3.70192910841084 -1.46845789358936
 6  17.22930191229123  3.78105366806681 -3.04292661266127
 6  18.00805422462246  5.16075420142014 -1.06920787778778
 1 -2.88812431833183  1.18510537413741  3.60216782798280
 1 -6.48195907880788  5.58277447964796  0.94118388108811
 1 -8.73589878897890  1.17087134863486 -3.04635001590159
 1 -3.70155722092209 -3.13051616831683  1.97229297139714
 1 -1.93439452545255 -0.90639824802480  2.87636980298030
 1 -3.03939326452645 -2.49363594449445  4.39944989088909
 1 -3.21002760286029 -0.97109922762276  4.69694583048305
 1 -4.51340301610161 -1.57310522852285  4.01436465906591
 1 -2.33863102870287 -3.43628667366737 -0.23025075967597
 1 -1.29886058575858 -1.94319294669467  0.29230007130713
 1 -0.60509489958996 -3.02285225752575  2.37828236933693
 1 -1.41471094969497 -4.51576841314131  1.80815985268527
 1 -1.66428508060806  4.18705339203920  3.65752813391339
 1 -3.05772342634263  4.86600623972397  4.72419808270827
 1 -2.39002893539354  2.93317651175118  5.04882185898590
 1 -5.11224508380838  6.85131311381138  2.14084620042004
 1 -10.22796677917792  2.92771992389239 -3.01744289888989
 1 -10.13156063896390  4.69885742024202 -2.75916890949095
 1 -9.89732549344935  3.88025592559256 -5.17436374697470
 1 -8.55449941594159  4.82824476507651 -4.82525220702070
 1 -8.33792406730673  2.94419873377338 -4.91376549124913
 1 -8.40145672727273 -0.83154641234123 -4.84828479747975
 1 -8.26186581448145 -2.59757681798180 -4.44619396329633
 1 -9.50873412251225 -1.57571420602060 -3.63299758485848
 1 -4.12734451045105 -3.77028285128513 -1.44084901500150
 1  2.58181612541254 -6.09776706980698  0.93365175307531
 1  2.49731305790579 -4.95690421682168 -0.51971740684068
 1  3.75617159955996 -4.07083720602060  2.01636000010001
 1  2.67734518641864 -3.25201675657566 -1.26870952105211
 1  3.78824616261626 -1.73588828942894 -1.43455167266727
 1  4.57465997339734 -3.37952980928093 -1.84181563886389
 1  4.94305817481748 -1.24411995659566  0.74637502860286
 1  5.45272763116312 -2.36646096329633  1.92833671997200
 1  6.47533675367537 -3.78590288978898  0.08140746244624
 1  6.21993083258326 -2.23260547654766 -0.86962664886489
 1  7.47416821842184 -0.68759531383138  0.30876963026303
 1  7.51231014121412 -1.82880112861286  1.86450392279228
 1  9.01082698229823 -1.89919796049605 -0.96335455415542
 1  8.98250041544154 -4.29888874877488  0.01615914571457
 1  10.41719474887489 -3.43488684338434 -0.19720730263026
 1  9.65715246284628 -3.64902063066307  1.35232619561956
 1  9.65670673157316  0.09771818221822  0.09638881328133
 1  10.17009596819682 -0.94784310361036  1.68410934823482
 1  12.02195412651265 -1.82737005870587  0.30485117731773
 1  11.27426336653665 -0.86337797329733 -1.06242708640864
 1  11.60894091219122  1.16097916971697  0.14307709730973
 1  12.65396615531553  0.42762404570457  1.30002917801780
 1  13.10380112241224  0.73088783158316 -1.55812201700170
 1  14.51784201140114 -0.85606862416242  0.53673877137714
 1  13.76705709220922 -1.71810498939894 -0.54564081818182
 1  15.68254811131113 -0.79980330803080 -0.70593299629963
 1  13.58362760836084  2.61348964816482 -0.20466034333433
 1  14.79126673887389  1.68610502500250  0.85562438973897
 1  16.37377610471047  1.38296375787579 -0.90319813481348
 1  15.03917871337134  1.86085433683368 -1.96779030993099
 1  15.42627408950895  4.22895610331033 -0.99308058805881
 1  16.26464609850985  3.48509446884688  0.38367082588259
 1  18.19073889068907  2.92411592009201 -1.33523791169117
 1  16.44325146194619  4.47526480538054 -3.47408168706871
 1  18.26675906580658  4.19457585078508 -3.58641607520752
 1  16.99438412371237  2.77785269646965 -3.47490804400440
 1  18.05190306430643  5.30220087308731  0.07214638033803
 1  18.83193080388039  5.57696392289229 -1.55167730883088
 1  17.50569313911391  6.06111052115212 -1.45181353345335
 1 -4.78026591119112 -7.93719481888189 -0.25124944094409
 1 -6.38125861716172 -7.13333271467147  0.12778262156216
 1 -5.03022523992399 -6.87401727792779  1.29606247464746
 8 -7.93526642194219  6.76592662406241 -0.38023145154515
 1 -9.35280866466647  6.28428584428443 -1.81448991649165

