%nproc=3
%Mem=2GB
# td=(NStates=1) iop(3/107=0140000000,3/108=0140000000) iop(3/107=0140000000,3/108=0140000000) CAM-B3LYP/6-31G(d,p) 

TD

0 1
12 -5.55433116431643  1.25111513921392  0.11553422222222
 6 -5.00432055385539 -2.14512847754775 -0.31268433353335
 6 -3.30165162506251  1.19183172467247  2.73535497369737
 6 -6.18109453175318  4.55389341244124  0.60926328752875
 6 -7.92466338433843  1.16769545194519 -2.43419751365137
 7 -4.32751983648365 -0.22647857095710  0.98505867286729
 6 -4.30472569296930 -1.57380856225623  0.61799551805181
 6 -3.26151755345535 -2.30481167976798  1.48676426502650
 6 -2.88634278967897 -1.22956362606261  2.51206799339934
 6 -3.47768456845685  0.01075192259226  2.01753241184118
 6 -3.39514162216222 -1.64833152575258  3.97684554395440
 6 -1.97518236153615 -2.79448344154415  0.71053523962396
 6 -0.99833759665967 -3.63943903180318  1.48573245014501
 6  0.18856472387239 -3.96346121822182  0.62725088618862
 8  0.34467832173217 -3.58152784158416 -0.54552456785679
 8  1.11520320252025 -4.77931307610761  1.34291027952795
 7 -4.87262581358136  2.65657589428943  1.40230691729173
 6 -3.92408649584958  2.47798581458146  2.44688991479148
 6 -3.70661119831983  3.66435651815182  3.16369531393139
 6 -4.56033178887889  4.72928139363936  2.57398328252825
 6 -5.30149951235124  4.01188586508651  1.51307645954595
 6 -2.65113373827383  3.85656273997400  4.31823569406941
 6 -4.56461916191619  6.09980001420142  2.87546298309831
 8 -3.81402388968897  6.57058188838884  3.72635660816082
 7 -6.80434208380838  2.54822275477548 -0.77238990669067
 6 -6.89325152295230  3.89588999449945 -0.39445764886489
 6 -7.98135327552755  4.58148920572057 -1.12698550765077
 6 -8.38417144994499  3.68615774587459 -2.12854740714071
 6 -7.75466927842784  2.36025419951995 -1.75864963476348
 6 -8.43497577627763  5.98463983368337 -1.02077321192119
 6 -9.53495997439744  3.82340327862786 -3.07565011361136
 6 -9.06991597229723  4.10298166126613 -4.49356260296030
 7 -6.24851061836184 -0.15986116631663 -1.14106512691269
 6 -7.27767137383738  0.01292038643864 -2.20938686128613
 6 -7.63452656925693 -1.37237238993899 -2.62462548714871
 6 -6.65638112181218 -2.23655742904290 -2.07204641454145
 6 -5.95318324182418 -1.36520054955496 -1.14501236593659
 6 -8.51981735643564 -1.78919870847085 -3.77976889628963
 6 -6.19323295039504 -3.57244635063506 -1.97460285418542
 8 -6.51835507610761 -4.55216018611861 -2.63882412811281
 6 -5.07703795729573 -3.71919368606861 -0.94253087388739
 6 -5.33644077167717 -4.66048124972497  0.16052320332033
 8 -5.83225740834083 -4.43789972337234  1.26411353165317
 8 -5.16914687788779 -5.91574545864586 -0.37814198559856
 6 -5.43591694089409 -6.95426901800180  0.49106664146415
 6  2.22608929052905 -5.02141840204020  0.53123110441044
 6  3.41284459455946 -4.00730222952295  0.94988627442744
 6  4.03420252395239 -3.18312813371337  0.21452382738274
 6  3.67166206350635 -2.92882607100710 -1.31447911671167
 6  5.23198740474047 -2.30157442564256  0.67154900580058
 6  6.54419002370237 -2.66315126812681  0.13354368026803
 6  7.67306643334333 -1.71564321012101  0.63721755635564
 6  8.97538614711471 -2.06280226222622 -0.11673838703870
 6  9.61619869997000 -3.41782168466847  0.19506263126313
 6  10.04898033363336 -1.14670529142914  0.48175613901390
 6  11.38327148444844 -0.93576637173717 -0.32269758035804
 6  12.22569018961896  0.19999919041904  0.16033682188219
 6  13.49805920002000  0.49546923382338 -0.58850860806081
 6  14.60834900790079 -0.58164889488949 -0.35927261246125
 6  14.18787872607261  1.75353012521252 -0.16665430783078
 6  15.54252353325333  2.15619755505551 -0.93415052275228
 6  16.03269288898890  3.52755526552655 -0.56190728372837
 6  17.24751914661466  3.86568548404840 -1.30115116291629
 6  17.04128311041104  4.06583214591459 -2.82268458845885
 6  17.80756417561756  5.25329345534553 -0.84193515051505
 1 -2.36588209410941  1.19806667026703  3.49550716191619
 1 -6.46077696059606  5.50134633683368  0.74059382208221
 1 -8.49275447454746  1.29391365286529 -3.39693507440744
 1 -3.58930599579958 -3.19728284498450  1.81367710981098
 1 -1.77826891289129 -0.97712532073207  2.40341250725073
 1 -2.90836016121612 -2.53478005890589  4.15255520142014
 1 -3.05270187028703 -0.81594371207121  4.77653378927893
 1 -4.54255593139314 -1.53204112211221  3.97071029362936
 1 -2.35011217681768 -3.40510355535554 -0.25866360096010
 1 -1.60633133283328 -1.90382901030103  0.28719956125613
 1 -0.66724111421142 -3.32157212951295  2.42738727982798
 1 -1.42141161976198 -4.62339917621762  1.67841687838784
 1 -1.65898455055506  3.69042372907291  4.00896327742774
 1 -2.82514016801680  4.81006064516452  4.83603926682668
 1 -2.74214414691469  3.13145633973397  5.19178615541554
 1 -5.32422628192819  6.61309929242924  2.45067718351835
 1 -10.38456243874387  3.23278042994299 -3.11503265786579
 1 -10.15941342424242  4.81807934243424 -2.86047904050405
 1 -9.85942170307031  4.16465436543654 -4.99603591419142
 1 -8.56019998599860  4.99407134773477 -4.63567324912491
 1 -8.47714798969897  3.28336265016502 -4.99873398809881
 1 -8.10558714031403 -1.48149140684068 -4.68942891189119
 1 -8.63529315721572 -2.97393445374537 -3.92600194409441
 1 -9.53944719381938 -1.28355499009901 -3.73923820892089
 1 -4.09866164216422 -3.96695251825183 -1.37566249634963
 1  2.46372431623162 -6.10267756085609  0.84472286018602
 1  1.86616994359436 -4.97129565596560 -0.62314774987499
 1  3.78211419381938 -3.89341946424642  2.02853121722172
 1  2.49025647754775 -2.93765532043204 -1.34511716181618
 1  4.05938327632763 -2.01029573017302 -1.75804402190219
 1  4.34582709010901 -3.77764962126213 -1.74659611691169
 1  4.90214408340834 -1.16900244484448  0.66197658875888
 1  5.06422878127813 -2.62303662086209  1.70676456275628
 1  6.87608682868287 -3.55923022252225  0.31951127282728
 1  6.42532137163716 -2.53350556655666 -0.99351903810381
 1  7.34280508210821 -0.65665221952195  0.32582133543354
 1  7.68645755595559 -1.79183743224322  1.85116258865887
 1  8.96268216781678 -1.97346538723872 -1.17788600730073
 1  8.94069623502350 -4.24231309120912 -0.19160163036304
 1  10.56575960536053 -3.65047840254025 -0.16460404230423
 1  9.44397114471447 -3.71658738733873  1.20924188718872
 1  9.45826688758876 -0.16500809040904  0.53384255865587
 1  10.32674163276328 -1.36284460376038  1.49812074937494
 1  11.85380731183118 -1.74805212691269 -0.02656196399640
 1  11.25834177437744 -0.92266390189019 -1.44545538923892
 1  11.72912293039304  0.98636170797080  0.20625341494149
 1  12.51425218391839  0.32501378467847  1.21947112221222
 1  13.10688143044304  0.68328307110711 -1.77650385518552
 1  15.06763699089909 -0.46428944624462  0.64709980748075
 1  14.14721510801080 -1.77623080198020 -0.35377163126313
 1  15.47527738423842 -0.65394872257226 -0.95042744574457
 1  13.54226347194719  2.47416571577158 -0.27378725602560
 1  14.50999861206121  1.49518593309331  0.89103793109311
 1  16.27880660776077  1.44065952745275 -0.86097391239124
 1  15.22273706920692  2.03997224862486 -2.16327985888589
 1  15.13129459155916  4.30404361206121 -1.00629190919092
 1  16.05321495539554  3.68293425282528  0.50487294609461
 1  18.00579039583958  3.04880838933893 -0.88868325622562
 1  16.32569970677068  5.00251753065307 -2.95156943584359
 1  17.97388977887789  4.21512790599060 -3.29355678927893
 1  16.28990367566757  3.18816372757276 -3.08005855905591
 1  17.82371024502450  5.29659031203120  0.55972513821382
 1  18.84724233503350  5.52530875737574 -1.23089523062306
 1  16.95426799659966  5.90958536863686 -0.88592694479448
 1 -4.92281016561656 -7.92188328772877  0.19584526852685
 1 -6.52452294359436 -7.20436981838184  0.74064390769077
 1 -4.92718493589359 -6.66500637683768  1.59345221362136
 8 -7.88181107640764  6.75195522692269 -0.22692612101210
 1 -9.20467385118512  6.32411982768277 -1.75084355185519

