%nproc=3
%Mem=2GB
# td=(NStates=1) iop(3/107=0140000000,3/108=0140000000) iop(3/107=0140000000,3/108=0140000000) CAM-B3LYP/6-31G(d,p) 

TD

0 1
12 -5.65335106630663  1.11946197389739  0.32265493429343
 6 -4.93519364116412 -2.09627359205921 -0.40013307840784
 6 -3.36687814771477  1.27653019451945  2.84289572777278
 6 -6.32238866116612  4.48980700380038  0.79220158135814
 6 -7.96029694769477  1.15130381278128 -2.38634272817282
 7 -4.32033911841184 -0.24219014211421  1.12867303430343
 6 -4.24610983138314 -1.56278746014601  0.63202692119212
 6 -3.22046344804480 -2.26532773137314  1.47375296389639
 6 -2.81334548994899 -1.29106977667767  2.63639042564256
 6 -3.49716651665167 -0.03489264186419  2.23126378497850
 6 -3.33254536253625 -1.84784147674767  3.99104696409641
 6 -2.00032487578758 -2.74636863006301  0.62551673777378
 6 -0.94807257015702 -3.46316140404040  1.45898977587759
 6  0.28416428382838 -3.83606847894789  0.58152631373137
 8  0.61467532143214 -3.26909659845985 -0.42472248764876
 8  1.11523320552055 -4.77825297009701  1.20656664516452
 7 -5.03841239223922  2.54193443014301  1.48762544914491
 6 -4.00131421862186  2.49368738473847  2.48888411421142
 6 -3.78489902710271  3.77601768426843  3.10354929932993
 6 -4.62608836453645  4.59996846234623  2.54424030823082
 6 -5.40860022242224  3.90233490999100  1.52914806670667
 6 -2.76739536443644  3.85606268996900  4.16907077757776
 6 -4.56290899089909  6.14700473467347  2.79376481328133
 8 -3.85322781008101  6.63779861006101  3.64524849734973
 7 -6.94007565716572  2.55509344184418 -0.59042170987099
 6 -7.11572377017702  3.92615302080208 -0.28032623572357
 6 -8.03805894609461  4.60405146194619 -1.15998880798080
 6 -8.55900893369337  3.60927005710571 -2.00105465786579
 6 -7.77582139363936  2.32020019411941 -1.58740251005101
 6 -8.43640591929193  6.04863623332333 -1.09607074167417
 6 -9.44574105250525  3.70287122542254 -3.12935548414842
 6 -8.70898987968797  3.91375273837384 -4.54807805450545
 7 -6.35473124042404 -0.16531171137114 -1.09942096249625
 6 -7.34544815151515 -0.06256716231623 -2.05897181978198
 6 -7.57056017261726 -1.32565771847185 -2.72985601020102
 6 -6.61298678237824 -2.14401817511751 -2.08725793569357
 6 -5.95480340384038 -1.37072110161016 -1.18977684238424
 6 -8.43355873057306 -1.70444023262326 -3.87143806320632
 6 -6.13171679877988 -3.53258236423642 -2.00619601350135
 8 -6.55331857245725 -4.57836280638064 -2.58746899259926
 6 -5.00697095059506 -3.57151891859186 -0.85812243304330
 6 -5.34076120372037 -4.63417861946195  0.14452160316032
 8 -5.85072925552555 -4.36424235763576  1.18644576487649
 8 -5.03960392359236 -5.88232211631163 -0.36831100250025
 6 -5.55927927712771 -6.96139973107311  0.38025556035604
 6  2.36926360796080 -5.03572983318332  0.56012399369937
 6  3.38660197029703 -4.08879037833783  0.93426471227123
 6  4.14964406810681 -3.22986280718072  0.05945832083208
 6  3.74036893419342 -3.03212640104010 -1.32163983278328
 6  5.15729993599360 -2.33881815001500  0.63446529742974
 6  6.50991659635964 -2.55186013901390 -0.01431110521052
 6  7.65926505320532 -1.71125277107711  0.55237907250725
 6  8.99123773227323 -2.01082706470647 -0.18886559975998
 6  9.54620170027003 -3.29444934743474  0.17707083208321
 6  10.04329976557656 -0.84105472637264  0.28004596799680
 6  11.41825498279828 -0.91039383448345 -0.24619993059306
 6  12.22757037763776  0.26611580208021  0.25380616881688
 6  13.60316971107111  0.35631531843184 -0.54698445564556
 6  14.60514868786879 -0.73476420642064 -0.11366805200520
 6  14.20703064126413  1.71901667386739 -0.20862850525053
 6  15.38872815371537  2.16778871417142 -1.07588469616962
 6  15.93304292399240  3.45256776677668 -0.65079617261726
 6  17.27659205390539  3.79058797429743 -1.30865191299130
 6  17.14039302140214  4.01905746844684 -2.82931525152515
 6  17.97931135033503  5.01273939993999 -0.67084804180418
 1 -2.69537504340434  1.25717258085809  3.47404501570157
 1 -6.62360324322432  5.64744094629463  1.13089285198520
 1 -8.58311351045105  1.14889915141514 -3.39940532143214
 1 -3.66317338253825 -3.00786390309031  1.86162190429043
 1 -1.61843292929293 -1.25544315251525  2.58371053705371
 1 -2.95046437163716 -2.73161974287429  4.53958390429043
 1 -3.19848644874487 -1.05575769346935  4.79624576047605
 1 -4.32240391619162 -1.97542546054605  4.02686590919092
 1 -2.32735990159016 -3.28333137813781 -0.13033076767677
 1 -1.52397309700970 -1.93641226862686  0.15576641794179
 1 -0.53554794489449 -2.73164313661366  2.23406794789479
 1 -1.36708618721872 -4.38475531183118  1.95228426512651
 1 -1.74043269536954  3.64237892459246  3.67711009210921
 1 -2.93490114411441  4.75333497259726  4.71281694459446
 1 -3.00023995649565  3.11035422952295  4.88932590939094
 1 -5.34194805410541  6.61939992249225  2.22796491229123
 1 -10.15660964346435  2.91332848474847 -3.29876103070307
 1 -10.17005448834884  4.67230476497650 -3.17931092369237
 1 -9.40241600250025  3.87175507550755 -5.31185749634963
 1 -8.02119608560856  4.73882582318232 -4.71739142094209
 1 -8.18998927382738  2.97880219411941 -4.60218433313331
 1 -8.19833641524152 -1.13120637833783 -4.80772074107411
 1 -8.31205083298330 -2.77573463376338 -4.17092643654365
 1 -9.63333658275828 -1.52006864146415 -3.81566585168517
 1 -4.15401717771777 -3.63154897789779 -1.57572250235024
 1  2.55139308310831 -6.05337263036304  0.96248463636364
 1  2.26817014361436 -5.05472399879988 -0.45999143424342
 1  3.57127310971097 -3.94217433973397  1.94061242534253
 1  2.67905535743574 -3.43636519141914 -1.68920157025703
 1  3.64439177717772 -2.03295799639964 -1.55845406290629
 1  4.48896140354035 -3.64738659495950 -1.85742720002000
 1  5.06628049704971 -1.21599714431443  0.67096748784879
 1  5.08053041144114 -2.59971428862886  1.79074296059606
 1  6.73062228222822 -3.57647194669467 -0.08606928522852
 1  6.39987882738274 -2.37411962796280 -1.21522120832083
 1  7.37067786938694 -0.58250480478048  0.40700945424542
 1  7.77545645584558 -1.83710195869587  1.75100257265727
 1  8.95384128372837 -2.01509955065507 -1.19746796549655
 1  9.05533769916992 -4.10665952585259 -0.40639310951095
 1  10.59895292469247 -3.59833318801880 -0.16489407130713
 1  9.61847859545955 -3.51601733033303  1.38278924192419
 1  9.50280134103410  0.10131854225423  0.11357053145314
 1  10.11623058165817 -0.92500081938194  1.33186412371237
 1  12.03659559065907 -1.83235055675568  0.07051774397440
 1  11.37691363156316 -0.99986162166217 -1.30072091579158
 1  11.63000301840184  1.24869794159416  0.19967275687569
 1  12.48319907860786  0.30582186548655  1.35321449654966
 1  13.26700744304430  0.23169791259126 -1.69909611441144
 1  14.92379260646065 -0.94445746304630  1.07660275777578
 1  13.99353974047405 -1.79336251515151 -0.25503175727573
 1  15.43019287578758 -0.75391871957196 -0.66542894589459
 1  13.38535778137814  2.54989328852885 -0.15687556485649
 1  14.55192280448045  1.60474688918892  0.75246407370737
 1  16.16123485058506  1.44760022152215 -1.03739155415542
 1  15.11322611811181  2.20631888328833 -2.02010554145415
 1  15.18261972407241  4.22873608130813 -0.93111439143914
 1  16.17934756865686  3.31480744014401  0.48362082088209
 1  17.78300811761176  2.80324383288329 -1.33287767566757
 1  16.65382251905190  4.83115039393939 -3.30908518741874
 1  18.15651804170417  3.77200359355936 -3.52481991559156
 1  16.52513719901990  3.22746765796580 -3.31746229942994
 1  17.91176905090509  4.85994664766477  0.43050221592159
 1  18.99933754455446  5.19689591609161 -1.18547068816882
 1  17.28002057185719  5.88671308140814 -0.75537388948895
 1 -5.26443432803280 -7.96799789918992 -0.15041935793579
 1 -6.61368185948595 -6.86608598999900  0.59430927422742
 1 -5.12473469086909 -7.02944282048205  1.29507237563756
 8 -7.98031092639264  6.89962999439944 -0.43607703610361
 1 -9.04549793359336  6.26170358605861 -1.96487495499550

