%nproc=3
%Mem=2GB
# td=(NStates=1) iop(3/107=0140000000,3/108=0140000000) iop(3/107=0140000000,3/108=0140000000) CAM-B3LYP/6-31G(d,p) 

TD

0 1
12 -5.71312704390439  1.18228825652565  0.27858052685268
 6 -5.08333845564556 -2.15315928062806 -0.27441050615061
 6 -3.50552201210121  1.11252379387939  2.79994143234323
 6 -6.23841026332633  4.49903792689269  0.66748911011101
 6 -8.09287020502050  1.14299298169817 -2.34813890779078
 7 -4.34642172667267 -0.31339726282628  1.09285945294529
 6 -4.33662888328833 -1.56365754715472  0.68342206070607
 6 -3.27281868356836 -2.35035623422342  1.57702329092909
 6 -2.95408956435644 -1.37965863556356  2.72177896449645
 6 -3.61507830783078 -0.09844899749975  2.10711136973697
 6 -3.64379648764876 -1.73757044964496  4.04285214461446
 6 -2.10862570587059 -2.67503149634963  0.64318850495049
 6 -0.93481124402440 -3.32142723062306  1.46650052695270
 6  0.25121098849885 -3.75804067616762  0.67814597569757
 8  0.33304715861586 -3.44380406920692 -0.47866788218822
 8  1.14571625382538 -4.54808995379538  1.38019400790079
 7 -4.89518806980698  2.51762199889989  1.50126681328133
 6 -4.05137922512251  2.39513752975298  2.57114234003400
 6 -3.71948248544855  3.55601568406841  3.27088603300330
 6 -4.51720747644764  4.57474594009401  2.62009789398940
 6 -5.24995435783578  3.88408308480848  1.51275642754275
 6 -2.80026865176518  3.80987807150715  4.43856772727273
 6 -4.51821452145215  6.05198523272327  2.74236967376738
 8 -3.96667915521552  6.59347417761776  3.68284225672567
 7 -6.94048569816982  2.58885681818182 -0.69974264196420
 6 -6.89829202700270  3.92880328582858 -0.41245944904490
 6 -7.90469560976098  4.56570762756276 -1.20226303540354
 6 -8.55208824162416  3.67568669876988 -2.02978753115312
 6 -7.80500431193119  2.39947812191219 -1.72562633243324
 6 -8.36487876657666  5.95623699339934 -1.13620475507551
 6 -9.65516199459946  3.75949688798880 -3.08222077067707
 6 -8.85554453515352  3.87721908500850 -4.44433768046805
 7 -6.44894066136614 -0.14711989218922 -1.10445146554655
 6 -7.35072867956796 -0.06427733333333 -2.11826774937494
 6 -7.50851396799680 -1.38632378507851 -2.67043006760676
 6 -6.65681116481648 -2.26017979127913 -2.02986219611961
 6 -5.99259718321832 -1.35717974747475 -1.02848071277128
 6 -8.33862923762376 -1.62093188178818 -3.93465438483848
 6 -6.10078370547055 -3.44178328432843 -2.08048344224422
 8 -6.30671391199120 -4.49495446554655 -2.82530277597760
 6 -5.06002625612561 -3.50381214791479 -0.96614323512351
 6 -5.46345347294729 -4.60423562516252  0.08600575157516
 8 -5.92792697529753 -4.52602853625362  1.13281040134013
 8 -5.02277224042404 -5.79020290439044 -0.38738290969097
 6 -5.37696104530453 -6.91550514161416  0.44830236503650
 6  2.27531421302130 -4.89814607480748  0.56850483178318
 6  3.41549485958596 -3.92034353365336  0.92847413321332
 6  4.02021112481248 -3.20340016091609  0.10582295729573
 6  3.88079297659766 -3.16440962936294 -1.51512918171817
 6  5.13923812981298 -2.34690895909591  0.60747259815982
 6  6.52127773247325 -2.71693664666467  0.00415074097410
 6  7.69099822652265 -1.76661830763076  0.65950978557856
 6  9.11017962646265 -2.01931791379138  0.07189047584758
 6  9.55421250135013 -3.38245814831483  0.34429755475548
 6  10.07991342694269 -0.84609523042304  0.61322928632863
 6  11.42270542784278 -0.85179797489749 -0.22517782838284
 6  12.27096471707171  0.26531572207221  0.14288507670767
 6  13.54163355745574  0.46500618751875 -0.63431318851885
 6  14.55546371937194 -0.78236896689669 -0.53258994419442
 6  14.24855479367937  1.80366513871387 -0.20034767716772
 6  15.49390867176718  2.08726066136614 -1.02433954165417
 6  16.20877049674967  3.48558106810681 -0.61092218521852
 6  17.44238863356336  3.84838375387539 -1.45772682048205
 6  17.35543452555256  4.00218578127813 -2.89849216921692
 6  18.02979639883988  5.10192831883188 -0.86154711171117
 1 -2.64011951785178  1.08864572817282  3.74252186338634
 1 -6.59458034093409  5.44369057125713  0.82968273097310
 1 -8.76232143124312  1.14415867736774 -3.33295867676768
 1 -3.76153321852185 -3.32551566826683  1.93691943404340
 1 -1.89913099909991 -1.21656926512651  2.86522868886889
 1 -3.13303262846285 -2.80041662256226  4.40163010891089
 1 -3.42850945104510 -0.88735085278528  4.78820495639564
 1 -4.85635731153115 -1.78627654565457  4.01180440304030
 1 -2.38236540214021 -3.07391043604360 -0.30334806940694
 1 -1.82811351105111 -1.63880250765076  0.39667050835084
 1 -0.66031042114211 -2.90439041134114  2.55246978807881
 1 -1.48212769136914 -4.37178401470147  1.74256329302930
 1 -1.63440209230923  3.72313700040004  4.37413979507951
 1 -3.13360101410141  4.80421006010601  4.90237590049005
 1 -3.05032496499650  2.92003519761976  5.07063404020402
 1 -5.26811067036704  6.54072205470547  2.13588570437044
 1 -10.48094207670767  2.95588274017402 -2.89712086668667
 1 -10.41169865276528  4.67476501100110 -3.05393838643864
 1 -9.55467122802280  3.70278817881788 -5.16806311691169
 1 -8.30648461446145  4.81580352095210 -4.55378506030603
 1 -7.90934120902090  3.19019333323332 -4.63268738343834
 1 -8.03613019461946 -1.10127338503850 -4.93577354635464
 1 -8.53384301220122 -2.96673373367337 -4.33214255815582
 1 -9.40895414451445 -1.27488412301230 -3.82596688178818
 1 -4.05130690669067 -3.82119794279428 -1.40300523062306
 1  2.51520946474647 -5.90327762086209  0.92947133503350
 1  2.10206353295330 -4.68801732813281 -0.54306974207421
 1  3.30088607100710 -3.76374649694969  2.19644800890089
 1  2.87879533143314 -3.62294384928493 -1.96919957005701
 1  4.15932327032703 -2.26634133473347 -1.98329654715472
 1  4.52683519091909 -3.77298915521552 -2.06621807910791
 1  4.93634750375038 -1.17936348094810  0.22241263236324
 1  5.25382774117412 -2.46097041424142  1.65667955425543
 1  6.82292151215121 -3.72589688918892  0.28329765146515
 1  6.66979581908191 -2.52078429442944 -1.12006169236924
 1  7.25158596019602 -0.65148170247025  0.53952270557056
 1  7.73257216741674 -2.00824907340734  1.82676014841484
 1  9.11536743634363 -1.89214725542554 -0.87613583228323
 1  8.92144430983098 -4.29652851275128  0.04240176997700
 1  10.55699872927293 -3.37728108280828 -0.17435501740174
 1  9.51542829042904 -3.69003473207321  1.36307727072707
 1  9.54123518441844  0.07523593399340  0.54848402280228
 1  10.45401436003600 -1.09884820412041  1.60412134943494
 1  11.84820675177518 -1.71360868256826  0.10123081528153
 1  10.99764570477048 -0.77828946444645 -1.33788463216322
 1  11.67122714081408  1.12545561736174  0.17597038663866
 1  12.64622538123812  0.25485676897690  1.23340251535154
 1  13.35803654595460  0.67893263606361 -1.73047925272527
 1  15.18029825702570 -0.68626164346435  0.44590968846885
 1  14.21284167066707 -1.79146232513251 -0.67253350745075
 1  15.28829868636864 -0.60210353805381 -1.16587899089909
 1  13.52709195479548  2.60232853205321 -0.21058093539354
 1  14.44050166236624  1.72948936343634  0.74475330263026
 1  16.24119284638464  1.32210767226723 -0.93052086708671
 1  15.37038183368337  2.00346859825983 -2.12116564746475
 1  15.22655411751175  4.16272948064806 -0.86898817881788
 1  16.61577121102110  3.40190615001500  0.47812027082708
 1  18.20604042084209  3.14220772927293 -1.09610399829983
 1  16.76633377017702  4.82235951485149 -3.30968524742474
 1  18.59157154705471  4.02324871807181 -3.33042047564757
 1  16.75736042134213  3.18701361256126 -3.52438299149915
 1  18.12312018601860  5.14810546354635  0.25719488518852
 1  19.01428903970397  5.44604083058306 -1.33953609470947
 1  17.52888545834584  5.89203361346135 -0.96149450155016
 1 -5.20488837343734 -7.83847494689469 -0.05904022002200
 1 -6.48462895419542 -6.82715209660966  0.89256910021002
 1 -4.54608682608261 -6.94694457065707  1.32629549794979
 8 -7.91247414271427  6.86154618601860 -0.48583201160116
 1 -9.15262864666467  6.10018743444344 -1.94206267376738

