%nproc=3
%Mem=2GB
# td=(NStates=1) iop(3/107=0140000000,3/108=0140000000) iop(3/107=0140000000,3/108=0140000000) CAM-B3LYP/6-31G(d,p) 

TD

0 1
12 -5.76213194439444  1.28884891259126  0.24614728352835
 6 -5.07639776157616 -2.10409437413741 -0.26093915901590
 6 -3.46887834773477  1.20490303180318  2.74823626182618
 6 -6.22030845314532  4.53938196129613  0.69028138933893
 6 -7.84511542954295  1.17844652705271 -2.41824591849185
 7 -4.38273535803580 -0.29706562966297  1.11206137313731
 6 -4.20650587098710 -1.66475765716572  0.65519923842384
 6 -3.20389179087909 -2.28766996559656  1.44395998459846
 6 -2.87709186458646 -1.33173384308431  2.66187297389739
 6 -3.70514731473147 -0.04756390899090  2.20167082568257
 6 -3.39106121412141 -1.80319701230123  4.08938679807981
 6 -1.86072091539154 -2.50913490669067  0.58456264236424
 6 -0.88153591649165 -3.39719480738074  1.43183706060606
 6  0.32395826322632 -3.82865773787379  0.52252041314131
 8  0.51458531243124 -3.42717240604060 -0.62388240364036
 8  1.17081876407641 -4.56868201300130  1.22620860936094
 7 -4.95271382238224  2.60245048174817  1.53956064266427
 6 -4.07788187538754  2.42840085608561  2.57341256705671
 6 -3.82317285448545  3.67305738823882  3.19484842924292
 6 -4.60591634733473  4.61312977847785  2.56343222742274
 6 -5.36805616801680  3.95536021252125  1.55369052095210
 6 -2.99127775267527  3.88362544624462  4.46418028852885
 6 -4.69808250825082  6.14144417861786  2.86687212401240
 8 -3.97059954725473  6.62212704290429  3.75005897839784
 7 -6.91947359695970  2.66959489198920 -0.69920258795880
 6 -6.95523772157216  3.96909731523152 -0.35285348844884
 6 -7.88912405260526  4.66569762656266 -1.27687049614962
 6 -8.35414844764476  3.63587271737174 -2.13706825922592
 6 -7.74706851835184  2.42087026112611 -1.78894266406641
 6 -8.46797907660766  5.99365073477348 -1.08325946054605
 6 -9.34485096349635  3.79746068436844 -3.30289283788379
 6 -8.76513549424943  3.68307967106711 -4.61848509520952
 7 -6.37072283958396 -0.20490567076708 -1.01581260166017
 6 -7.24347795449545 -0.10149105470547 -2.05151107370737
 6 -7.52905602220222 -1.30823597629763 -2.69081210581058
 6 -6.66299178287829 -2.16358013131313 -2.08312752265227
 6 -5.97582550605061 -1.42733676317632 -1.04516238093809
 6 -8.60771614631463 -1.69335912451245 -3.72602352175218
 6 -6.24984861196120 -3.56725583158316 -1.96819221312131
 8 -6.63806704730473 -4.51056602670267 -2.60904114981498
 6 -5.11989224272427 -3.60907267396740 -0.85843246404640
 6 -5.32399952755275 -4.66749195079508  0.08548569956996
 8 -5.79491367396740 -4.52514844824482  1.22629975027503
 8 -5.10028999219922 -5.79808369246925 -0.38140231163116
 6 -5.31152450165017 -6.96474006510651  0.55645318011801
 6  2.35197187878788 -5.12506876707671  0.57479546084608
 6  3.43016632673267 -4.13924542384238  0.95570685648565
 6  3.97617672137214 -3.27588740964096  0.07771014601460
 6  3.70923582088209 -3.06709989838984 -1.32692036083608
 6  5.16130033603360 -2.33867813601360  0.65420727162716
 6  6.50624622932293 -2.65560051305131 -0.15545521962196
 6  7.63797292399240 -1.75957760356036  0.53979781438144
 6  9.07666627512751 -2.11430741274127 -0.02833954715472
 6  9.51356843694369 -3.52455235773577  0.14325745074507
 6  10.04206964256426 -0.90863148404840  0.35667363076308
 6  11.35514867216722 -0.79780257535754 -0.28327363796380
 6  12.22484010461046  0.36024521502150  0.26445723392339
 6  13.47285667976798  0.44606429332933 -0.60420017721772
 6  14.46616478947895 -0.80375110511051 -0.29275596079608
 6  14.26340627882788  1.81176594879488 -0.22617025942594
 6  15.44655393629363  2.15973790909091 -1.10114722242224
 6  16.14921454115412  3.38652116211621 -0.59928102110211
 6  17.50770516521652  3.86793570907091 -1.27785883368337
 6  17.33582256435644  4.07622318501850 -2.79408172817282
 6  18.01926534573457  5.14978310431043 -0.74680563756376
 1 -2.67956346224622  1.23743060666067  3.41218883008301
 1 -6.36946782968297  5.60748695089509  0.80657041974197
 1 -8.46744194329433  1.05555981748175 -3.32756813771377
 1 -3.49493655885589 -3.36309942664266  1.67232297439744
 1 -1.88875996199620 -1.08839644784478  2.46567873387339
 1 -2.79574890009001 -2.60947752865287  4.33920386628663
 1 -3.24176077617762 -0.83224534223422  4.74398053395340
 1 -4.39164083988399 -2.14587250525053  4.23557678027803
 1 -2.07081424702470 -3.32960600560056 -0.29525726032603
 1 -1.46470717041704 -1.65449407680768  0.24233507480748
 1 -0.41978636873687 -2.89893986628663  2.29378391949195
 1 -1.28767824642464 -4.33265010131013  1.86630566726673
 1 -1.83434208630863  3.93808849554956  4.24553693479348
 1 -3.19868752275227  4.83774341344134  5.02633829672967
 1 -3.01863179567957  3.05509870397040  5.20246722352235
 1 -5.45723958325832  6.46718470097010  2.13631574737474
 1 -10.04199818231823  3.02410956285629 -3.22252340694069
 1 -10.05209269216922  4.55808334283428 -3.09534252685269
 1 -9.51255701660166  3.72354025402540 -5.33500981158116
 1 -8.03407737373737  4.53077501810181 -4.72136181798180
 1 -8.11424169906991  2.80249456335634 -4.98948306300630
 1 -8.24918149974997 -1.09181243894389 -4.65327529652965
 1 -8.29003863176318 -2.73300036033603 -4.07608695259526
 1 -9.54463771287129 -1.55317195179518 -3.41878616371637
 1 -4.11898367436744 -3.90438626162616 -1.29957488758876
 1  2.35054299809981 -6.14491178427843  0.80853924182418
 1  2.06267959455946 -5.13990251665167 -0.40162559765977
 1  3.68345432783278 -4.41179130143014  2.07442580668067
 1  2.58112556445645 -3.25987754265426 -1.54512716281628
 1  4.03788112611261 -1.92403710431043 -1.49528774627463
 1  4.18292079947995 -3.45792764906491 -2.27214867216722
 1  4.74049791879188 -1.35526107070707  0.36127651875187
 1  5.20219257765777 -2.47497181438144  1.79909379567957
 1  6.71136035603560 -3.63496779627963 -0.30138081638164
 1  6.19666850635064 -2.44052626862686 -1.21715140134013
 1  7.35053585518552 -0.72024857915792  0.43358211151115
 1  7.56953586378638 -2.03258150665066  1.69115658805881
 1  8.99222512211221 -2.06533457415742 -1.08519673837384
 1  8.86693885928593 -4.33625248514852 -0.13027549774977
 1  10.42819584898490 -3.49058241294129 -0.44671225312531
 1  9.79654640224022 -3.54602033063306  1.24619558255826
 1  9.43754481538154 -0.09593118271827 -0.06820764636464
 1  10.04981393999400 -0.58999731903190  1.51847278457846
 1  11.96425835693569 -1.83353067476748 -0.11393070087009
 1  11.34990093029303 -0.75514715021502 -1.42844368806881
 1  11.81181119921992  1.43632670447045  0.19707249684968
 1  12.44769552825283  0.10618190149015  1.30658983408341
 1  13.13547428972897  0.28851359415942 -1.67328353315332
 1  14.89483971117112 -0.65671868916892  0.69017411491149
 1  14.14335472197220 -1.88801198009801 -0.54952120622062
 1  15.33051290779078 -0.65107843554355 -0.88257066006601
 1  13.49445869146915  2.68836713591359 -0.38627850515051
 1  14.62193980618062  1.65209162366237  0.62627145444544
 1  16.16427515461546  1.20180564206421 -0.92464027902790
 1  15.19885468096810  2.12748099949995 -2.24441797269727
 1  15.38233969606961  4.24919812751275 -0.59416069606961
 1  16.58837847174717  3.07432339173917  0.37650010881088
 1  18.12258207500750  3.08346185468547 -1.17924231213121
 1  16.52453959075907  4.92916019491949 -2.89133341224122
 1  18.22710510041004  4.43168956215622 -3.33769120272027
 1  17.13060774607461  3.24660957215722 -3.19815036823682
 1  17.94674254825483  5.26249690269027  0.48795796149615
 1  19.12722033283329  5.30536676317632 -1.14533667476748
 1  17.47903047284728  5.96899130923092 -0.92905125722572
 1 -4.91562944754475 -7.92147324672467 -0.03771808780878
 1 -6.37945843714371 -7.00528991039104  0.80880072337234
 1 -4.82689490689069 -6.66210608680868  1.48100096849685
 8 -7.89159205450545  6.82244227562756 -0.36046947534753
 1 -9.53631701550155  6.10124754045405 -1.64321278877888

