%nproc=3
%Mem=2GB
# td=(NStates=1) iop(3/107=0140000000,3/108=0140000000) iop(3/107=0140000000,3/108=0140000000) CAM-B3LYP/6-31G(d,p) 

TD

0 1
12 -5.64194992619262  1.20866089378938  0.19919258805881
 6 -4.98160828262826 -2.08825278997900 -0.36470953605361
 6 -3.37378883878388  1.13872641414141  2.67679911811181
 6 -6.15880230253025  4.59328735183518  0.60585294649465
 6 -8.10127104510451  1.15360404280428 -2.20233432733273
 7 -4.31491857635764 -0.28202412551255  1.12751291829183
 6 -4.27209242964296 -1.54837601900190  0.70921463996400
 6 -3.15985738743874 -2.33735493409341  1.47440302890289
 6 -2.85941009640964 -1.33704437413741  2.51590837743774
 6 -3.52296909690969 -0.08350750335034  2.14948560716072
 6 -3.29547165516552 -1.74112080468047  3.85672353175317
 6 -1.99520436373637 -2.77709170237024  0.59428361446145
 6 -0.92810057295730 -3.57213230113011  1.36436031293129
 6  0.36619248664867 -3.88839371147115  0.56991515261526
 8  0.59226308020802 -3.51350103890389 -0.57085710111011
 8  1.11362304450445 -4.69646479127913  1.21117710621062
 7 -4.95620417141714  2.63158339503950  1.36966365296530
 6 -4.00935502270227  2.40201821782178  2.36410163596360
 6 -3.65722625982598  3.66041612411241  2.97226617101710
 6 -4.45955171087109  4.69182764826483  2.48728461266127
 6 -5.25878524092409  3.99343401990199  1.49789494139414
 6 -2.64764338923892  3.73633071677168  4.05618948944895
 6 -4.48174087408741  5.96855688988899  2.88627406420642
 8 -3.84217670497050  6.54960979117912  3.74273824632463
 7 -6.98499014861486  2.60481841434143 -0.67334000170017
 6 -7.09904210201020  4.00784118961896 -0.30152835593559
 6 -8.13323846404641  4.60563161996200 -1.13127593669367
 6 -8.57112014481448  3.62687181728173 -2.00813536593659
 6 -7.90026383788379  2.43236141024102 -1.67034080388039
 6 -8.35430770947095  6.00943231293129 -1.16640777537754
 6 -9.63491997039704  3.76506744504450 -3.10908345694570
 6 -8.97946692739274  3.94258562166217 -4.47852109880988
 7 -6.36051181848185 -0.01925710591059 -1.06887790819082
 6 -7.46462006870687 -0.08538944454445 -2.10184610721072
 6 -7.70575369196920 -1.40770592329233 -2.57278030263026
 6 -6.75396087978798 -2.11274504780478 -1.94934414431443
 6 -6.02900082358236 -1.30501453095309 -1.06441430613061
 6 -8.57739311401140 -1.79402919151915 -3.73133405280528
 6 -6.20467409450945 -3.48907801380138 -1.96861225512551
 8 -6.72586582718272 -4.47504247434743 -2.58201844754475
 6 -5.07422767626763 -3.52884465116512 -0.91089771057106
 6 -5.35870299789979 -4.60978618021802  0.08383553455346
 8 -5.83814799739974 -4.34094002740274  1.19982710301030
 8 -4.94832479567957 -5.78811269536954 -0.32421659305931
 6 -5.37032038123812 -6.90769436053605  0.48664619941994
 6  2.36997367896790 -5.17965422562256  0.44950293159316
 6  3.54250756085609 -4.28102960226022  0.82998428422842
 6  4.12441154485449 -3.30178999989999  0.06985936093609
 6  3.74030892819282 -3.03761695009501 -1.29871754055406
 6  5.17397160316032 -2.37597186538654  0.64459631053105
 6  6.52651825652565 -2.73425837883788 -0.00739041314131
 6  7.69655878257826 -1.90683232903290  0.80855469006901
 6  9.04677328582858 -1.97385336733673  0.14601788858886
 6  9.72501958205821 -3.33053295579558  0.25800892589259
 6  10.03410884648465 -0.79210983188319  0.61254921832183
 6  11.35975913321332 -0.74487728282828 -0.16565187578758
 6  12.25654327492749  0.39887907840784  0.27173796199620
 6  13.52147154125412  0.48572825972597 -0.64402415961596
 6  14.40808898189819 -0.72927365736574 -0.33550023522352
 6  14.28326826502650  1.78978375057506 -0.17298494089409
 6  15.56649593049305  2.10009194449445 -1.00752786048605
 6  15.99939955965596  3.46953946394639 -0.65659675267527
 6  17.34615901060106  3.85926484198420 -1.29552059985999
 6  17.10962994509451  3.89714527722772 -2.81020334033403
 6  17.88752217141714  5.16766489248925 -0.64702565956596
 1 -2.74655016091609  1.25031189478948  3.61580919211921
 1 -6.55248613151315  5.67386358855886  0.66821658435844
 1 -8.96393159225923  0.92056631813181 -3.05843122402240
 1 -3.57679474467447 -3.36040915761576  1.88880462256226
 1 -1.86929801580158 -1.08512612081208  2.75715788178818
 1 -2.78456778197820 -2.58583516441644  4.17484743064306
 1 -2.95993259335934 -1.08389050675068  4.74929106500650
 1 -4.30647232303230 -2.03078099609961  4.02758598119812
 1 -2.44006117171717 -3.47425047004700 -0.29461719631963
 1 -1.74913561326133 -1.78077670507051  0.12141298259826
 1 -0.59270366046605 -2.93711368366837  2.18387292839284
 1 -1.31522100070007 -4.42729956625663  2.04689372607261
 1 -1.49516816891689  3.71301598829883  3.57508989008901
 1 -2.78002565656566  4.78838847794779  4.55070073297330
 1 -2.59815974847485  3.23088628272827  4.92091906870687
 1 -5.27170102940294  6.79034701720172  2.39713182898290
 1 -10.43398738123812  3.07274442634263 -3.08789994459446
 1 -10.24185166806681  4.77784531903190 -2.80980397299730
 1 -9.79164492539254  4.00831873187319 -5.21903821442144
 1 -8.48334230023002  4.88701064166417 -4.46370605240524
 1 -8.36668694359436  2.93657797169717 -4.62598671337134
 1 -8.23192977457746 -1.27129038673867 -4.67360732973297
 1 -8.68933856175618 -2.90065712601260 -4.09943928782878
 1 -9.54667791689169 -1.42302893749375 -3.57139142424242
 1 -4.08589036503650 -3.57197302030203 -1.51294622472247
 1  2.36168411221122 -6.26971426452645  0.87042543044304
 1  2.16431975857586 -5.17733626002600 -0.58280371547155
 1  3.91638762116212 -4.61183130543054  1.97662602670267
 1  2.57986543844384 -2.84209576447645 -1.47680033013301
 1  4.15152249024902 -2.11317601820182 -1.60827904540454
 1  4.19153166056606 -3.92215407170717 -2.19661111841184
 1  5.10884475347535 -1.38540408500850  0.41360175127513
 1  5.23866622502250 -2.78447276447645  1.78886277257726
 1  6.98520774077408 -3.79740403990399 -0.00266094439444
 1  6.64470330983098 -2.49797201320132 -0.98389807600760
 1  7.28955975757576 -0.88818537283728  0.78798755205521
 1  7.70879979017902 -2.39573782228223  1.93945141754175
 1  8.79466536613661 -1.80645868656866 -1.08496671537154
 1  9.17785995139514 -4.29939879977998 -0.19193166336634
 1  10.75815884528453 -3.20902425712571 -0.20800838273827
 1  9.98303505110511 -3.54363009160916  1.32981394439444
 1  9.43455451635163  0.26829523992399  0.36928610301030
 1  10.22918187678768 -1.18829714901490  1.72939387668767
 1  12.03085501660166 -1.70290761246125  0.00413110531053
 1  11.15250119031903 -0.56395803130313 -1.21470231393139
 1  11.63262328042804  1.36883995579558  0.30967375697570
 1  12.53534429312931  0.29841112441244  1.33033220832083
 1  13.32529327162716  0.43237798059806 -1.59385559035904
 1  14.71188141534154 -0.84091710901090  0.66561165866587
 1  13.84440482698270 -1.72278545744574 -0.55235148924892
 1  15.22343219971997 -0.55116844454446 -0.97361976497650
 1  13.56838608420842  2.64279257845785 -0.39398927622762
 1  14.47382499469947  1.88377479197920  0.85072389968997
 1  16.23443217031703  1.35522098359836 -0.98051586658666
 1  15.15498029352935  2.18037628902890 -1.95446897779778
 1  15.15697715981598  4.22469567726773 -0.84583586358636
 1  16.21755138903890  3.33972993239324  0.60135259405941
 1  18.00258007480748  3.06775028352835 -1.06745113301330
 1  16.30526766356635  4.46466374527453 -3.18492277117712
 1  18.10018240814081  4.34113050625062 -3.22980041364136
 1  17.25363004830483  2.80636554775478 -3.37898845204520
 1  18.12117999199920  5.24824547754775  0.38662782848285
 1  18.88728633943395  5.47656388288829 -1.24506664776478
 1  17.09594216401640  5.95323973407341 -0.74265261736174
 1 -4.68438632323232 -7.76908800820082 -0.11208552455246
 1 -6.46368685998600 -7.15455483688369  0.27425726902690
 1 -5.10552276967697 -6.63045292149215  1.64868773717372
 8 -7.90212310761076  6.86087611901190 -0.47902133053305
 1 -9.01450483428343  6.35863327902790 -1.94433290079008

