%nproc=3
%Mem=2GB
# td=(NStates=1) iop(3/107=0140000000,3/108=0140000000) iop(3/107=0140000000,3/108=0140000000) CAM-B3LYP/6-31G(d,p) 

TD

0 1
12 -5.75939167036704  1.35072510021002  0.17731039983998
 6 -4.97236735853585 -2.19372333703370 -0.34531759685969
 6 -3.34923638353835  1.14638718021802  2.74813625182518
 6 -6.17151357365737  4.51421944504451  0.67052941414141
 6 -8.02637355535554  1.17991667406741 -2.46965105900590
 7 -4.40441752625263 -0.22227815091509  1.05153532053205
 6 -4.25522074247425 -1.55321650305030  0.72974669316932
 6 -3.17530893259326 -2.29386058465847  1.46144173277328
 6 -2.86096025142514 -1.30492116181618  2.55915270187019
 6 -3.49813661366137  0.00740158755876  2.12534319291929
 6 -3.29549165716572 -1.79086577917792  4.00828868826883
 6 -1.88169301260126 -2.74264825802580  0.62644683078308
 6 -0.98379614251425 -3.61838692659266  1.50045392229223
 6  0.32127799519952 -3.80800567266727  0.68759692079208
 8  0.47982183608361 -3.44580426922692 -0.43969398479848
 8  1.14609629182918 -4.72755790059006  1.31561755025503
 7 -4.98403695469547  2.65703594029403  1.54930161676168
 6 -4.03555764296430  2.46348436443644  2.40678590439044
 6 -3.71503204040404  3.64118420092009  3.10491943634363
 6 -4.50462621832183  4.67690615611561  2.55571145534553
 6 -5.24078344074407  3.91858653515352  1.58092324422442
 6 -2.77103572847285  3.66539362306231  4.27254112461246
 6 -4.57488018801880  6.06755678987899  2.81067650445044
 8 -4.09122160946095  6.48284311451145  3.92139611211121
 7 -6.85252690229023  2.65607353985399 -0.66385905360536
 6 -6.92516471427143  3.88299870537054 -0.36525472857286
 6 -7.90188532873287  4.60747180398040 -1.13927673677368
 6 -8.38560159295930  3.62787191729173 -2.08169272167217
 6 -7.75223903540354  2.40750892499250 -1.71162493229323
 6 -8.46717899659966  5.88349971967197 -1.11308244284428
 6 -9.43979045744575  3.82767370567057 -3.18359090769077
 6 -8.82826180688069  3.95902726582658 -4.56088933563356
 7 -6.37320308760876 -0.13073825402540 -1.10835185558556
 6 -7.29647325402540  0.03087218161816 -2.12078800140014
 6 -7.53197631423142 -1.38148330103010 -2.76663968856886
 6 -6.64976045974598 -2.17648142144214 -2.03326253615362
 6 -6.00628855235524 -1.39021305080508 -1.09720758545855
 6 -8.55944131883188 -1.61677146574657 -3.87016793619362
 6 -6.13786741384138 -3.55417452345235 -2.03957935183518
 8 -6.50932417301730 -4.54273924402440 -2.57832807850785
 6 -5.05655590909091 -3.55829759645965 -0.91358797959796
 6 -5.46259338693869 -4.61457665926593  0.07662481348135
 8 -5.81705588818882 -4.46610254365437  1.20279740004000
 8 -5.12172213541354 -5.86678056215622 -0.39939411081108
 6 -5.63366671587159 -6.96443003410341  0.42293982878288
 6  2.34048072967297 -5.05740200040004  0.63264124542454
 6  3.42755606570657 -4.08112961226123  1.00374165996600
 6  3.99444854855486 -3.21875169606961  0.08854122912291
 6  3.60111500880088 -3.04108729712971 -1.33769143794379
 6  5.15730993699370 -2.56761102930293  0.70959281018102
 6  6.52981858655866 -2.72497745074507  0.14387471337134
 6  7.68749787648765 -1.78418006380638  0.58215204980498
 6  9.05462407090709 -1.96624260626063 -0.08575528872887
 6  9.61457853795380 -3.36282618511851  0.26706983198320
 6  9.88599403500350 -0.77163778467847  0.39847781118112
 6  11.38681183848385 -0.85879867496750 -0.29598490909091
 6  12.23110073067307  0.32497168766877  0.22642343054305
 6  13.63979337343734  0.45517520442044 -0.59440919811981
 6  14.56585475847585 -0.71827255725573 -0.28141482668267
 6  14.26187612581258  1.81668644084408 -0.14763240564056
 6  15.51636091699170  2.11661359665967 -1.01694880258026
 6  16.05638525822582  3.44039654965497 -0.71670276327633
 6  17.39501389608961  3.92788170367037 -1.39326037383738
 6  17.32025100720072  3.85310087278728 -2.90813313331333
 6  17.75807922712271  5.26201432743274 -0.84920587758776
 1 -2.50467597349735  1.43160002360236  3.54568217941794
 1 -6.43020390329033  5.63620982318232  0.63755351805181
 1 -8.69901510061006  1.12988725022502 -3.41318669956996
 1 -3.81043810901090 -3.18446156285629  1.87393313541354
 1 -1.86444753075308 -0.95172278047805  2.58434060006001
 1 -2.43599292449245 -2.54779136003600  4.42364231013101
 1 -3.05192179227923 -0.94412653035304  4.68771490739074
 1 -4.37913958975898 -2.01487940594059  4.14534775737574
 1 -2.14604176977698 -3.28055110011001 -0.24562229682968
 1 -1.32731343104310 -1.88213684108411  0.26745758705871
 1 -0.73090748084808 -3.15264523682368  2.57846238733873
 1 -1.41376085468547 -4.58850568686869  1.55461449814982
 1 -1.74628328042804  3.59670435713571  4.01980436153615
 1 -2.89801745574558  4.56428606770677  4.67373303620362
 1 -3.04779471197120  2.86585978007801  4.89613659045905
 1 -5.01382524182418  6.73742172467247  1.95728784458446
 1 -10.05288927142714  2.88322547444745 -2.98654980958096
 1 -10.08322580548055  4.75371290579058 -2.78985197779778
 1 -9.60934669556956  4.06138403840384 -5.34698100870087
 1 -8.23466743274327  5.14609655025503 -4.83152283408341
 1 -8.13436371127113  3.01613592749275 -4.69955407010701
 1 -8.24725130673067 -1.01364462216222 -4.69934990399040
 1 -8.52009163706371 -2.64982204250425 -4.35442478637864
 1 -9.48342159125913 -1.20021665626563 -3.37362164726473
 1 -4.00925270127013 -4.01081690469047 -1.18521345144514
 1  2.52371031483148 -6.15107240034003  1.01366975487549
 1  2.02253558015802 -5.11946047244725 -0.41234666976698
 1  3.87392337473747 -3.95802592489249  2.04108247234723
 1  2.64522197409741 -3.77284883978398 -1.23040569066907
 1  3.58018535653565 -1.97222192279228 -1.61238945644564
 1  4.46770927832783 -3.65379723602360 -1.78855031233123
 1  5.09075294429443 -1.36534207880788  0.49332972407241
 1  5.25572793119312 -2.48647296449645  1.92944683098310
 1  6.72769198919892 -3.78083238273827  0.48075739743974
 1  6.68819765926593 -2.59902211821182 -1.06982666886689
 1  7.48531933353335 -0.67773432773277  0.38770752405241
 1  7.81873078327833 -1.55179342784278  1.66952442484248
 1  8.89592549214922 -2.06758479917992 -1.14228244694469
 1  8.90053221862186 -4.12281114101410  0.03530105990599
 1  10.61714474387439 -3.72775613031303 -0.09492707460746
 1  9.76041278887889 -3.32486821542154  1.40301126412641
 1  9.64266532743274  0.14002241264126  0.13934310871087
 1  10.11695065366537 -0.89583790309031  1.50006094339434
 1  11.78086001710171 -1.93093041474147 -0.11566087388739
 1  11.20747668786879 -0.74248588408841 -1.64173501720172
 1  11.90980099819982  1.18165123692369  0.06132892249225
 1  12.33978473717372  0.23926520982098  1.20380955605561
 1  13.40464120642064  0.31470621342134 -1.66405261006101
 1  14.85480570777078 -0.95077809510951  0.85346044354435
 1  14.00178056455646 -1.55668884778478 -0.67664391849185
 1  15.53037289378938 -0.48190151785179 -0.75709811281128
 1  13.63084232983298  2.71909020822082 -0.10308018531853
 1  14.75196280848085  1.71213762826283  0.85018384568457
 1  16.19346807390739  1.26162162366237 -0.75165298029803
 1  15.42885768126813  2.10739899129913 -2.20563409430943
 1  15.21315277737774  4.14146735443544 -0.90975225522552
 1  16.25245487938794  3.73468942834283  0.23861632043204
 1  18.25523534033404  3.16967047554755 -1.14963935183518
 1  16.54907204400440  4.77098437733773 -3.24396867576758
 1  18.29983237313731  4.23217961116112 -3.30126756035604
 1  17.10902558785878  2.93351826302630 -3.32067262046205
 1  17.93276115011501  5.31066171917192  0.30158932463246
 1  18.76669428022802  5.58034426092609 -1.22536467756776
 1  16.87798036783678  6.13209761986199 -1.23683203530353
 1 -5.43281116571657 -7.70985208460846 -0.22595691169117
 1 -6.79791028232823 -6.71495087648765  0.61168101140114
 1 -5.27767998539854 -7.00821069726973  1.34337720612061
 8 -7.99666256155616  6.78759879127913 -0.35663909230923
 1 -9.22314569836984  6.29107652335234 -1.81221968946895

