%nproc=3
%Mem=2GB
# td=(NStates=1) iop(3/107=0140000000,3/108=0140000000) iop(3/107=0140000000,3/108=0140000000) CAM-B3LYP/6-31G(d,p) 

TD

0 1
12 -5.69808553975398  1.24202423012301  0.27203987278728
 6 -4.92426254805481 -2.07453141784178 -0.32626569166917
 6 -3.40647210711071  1.31164370587059  2.79001043924392
 6 -6.26125254755476  4.62364038713871  0.60488284948495
 6 -7.94208512651265  1.17052573497350 -2.37045113901390
 7 -4.38486557105711 -0.19391531463146  1.12111227822782
 6 -4.18043326372637 -1.47642882428243  0.66549026752675
 6 -3.12912431413141 -2.26707790639064  1.50683627222722
 6 -2.97509166456646 -1.26658732843284  2.67868465506551
 6 -3.54729152915292  0.03115396279628  2.15913657225723
 6 -3.63714582258226 -1.73904059665967  4.08872673207321
 6 -1.95098994229423 -2.60022401560156  0.66918110421042
 6 -1.06067383028303 -3.65349043694369  1.35498937583758
 6  0.20610647804780 -4.04758963106311  0.53567172827283
 8  0.43482733663366 -3.72879256805681 -0.59667968336834
 8  1.03010469266927 -4.73673881868187  1.25265125362536
 7 -4.85969452045205  2.70520075677568  1.49078576517652
 6 -3.97529161636164  2.48574659065907  2.50171539733973
 6 -3.74265480268027  3.69732981548155  3.23093203760376
 6 -4.59036479217922  4.65618408390839  2.61105698989899
 6 -5.46389575197520  3.99154383088309  1.60347549944994
 6 -2.84755338023802  3.85042212591259  4.40667453795380
 6 -4.68533123312331  6.08024805900590  2.97435287208721
 8 -3.99509199649965  6.61894672487249  3.91059503200320
 7 -6.78016966656666  2.64235216771677 -0.74362703040304
 6 -6.92162436023602  3.95152555805581 -0.40082828592859
 6 -7.94325946614661  4.58946000280028 -1.23285609470947
 6 -8.41865489828983  3.65995512561256 -2.04408896129613
 6 -7.78382219371937  2.39868804290429 -1.73131690149015
 6 -8.24033631233123  6.00711208090809 -1.20947208180818
 6 -9.43531000940094  3.74207514581458 -3.28244079267927
 6 -8.71945092579258  4.00440180328033 -4.64268751545155
 7 -6.38735450275027 -0.15085026522652 -1.06967798819882
 6 -7.32892649934993 -0.03281418701870 -2.10296621922192
 6 -7.48032114871487 -1.37334248694870 -2.76045907050705
 6 -6.62705818951895 -2.19090286358636 -2.11344055395540
 6 -5.90093801730173 -1.43589761926193 -1.11674953965397
 6 -8.55077045174517 -1.66451624022402 -3.76558747814782
 6 -6.04728835593559 -3.54677378337834 -2.02425781968197
 8 -6.48103134373437 -4.53825879597960 -2.64177442314231
 6 -4.98403865736574 -3.51869363606361 -0.85315193599360
 6 -5.18537566516652 -4.67201240284028  0.18749590059006
 8 -5.50255443804380 -4.50325625902590  1.33894101440144
 8 -4.95558552175217 -5.85051893599360 -0.41622579397940
 6 -5.30604395359536 -7.02453604470447  0.40518805360536
 6  2.33836051765176 -5.06475273547355  0.60149813111311
 6  3.47113042314231 -4.20771227052705  1.00376166196620
 6  3.92846194989499 -3.26684650555056  0.21025340034003
 6  3.57061195849585 -3.13901709010901 -1.25725339413941
 6  5.16038024402440 -2.41230549874988  0.60980283118312
 6  6.50172577727773 -2.71171612461246 -0.07706738083808
 6  7.56323545024502 -1.92016366216622  0.60213404800480
 6  8.94044265276528 -2.15747172917292 -0.05700241344134
 6  9.45057213731373 -3.56136603910391  0.20813393839384
 6  9.99481491709171 -1.05596621752175  0.53291125452545
 6  11.27857101440144 -0.90117291239124 -0.19257456805681
 6  12.20327794839484  0.22227141764176  0.23901468966897
 6  13.49547894199420  0.49526921382138 -0.57404716191619
 6  14.48256642964297 -0.66908763876388 -0.40014669986999
 6  14.19776971517152  1.82997776997700 -0.12409005140514
 6  15.40240952185219  2.25694763006301 -1.01852896059606
 6  15.99612923262326  3.55087759775978 -0.66797789078908
 6  17.23013740844084  3.93549246474647 -1.42549359715972
 6  17.06132511461146  4.20196575927593 -2.92417473747375
 6  17.97665108430843  5.16269439543954 -0.88617957495750
 1 -2.70681618751875  1.25210207380738  3.63054066526653
 1 -6.66839772267227  5.52851905410541  0.80428019071907
 1 -8.62171737083708  1.17790205170517 -3.23602898379838
 1 -3.78363542874288 -3.12000511721172  1.60028577067707
 1 -1.79618070407041 -1.15658326652665  2.60827299329933
 1 -3.24828415361536 -2.76717329822982  4.22796274217422
 1 -3.44858145824583 -1.07002912061206  4.81185732163216
 1 -4.71637331313131 -1.96816473447345  4.00940416301630
 1 -2.33014017961796 -2.84815786078608 -0.39599733433343
 1 -1.36365706540654 -1.72186081348135  0.53438427972797
 1 -0.75901029112911 -3.44262423472347  2.26360090119012
 1 -1.62391186978698 -4.46415325162516  1.84605364206421
 1 -1.80407906000600  3.51950663736374  4.27613999509951
 1 -2.73448110211021  4.89803944304430  4.64659032193219
 1 -3.48464839733973  3.35696889098910  5.31309828662866
 1 -5.39520337963796  6.67906588908891  2.42049416521652
 1 -10.09590357285729  2.88299545144514 -3.39953110771077
 1 -10.00682816571657  4.50670820532053 -2.95671866446645
 1 -9.38814457535754  4.25715361536154 -5.46959326992699
 1 -8.15665963196320  4.99877181778178 -4.66829651145115
 1 -8.16528680358036  2.95213952785279 -4.72606672137214
 1 -8.37655423702370 -1.17879113681368 -4.68446841584158
 1 -8.38986861476148 -2.74823188348835 -4.10917026092609
 1 -9.57058030713071 -1.52549918451845 -3.39181346644664
 1 -3.99833160916092 -4.01548737173717 -1.43161809190919
 1  2.59065700950095 -6.10897819091909  0.65122351025103
 1  2.14284761136114 -4.86212473887389 -0.48784421952195
 1  3.84103008540854 -4.43336345864586  2.09669803390339
 1  2.72135958785879 -3.49881143604360 -1.40949359945995
 1  3.44747208520852 -2.10543524412441 -1.54809302680268
 1  4.28390089748975 -3.57490934723472 -2.12762421972197
 1  5.03478734773477 -1.36031157575758  0.48496888798880
 1  5.25040739913991 -2.27568188538854  1.77118100440044
 1  6.63148236823682 -3.80783508300830 -0.04632531083108
 1  6.37344618411841 -2.62437465346535 -1.03573325952595
 1  7.42802360396040 -0.89177573187319  0.48189694299430
 1  7.61633054325433 -2.17131538003800  1.54669214161416
 1  8.98354425402540 -1.93914195489549 -1.19921814051405
 1  8.80423258865887 -4.33568242814281 -0.34831730193019
 1  10.61621465086509 -3.61640499519952 -0.23619120102010
 1  9.38623537113711 -3.78559428802880  1.14228519151915
 1  9.47782884378438 -0.08829041864186  0.31473064746475
 1  10.01110006860686 -1.12431075037504  1.52734367166717
 1  11.88273020412041 -1.76273359505951 -0.02945225302530
 1  11.24148008820882 -0.94299593509351 -1.30592143584358
 1  11.69352937103710  1.27347041884188  0.44762755235524
 1  12.66113687238724 -0.07781649834984  1.34933410851085
 1  13.07856859915992  0.62150689348935 -1.53434963976398
 1  14.56937716491649 -0.76292931023102  0.65899099659966
 1  14.00468085458546 -1.48075125402540 -0.59126538063806
 1  15.36377623412341 -0.53074640234023 -0.90031243424342
 1  13.34767401300130  2.63364166336634 -0.21209108640864
 1  14.57815542774278  2.00623703820382  0.86372519981998
 1  16.22701142824282  1.54483994549455 -1.12025984098410
 1  15.11581637713772  2.37825607700770 -2.14474800570057
 1  15.39678114021402  4.47272047974797 -0.65089636963696
 1  16.34946458035803  3.62079803920392  0.36002846164616
 1  17.86239605640564  3.02966647514751 -1.35721010891089
 1  16.15810294709471  4.90603788268827 -3.40236451535154
 1  17.97025941584158  4.56176256945695 -3.35903333693369
 1  16.59939462476247  3.29776468766877 -3.33142369556956
 1  18.29922779677968  5.07701835483548  0.12377154285429
 1  19.00395800660066  5.37609383588359 -1.44981712281228
 1  17.56975954575458  6.22191660176018 -0.97260561266127
 1 -4.91515940054005 -7.91182228162816 -0.22768708470847
 1 -6.36066655795580 -7.11316069746975  0.52131197449745
 1 -4.69423164056406 -6.96614649084909  1.38959182758276
 8 -7.77458035333533  6.91335136653665 -0.47944137253725
 1 -8.70593397719772  6.31058847454745 -2.27353582108211

