%nproc=3
%Mem=2GB
# td=(NStates=1) iop(3/107=0140000000,3/108=0140000000) iop(3/107=0140000000,3/108=0140000000) CAM-B3LYP/6-31G(d,p) 

TD

0 1
12 -5.62641837303730  1.23502353005301  0.15301797059706
 6 -5.00226034783478 -2.10542450715072 -0.37115018011801
 6 -3.24960642054205  1.16367890939094  2.63839527772777
 6 -6.20074649694970  4.54222224532453  0.59503186438644
 6 -8.07654857285729  1.13269195159516 -2.43301739563956
 7 -4.30717780228023 -0.23497942104210  0.98624879187919
 6 -4.17538275867587 -1.67319850125013  0.62946666516652
 6 -3.21403280498050 -2.37710890949095  1.46443203180318
 6 -2.89834398979898 -1.30815148484848  2.66520330693069
 6 -3.62189898989899 -0.04129328192819  2.10475113371337
 6 -3.27483959195920 -1.84776146874687  4.02276013541354
 6 -1.93145798909891 -2.73944793799380  0.66855104120412
 6 -0.90414817771777 -3.40526561446145  1.44832870977098
 6  0.24817068446845 -3.87261213331333  0.54235239633963
 8  0.48840269416942 -3.39359904870487 -0.55238525392539
 8  1.06643832603260 -4.72564770957096  1.12574856335634
 7 -4.88648719971997  2.57822805950595  1.43740042664266
 6 -3.89419350655066  2.42043005900590  2.41586681248125
 6 -3.70494103130313  3.65091517401740  3.10901984638464
 6 -4.61890764646465  4.62493095859586  2.58192407660766
 6 -5.33255261766177  3.93694837133713  1.50579573147315
 6 -2.72977160206021  3.92599968366837  4.24997886838684
 6 -4.67753045304531  5.93436347054705  2.98040347714771
 8 -3.94449693699370  6.46417124732473  3.90022399489949
 7 -6.99035068466847  2.64803273577358 -0.75218788648865
 6 -6.98667086488649  3.94260466596660 -0.38650685378538
 6 -8.04000914111411  4.54954601140114 -1.13993680278028
 6 -8.57041007380738  3.59724885498550 -2.06738129052905
 6 -7.86719053055306  2.36758493259326 -1.71565533533353
 6 -8.33088536723672  5.92652402210221 -1.15496663126313
 6 -9.65275175357536  3.81649258755876 -3.04997754635464
 6 -9.13345232593259  3.95167653075308 -4.48019126582658
 7 -6.36982274957496 -0.08151333153315 -1.14937595799580
 6 -7.46197980468047 -0.03218412401240 -2.11153707630763
 6 -7.55705882248225 -1.35902105480548 -2.67915093969397
 6 -6.60055553925393 -2.15861963526353 -2.15876508640864
 6 -5.93670159365937 -1.35220925042504 -1.13635149984998
 6 -8.58723409810981 -1.79736952555256 -3.81234215361536
 6 -6.21864549164917 -3.54328343434343 -2.05495088898890
 8 -6.67053029362936 -4.54599957005701 -2.63436368206821
 6 -5.09686994049405 -3.56566833353335 -0.92011863266327
 6 -5.46128325592559 -4.59459466106611  0.14678182918292
 8 -5.91934611721172 -4.36485241864186  1.24074119441944
 8 -5.14347431063106 -5.86314019811981 -0.30705487688769
 6 -5.40138348754876 -6.86130972207221  0.65524305910591
 6  2.41522820442044 -4.93294955515552  0.49465744704470
 6  3.49475278537854 -3.99732123142314  0.89034031983198
 6  4.12066116981698 -2.99839966086609  0.11223359835984
 6  3.76674157145715 -2.91012420082008 -1.30808847764776
 6  5.22358656465647 -2.39169343754375  0.71880373127313
 6  6.60981658635864 -2.45249020202020  0.06827715361536
 6  7.68742786948695 -1.64216586238624  0.66366020062006
 6  9.06399500800080 -2.01022700470047  0.00489377617762
 6  9.56139321942194 -3.41404130663066  0.28810193519352
 6  10.10781621722172 -0.95924654555456  0.53054101750175
 6  11.51533469076908 -0.97197999309931 -0.19412472307231
 6  12.39022664326433  0.11732092259226  0.27861865006501
 6  13.64140353445345  0.41759144604460 -0.50849060626063
 6  14.59441761476148 -0.82120285028503 -0.33168985418542
 6  14.35826576477648  1.63125789798980 -0.09451709410941
 6  15.57817709860986  2.04390632593259 -0.80459756745675
 6  16.08452807250725  3.52524503450345 -0.56188728172817
 6  17.31946634133413  3.91604051955196 -1.44710575837584
 6  16.88746772887289  3.95766132883288 -2.90890321032103
 6  17.99035245444544  5.16595472147215 -0.91071202820282
 1 -2.59481498739874  1.06556341994199  3.41760937213721
 1 -6.27038792169217  5.60116631883188  0.75653541624162
 1 -8.59484468356836  0.99849411091109 -3.24329971087109
 1 -3.67318438363836 -3.26665978267827  1.85011075317532
 1 -1.77046813281328 -1.28932654085409  2.56490865686569
 1 -2.98273759895990 -2.88252483338334  4.00371031693169
 1 -2.89618621872187 -1.10006212391239  4.83378951485149
 1 -4.38228990479048 -1.91596951495150  3.81296451905191
 1 -1.93355052065207 -3.24088713371337 -0.19368710331033
 1 -1.53615431513151 -1.75766439383938  0.29654049534953
 1 -0.61460585068507 -2.79986995929593  2.37526206730673
 1 -1.35402488108811 -4.34460129642964  1.79002803950395
 1 -1.71424007610761  3.58097278397840  3.92140452155216
 1 -2.68989664366437  4.95892553165316  4.43006866976698
 1 -3.07737767026703  3.50306350045004  5.14005098189819
 1 -5.33084694399440  6.58388637113711  2.49773188898890
 1 -10.22902688518852  2.91575872777278 -2.96858801340134
 1 -10.30816829972997  4.78972650715072 -2.83939693229323
 1 -10.07258301920192  4.06171407140714 -5.05462177277728
 1 -8.41220518651865  4.69798173877388 -4.65410509230923
 1 -8.39472974787479  3.24690900480048 -4.72827694239424
 1 -8.62836941854185 -1.13091634933493 -4.63949391839184
 1 -8.34974460236024 -2.85437249754975 -4.20949029292929
 1 -9.64517776687669 -1.73265990059006 -3.31272555765576
 1 -4.11196297229723 -3.77263308630863 -1.45819074917492
 1  2.71834977877788 -6.08695598869887  0.75267365526553
 1  2.25910923752375 -4.88021654805481 -0.71317675277528
 1  3.80254623702370 -4.14798492079208  1.90510887498750
 1  2.57219467136714 -2.88455000990099 -1.40942359245925
 1  4.15162250025002 -1.99157385798580 -1.79450766826683
 1  4.23297580498050 -3.87648950525053 -1.90788224552455
 1  4.91464533353335 -1.05700124472447  0.56591698279828
 1  5.13470582898290 -2.54412873007301  1.84397828412841
 1  6.88338755875588 -3.49038333783378  0.08513783548355
 1  6.17977681718172 -2.29676189218922 -1.07157684388439
 1  7.46206700830083 -0.62074862916292  0.51266001930193
 1  7.95064397459746 -1.85083333183318  1.84439191159116
 1  8.87790368996900 -1.81177921862186 -1.05287350605060
 1  8.87485965136514 -4.08120698059806 -0.04563703390339
 1  10.57942097149715 -3.63198655335534 -0.26230381228123
 1  9.75263201080108 -3.60556628522852  1.23745470847085
 1  9.75902696359636  0.16042445284528  0.29946912131213
 1  10.25337429602960 -1.07891621092109  1.48059899719972
 1  11.94644657575758 -1.85021234293429 -0.04927423522352
 1  11.38400434063406 -0.72155379087909 -1.31063190689069
 1  11.93755377347735  1.09854292609261  0.18187097669767
 1  12.26369712841284  0.09702098539854  1.39043821892189
 1  13.44724546684668  0.22304704750475 -1.69196540134013
 1  14.87352757995800 -1.04771778907891  0.84006910441044
 1  14.12425281178118 -1.85261844074407 -0.59460571467147
 1  15.46086594309431 -0.87845117281728 -1.14846724972497
 1  13.57124637023702  2.40159845904590 -0.09369924722472
 1  14.59621723392339  1.45804221872187  1.06418524582458
 1  16.37035576267627  1.45100056155616 -0.60616843184318
 1  15.41704650015001  1.83452170357036 -1.80929446034603
 1  15.31780324242424  4.30211341904190 -0.53308458845885
 1  16.48724835873587  3.60878683808381  0.43812627142714
 1  18.22695251205121  3.23381689018902 -1.14908929682968
 1  15.93821095789579  4.51145842474248 -3.19494377327733
 1  17.76550894079408  4.18634502770277 -3.68143557715772
 1  16.52645733103310  2.87841275247525 -3.34882543574357
 1  18.38406628062806  5.15065571857186  0.16078524422442
 1  18.79734734553455  5.34983120962096 -1.53719586068607
 1  17.34852742254225  6.02487689778978 -0.99494784688469
 1 -5.13782166676668 -7.70490158955896  0.22761844584458
 1 -6.43421391269127 -7.01356073747375  0.72837268056806
 1 -4.93025524292429 -6.77237711391139  1.66483935233523
 8 -7.95446834213421  6.79031906330633 -0.37491091949195
 1 -9.07756113991399  6.27463487918792 -1.86940540804080

