%nproc=3
%Mem=2GB
# td=(NStates=1) iop(3/107=0140000000,3/108=0140000000) iop(3/107=0140000000,3/108=0140000000) CAM-B3LYP/6-31G(d,p) 

TD

0 1
12 -5.66873260446045  1.18603863156316  0.24477714651465
 6 -5.03042316411641 -2.18788275297530 -0.39662272737274
 6 -3.40789224912491  1.25316785828583  2.65044648284828
 6 -6.31563798609861  4.46439446254625  0.73163552475248
 6 -8.03564448244824  1.13715239763976 -2.34164825872587
 7 -4.41709879437944 -0.25305122822282  1.03472363936394
 6 -4.27957317771777 -1.70532171357136  0.74517823632363
 6 -3.22357375907591 -2.38443964256426  1.55568115671567
 6 -2.91358551395140 -1.31314198389839  2.59042582918292
 6 -3.55181198119812 -0.03822297489749  2.12909356795680
 6 -3.46579868786879 -1.79149584218422  3.93980183958396
 6 -2.07677252055206 -2.61789578277828  0.60644483058306
 6 -0.99106686958696 -3.46179126702670  1.26071994889489
 6  0.19476534393439 -3.89059393149315  0.55771393249325
 8  0.45020887478748 -3.45776546534653 -0.55817583298330
 8  1.03705538773877 -4.68494363916392  1.20813680218022
 7 -4.97053560456046  2.63734397109711  1.45969265586559
 6 -4.02921700890089  2.48106612261226  2.47323254905491
 6 -3.66082661986199  3.72393247574757  3.11208015241524
 6 -4.50172592829283  4.66415488098810  2.53432931713171
 6 -5.33573293569357  4.00934561106111  1.49161431333133
 6 -2.77656628152815  3.96828391209121  4.18057192769277
 6 -4.70845354535454  6.07535756995700  2.85806124292429
 8 -4.11749423672367  6.65367019721972  3.77448142064206
 7 -6.91382303190319  2.59489742224222 -0.71057372507251
 6 -7.06327852565257  3.88417882338234 -0.27898610171017
 6 -8.11609674987499  4.54107516431643 -1.04970777987799
 6 -8.53123615641564  3.54718384848485 -1.95495004740474
 6 -7.91531534303430  2.35688386248625 -1.62075584538454
 6 -8.41111339003900  5.94536590629063 -1.09789092369237
 6 -9.51839831823182  3.67915885418542 -3.11454400300030
 6 -8.72655163586359  3.95981734483448 -4.40236348304830
 7 -6.43885965326533 -0.07225240544054 -1.11387240764076
 6 -7.37414102080208 -0.05645655125513 -2.04604052665267
 6 -7.57557067366737 -1.37766291899190 -2.68355137973797
 6 -6.64851033473347 -2.07158093139314 -2.10766997689769
 6 -5.93206112961296 -1.40995502500250 -1.12049991469147
 6 -8.63397877257726 -1.74413420202020 -3.73646456585659
 6 -6.18844247134713 -3.54505361136114 -2.02649804370437
 8 -6.49247248784878 -4.35081005110511 -2.85034528022802
 6 -5.06080633413341 -3.55992775947595 -0.90812743354335
 6 -5.37978510611061 -4.67457265886589  0.09639679067907
 8 -5.65177936053605 -4.46550248364836  1.27251437173717
 8 -5.07520748394839 -5.95763964806481 -0.39298346974697
 6 -5.27878122732273 -7.01009460056006  0.43168070287029
 6  2.38051473307331 -4.99456571677168  0.70790877217722
 6  3.38782209230923 -4.05904740404040  1.03098438423842
 6  4.01366046974697 -3.26623644454445  0.18657103210321
 6  3.78901379867987 -3.13520670907091 -1.27523519231923
 6  5.17690189618962 -2.32254652285229  0.76243809470947
 6  6.54635023972397 -2.60075502850285 -0.00133980808081
 6  7.61461058775878 -1.73992563836384  0.59900373497350
 6  9.02951155965597 -1.89786576857686 -0.07469418261826
 6  9.53007008710871 -3.36005590809081  0.09663278827883
 6  10.06355179077908 -0.78076869776978  0.37447541094109
 6  11.45519867716772 -0.80767356245625 -0.27394270487049
 6  12.34172179277928  0.37044623512351  0.18704949314931
 6  13.65543493759376  0.44185387228723 -0.56117587478748
 6  14.61229940294029 -0.72938366836684 -0.27940462566257
 6  14.35079501770177  1.79724449664966 -0.16339398179818
 6  15.59429871077108  1.98735067036704 -0.94838194589459
 6  16.09773939363936  3.44746725672567 -0.66634772777278
 6  17.48831322602260  3.71639055455546 -1.34984603240324
 6  17.50440942304231  3.75984154685469 -2.90003232323232
 6  17.94542796199620  5.15453357935794 -0.76868782578258
 1 -2.84048955485549  1.35630249384938  3.59950756195620
 1 -6.84595547844784  5.63004920712071  0.66447621032103
 1 -8.72955815491549  1.25862012351235 -2.99106448734873
 1 -3.48762582778278 -3.28120123682368  2.10894663676368
 1 -1.82493357935794 -1.09221682988299  2.67664983098310
 1 -2.94805413061306 -2.76136271717172  4.25818576447645
 1 -3.12629923002300 -1.24044616231623  4.73092922882288
 1 -4.47492916871687 -2.11435935393539  4.14805802840284
 1 -2.63119028462846 -3.18336138113811 -0.22268000260026
 1 -1.72354305400540 -1.59198782618262  0.20055089638964
 1 -0.59861425152515 -2.95939591189119  2.22638717981798
 1 -1.37459693829383 -4.26873370967097  1.70365940264026
 1 -1.83448210031003  3.81241592829283  3.84009639073907
 1 -2.92616027002700  4.96722636173617  4.81797746064607
 1 -2.89671960446045  3.34958815291529  5.22034901170117
 1 -5.37039089838984  6.71355933843384  2.22930504630463
 1 -10.07454143664367  2.83865101700170 -3.11586274087409
 1 -10.22418990189019  4.48850638513851 -2.82135512811281
 1 -9.34379013991399  3.77842574257426 -5.34508081868187
 1 -8.19994396039604  4.94860680128013 -4.49217889968997
 1 -7.90009028392839  3.11769608350835 -4.58710282498250
 1 -8.47151373297330 -1.17919117681768 -4.63993396239624
 1 -8.89340896879688 -2.86797385768577 -3.91381072497250
 1 -9.50727397649765 -1.33551018561856 -3.30645493059306
 1 -4.23267504350435 -3.80753657665766 -1.45898082818282
 1  2.63448139193919 -5.85591288438844  1.25904429232923
 1  2.27442076867687 -5.05808433483348 -0.38366380148015
 1  3.65832181458146 -3.98878900120012  2.12668103220322
 1  2.61713916581658 -3.17591914681468 -1.45401805190519
 1  4.25577291529153 -2.17994269486949 -1.62702091959196
 1  4.30081258865887 -4.06756861316132 -1.93438489578958
 1  4.78591246024603 -1.34708025262526  0.39663005410541
 1  5.35823818221822 -2.45464978217822  1.80413429972997
 1  6.88914813481348 -3.65767006650665  0.10030935263526
 1  6.30256909640964 -2.43404562056206 -1.19707939413941
 1  7.45253605520552 -0.58220477477748  0.36407516081608
 1  7.76659556975697 -1.85579382788279  1.74910238263826
 1  9.22320822042204 -1.70429847054705 -1.12123034173417
 1  8.90930309570957 -4.03539239913991 -0.45318778897890
 1  10.70589361876188 -3.28318167286729 -0.35499308120812
 1  9.48821556915692 -3.76443217181718  1.21863282628263
 1  9.53076413731373  0.06325473587359  0.34258343274327
 1  10.25572453105310 -0.64215253455346  1.41890282758276
 1  11.96116804790479 -1.72496981868187  0.02750344254425
 1  11.23422936313631 -0.68179981548155 -1.38685952965297
 1  11.60273029112911  1.09497256905691  0.19823261286129
 1  12.35599635833583  0.28826010931093  1.18966814191419
 1  13.47693843614361  0.56560130293029 -1.59395560036004
 1  14.89629985718572 -0.79874289158916  0.92509760726073
 1  13.96314670117012 -1.68272145104510 -0.35335158925893
 1  15.33805366186619 -0.57248057575758 -1.05356775977598
 1  13.69811905750575  2.67304560376038 -0.56468634593459
 1  14.49447705990599  1.75690210471047  0.83022184948495
 1  16.49555828292829  1.42925838733873 -0.58069588458846
 1  15.52311710721072  1.91887013841384 -1.93662719361936
 1  15.44695615771577  4.12907611531153 -0.99723100310031
 1  16.13629326322632  3.73919987938794  0.37560001880188
 1  18.32791260806081  2.96326983548355 -0.78332272017202
 1  16.66568370517052  4.62736001490149 -3.16765104400440
 1  18.42191458135813  3.96411280448045 -3.36551398499850
 1  17.02814750005000  2.86683159435944 -3.32561311451145
 1  18.01456933093309  5.08894954795479  0.38767793349335
 1  19.00745835663566  5.25689191569157 -1.17901004210421
 1  17.38908147794779  6.16780119021902 -0.97040539263926
 1 -5.50463834843484 -7.87357845724572 -0.23985830183018
 1 -6.39385987728773 -6.83843322472247  0.99134897819782
 1 -4.48501071847185 -7.12602247844784  1.23145601400140
 8 -7.86388928422842  6.80876090749075 -0.45008843724372
 1 -9.25296868066807  6.32353976967697 -1.66708517601760

