%nproc=3
%Mem=2GB
# td=(NStates=1) iop(3/107=0140000000,3/108=0140000000) iop(3/107=0140000000,3/108=0140000000) CAM-B3LYP/6-31G(d,p) 

TD

0 1
12 -5.68045377657766  1.18181820952095  0.22696536533653
 6 -5.03187330913091 -2.12227619231923 -0.31395446054605
 6 -3.38101956185619  1.18106064756476  2.75522696089609
 6 -6.24903132543254  4.55870389348935  0.71168352955296
 6 -7.95109602760276  1.15890457285729 -2.40217431133113
 7 -4.36219330383038 -0.27447337043704  1.03926409340934
 6 -4.28237345774577 -1.60941212261226  0.67778149664966
 6 -3.20951235293529 -2.24930612921292  1.53192878147815
 6 -2.96102025742574 -1.22527319701970  2.58327511411141
 6 -3.69902670267027 -0.04975412801280  2.14755541414141
 6 -3.59851195919592 -1.67849454205421  3.95156301570157
 6 -1.86532137543754 -2.60724471767177  0.61459564566457
 6 -0.92626038893889 -3.50681576947695  1.47769164606461
 6  0.26388225562556 -3.99169404150415  0.56443460456046
 8  0.45302915681568 -3.57731742054205 -0.56335635103510
 8  1.06830851305131 -4.79058420322032  1.12110809930993
 7 -4.81314986598660  2.60341057775778  1.39278596519652
 6 -3.89296338353835  2.41880989698970  2.44655988178818
 6 -3.69720025722572  3.67815789828983  3.16744568896890
 6 -4.60642639833983  4.60218868436844  2.53568945314531
 6 -5.22111147354735  3.88045272177218  1.45390054195420
 6 -2.83508213311331  3.77455453915392  4.28976284678468
 6 -4.55629832983298  6.13391342554255  2.72149758655866
 8 -3.99097158445845  6.64921975217522  3.72884685718572
 7 -6.86074772437244  2.57987592009201 -0.75749841754175
 6 -6.89401159895990  3.90912131763176 -0.43544174727473
 6 -7.97316245644565  4.62383344014401 -1.13415622472247
 6 -8.46048908170817  3.69937906800680 -2.06036058845885
 6 -7.72232604410441  2.41360953505351 -1.77457122692269
 6 -8.19486176487649  6.04239560926093 -1.08446958155816
 6 -9.54766124452445  3.86859779807981 -3.06522907150715
 6 -8.99271825252525  3.87882924602460 -4.55010825752575
 7 -6.28875464276428 -0.07202238243824 -1.11254227462746
 6 -7.30800440714071  0.04846394079408 -2.11298722132213
 6 -7.64964808140814 -1.34165931863186 -2.61674469906991
 6 -6.71511699539954 -2.16655042834283 -2.16152536243624
 6 -5.93913183668367 -1.33621765126513 -1.09250711541154
 6 -8.58411378607861 -1.63931371997200 -3.77545846524652
 6 -6.18940256735674 -3.52355146114611 -2.01596699059906
 8 -6.46376961756176 -4.57348231833183 -2.57028727442744
 6 -5.08545879937994 -3.59002076877688 -0.79660628142814
 6 -5.39717684528453 -4.60028523012301  0.22007915891589
 8 -5.82995717831783 -4.32082801620162  1.36777389768977
 8 -5.05261522472247 -5.84790867496750 -0.23229740114011
 6 -5.36682003120312 -6.81959555065507  0.60529806460646
 6  2.34567124872487 -5.17849410961096  0.51141912321232
 6  3.42552586268627 -4.25320681998200  0.99907119291929
 6  4.05275437913791 -3.38088790969097  0.17011938693869
 6  3.76314121142114 -3.19570275867587 -1.34519218801880
 6  5.25298950495050 -2.52559682788279  0.61591344224422
 6  6.53904950965096 -2.90292524552455 -0.02862253635364
 6  7.74056318301830 -2.10233187898790  0.64881871647165
 6  9.10493910241024 -2.12029801180118 -0.13523023622362
 6  9.69576665676568 -3.49062896539654  0.12677580258026
 6  10.06978241384138 -0.87375799669967  0.29597756115612
 6  11.39126228352835 -0.77989078417842 -0.37567287788779
 6  12.16944456505651  0.40400959145915  0.13287407560756
 6  13.53217261136114  0.52462214911491 -0.54048380558056
 6  14.53763193619362 -0.72019274927493 -0.22008869406941
 6  14.22234217241724  1.85768054025403 -0.12712035443544
 6  15.45749503040304  2.13739567486749 -0.90088719641964
 6  15.94275389508951  3.48686119611961 -0.57369846284628
 6  17.24357875257526  4.07991690719072 -1.28520956875688
 6  17.01856083818382  4.15944150685069 -2.83374569456946
 6  17.85448886808681  5.33028115411541 -0.72878383538354
 1 -2.62896840274027  1.08668553215321  3.55082269346935
 1 -6.32489337223722  5.78992519471947  0.91488125082508
 1 -8.83433863296330  1.13894815631563 -3.20790617151715
 1 -3.48996606180618 -3.39670278697870  1.93808955105511
 1 -1.98612969896990 -0.86060366856686  2.68461062706271
 1 -3.10857018221822 -2.75435201610161  4.31706165206521
 1 -3.69212581268127 -0.95085720342034  4.58520465636564
 1 -4.69091076687669 -2.04607252525253  3.82972619521952
 1 -2.25172233783378 -3.18287133213321 -0.29274700930093
 1 -1.10911161086109 -1.69728835623562  0.28506934823482
 1 -0.38986337643764 -3.06593656595660  2.32155669676968
 1 -1.39508898749875 -4.65582241854185  1.56149518621862
 1 -1.78649730183018  3.63109779647965  4.10414279537954
 1 -2.85013266726673  4.84351399049905  4.59151481438144
 1 -2.95989592209221  3.26281947604760  5.15750272707271
 1 -4.81237509680968  6.92589057155716  1.76616873267327
 1 -10.16787076957696  2.90147729962996 -3.20640179477948
 1 -9.94468195109511  4.77038457295729 -2.61200419301930
 1 -9.90922668356836  4.17987588758876 -5.27673398399840
 1 -8.34964893089309  4.56887882848285 -4.65823550535054
 1 -8.54327460236024  2.99768408230823 -4.94211832653265
 1 -8.40797737933793 -0.78517177487749 -4.37838780778078
 1 -8.54844447234724 -2.53086014631463 -4.08367771167117
 1 -9.59433268236824 -1.53980061466147 -3.27310159525953
 1 -4.21674345034503 -3.96477230023002 -1.35100003010301
 1  2.45757370117012 -6.07316460956096  0.96336472437244
 1  2.18079140574057 -5.20768929532953 -0.68884431953195
 1  3.74149013141314 -4.51341146344634  2.13307167126713
 1  2.70995844774477 -3.45099665456546 -1.54644729482948
 1  3.74617195519552 -2.20646534713471 -1.47016523402340
 1  4.29838234563456 -3.89395125142514 -1.99571102840284
 1  4.97085095409541 -1.46162170677068  0.32779317041704
 1  5.34207656605661 -2.64236855405541  1.67717160346035
 1  6.71912113211321 -3.96642094159416 -0.13570424872487
 1  6.57004584408441 -2.54053626962696 -1.09349903610361
 1  7.36759756135614 -1.01157771207121  0.66608536183618
 1  7.86273518371837 -2.36757500600060  1.65857332973297
 1  9.05110100970097 -1.96828486918692 -1.16410462916292
 1  9.05260742614261 -4.21966082598260 -0.08752122232223
 1  10.60560358975898 -3.68528188288829 -0.30497807970797
 1  9.64166091369137 -3.64353008160816  1.28762972597260
 1  9.21696275717572  0.00019843024302  0.23310248464846
 1  10.23977293589359 -1.18159647894789  1.39914085138514
 1  11.88401033213321 -1.66880420212021 -0.28667797559756
 1  11.07968390859086 -0.66662829832983 -1.47772861656166
 1  11.74428444654465  1.60438351015101 -0.21027823822382
 1  12.41715247394739  0.38935021832183  1.04838401350135
 1  13.26999774207421  0.50180492329233 -1.69157536233623
 1  14.58234846204621 -0.63026604390439  0.87014211171117
 1  14.17077746424643 -1.78256143504350 -0.23316957105711
 1  15.35354521102110 -0.75961928962896 -0.71404380738074
 1  13.43327257285729  2.74015231443144 -0.10683056035604
 1  14.27305491769177  1.74637105160516  0.93749257655766
 1  16.11785051215121  1.43573903540354 -0.62922073707371
 1  15.17084187968797  2.04656290769077 -1.91831536243624
 1  15.10965242734273  4.20544375207521 -0.74546582658266
 1  16.03646328022802  3.60940690009001  0.39952241104110
 1  18.08614843164316  3.17804131263126 -1.11464585248525
 1  16.39753689048905  4.85094237313731 -2.95235951485149
 1  17.88368075797580  4.39603599679968 -3.43626105970597
 1  16.60421510681068  3.09967487868787 -3.28867942114211
 1  17.81180905490549  5.32782343534353  0.49333849954995
 1  18.82203981478148  5.51987821432143 -1.18573071417142
 1  17.18106067586759  6.27732214231423 -0.98739709180918
 1 -5.18956684128413 -7.84232533193319  0.01567725172517
 1 -6.52890338163816 -6.86593597499750  0.54115395869587
 1 -4.87202942034203 -6.54285416161616  1.55662853125312
 8 -7.71764465976598  6.84520455185519 -0.34835826422642
 1 -9.11616500030003  6.27993540924092 -1.67808627612761

