%nproc=3
%Mem=2GB
# td=(NStates=1) iop(3/107=0140000000,3/108=0140000000) iop(3/107=0140000000,3/108=0140000000) CAM-B3LYP/6-31G(d,p) 

TD

0 1
12 -5.61265699689969  1.27295732343234  0.27067973677368
 6 -5.05659578137814 -2.17893185788579 -0.33640670577058
 6 -3.35837729762976  1.15267780928093  2.73269470767077
 6 -6.21526794909491  4.52099012211221  0.64859722092209
 6 -7.86073699169917  1.20137882028203 -2.34625871977198
 7 -4.30199728422842 -0.25980190329033  0.93267343434343
 6 -4.21029625002500 -1.54957613901390  0.62784650315031
 6 -3.20539194089409 -2.25033623222322  1.45378096669667
 6 -2.89007316271627 -1.29268993869387  2.65548233483348
 6 -3.55596239623962 -0.04027317991799  2.04726538513851
 6 -3.45944805280528 -1.76378307090709  3.99611747114711
 6 -1.97957280058006 -2.78756274947495  0.50903508960896
 6 -0.94213197609761 -3.60106519441944  1.36321019791979
 6  0.27034290169017 -3.81707657975798  0.55801396249625
 8  0.55273912781278 -3.47777746654665 -0.55335535093509
 8  0.97501918411841 -4.72152729752975  1.37121310981098
 7 -4.95497404840484  2.55131536823682  1.48489517611761
 6 -3.93618770597060  2.40002801880188  2.45565079087909
 6 -3.75558609580958  3.60166024852485  3.26824576897690
 6 -4.52259801550155  4.58549701520152  2.65061094529453
 6 -5.27885724812481  3.90941561806181  1.54328948084809
 6 -2.72567119201920  3.73748083178318  4.32176604710471
 6 -4.58211091109111  6.00059009320932  2.92752818961896
 8 -3.92628511581158  6.51339616981698  3.85296926942694
 7 -6.75719736933693  2.63091102360236 -0.73871653935394
 6 -6.86754895269527  3.97827823332333 -0.40774897799780
 6 -7.80905604580458  4.61231228802880 -1.25806861596160
 6 -8.32732576537654  3.67319644974497 -2.14432898529853
 6 -7.68071188268827  2.42189036313631 -1.79309307910791
 6 -8.26149842854286  6.00456182588259 -1.17426856145615
 6 -9.30141662006201  3.84949588788879 -3.22302485108511
 6 -8.60664964566457  3.92654401750175 -4.58065131183118
 7 -6.41078684598460 -0.12943812401240 -0.98784980538054
 6 -7.28318192489249  0.04888398279828 -2.04055997859786
 6 -7.58886200280028 -1.28941409410941 -2.65342836743674
 6 -6.65373085678568 -2.17399117241724 -2.07521673157316
 6 -6.04968289178918 -1.41982601210121 -1.04560242494249
 6 -8.48514388908891 -1.72985277387739 -3.84870578997900
 6 -6.24900852795280 -3.58717782378238 -1.95189058295830
 8 -6.57485072567257 -4.58392336243624 -2.65153539923992
 6 -5.12199245274527 -3.60591235793579 -0.88738535933593
 6 -5.46875400300030 -4.61780698229823  0.12843999499950
 8 -5.70554473707371 -4.38509444284428  1.30989811011101
 8 -5.18740870407041 -5.86757064116412 -0.34398857025703
 6 -5.56126947614761 -6.99911350245024  0.40430796559656
 6  2.27659434103410 -5.13540980118012  0.81983996529653
 6  3.33784709480948 -4.14633613291329  1.00166145194519
 6  3.98092719641964 -3.25396521742174  0.21595397039704
 6  3.77078197549755 -3.36693988238824 -1.26326399519952
 6  5.10087429342934 -2.36034030223022  0.78506035693569
 6  6.45970157485749 -2.78134308730873  0.08465879177918
 6  7.61335046174618 -1.79713135893589  0.61176501110111
 6  8.88217682618262 -1.95462144414441 -0.11078779197920
 6  9.55066214631463 -3.37728763126313  0.05733885888589
 6  9.94656009160916 -0.91328194909491  0.55518348174817
 6  11.17375053235324 -0.63562635773577 -0.39456476707671
 6  12.11898951955196  0.42674186468647  0.09491027922792
 6  13.47060645474548  0.53524321122112 -0.56380613781378
 6  14.31910008300830 -0.68046877687769 -0.38428511371137
 6  14.22364230243024  1.89824459665967 -0.11764940734073
 6  15.48417769866987  2.06637857315732 -0.98909601730173
 6  16.01852147184718  3.56337884788479 -0.65113620662066
 6  17.29439383408341  3.91479039453945 -1.44542559035904
 6  17.22305128722872  4.14889045174517 -2.87060938093809
 6  17.84576799599960  5.20081820782078 -0.84716567356736
 1 -2.66485199109911  1.26846370997100  3.59788739993999
 1 -6.21917280018002  5.65684188638864  0.65946570927093
 1 -8.45186038513851  1.42469673117312 -3.17300268116812
 1 -3.60441750695069 -3.29310242694269  1.66762250435044
 1 -1.83349443544354 -1.15120272847285  2.61812397839784
 1 -2.96717604280428 -2.67117369826983  4.41232117801780
 1 -3.71308790889089 -0.81845396309631  4.65496163206321
 1 -4.60239191499150 -1.94155207320732  3.69408263086309
 1 -2.37163432903290 -3.51095414041404 -0.21680941554155
 1 -1.22238293799380 -1.92539116651665  0.03008384968497
 1 -0.26043043314331 -2.95661563386339  2.13359790089009
 1 -1.27180665926593 -4.49235607190719  1.70910994769477
 1 -1.61815046714671  3.27731241794179  4.10217259835984
 1 -2.46958461246125  4.69139877897790  4.85564122702270
 1 -2.92508244074407  3.26253944804480  5.22820979777978
 1 -5.34820868016802  6.63654163666367  2.49721183698370
 1 -10.08366234873487  3.31325847774777 -3.16184733933393
 1 -10.07213469636964  4.82098963346335 -3.20840383298330
 1 -9.23578933983398  4.09326722672267 -5.39777608820882
 1 -7.87102106810681  4.76007794839484 -4.41580126192619
 1 -7.89909018391839  3.05562987688769 -4.65016913161316
 1 -8.21374795639564 -1.25761901960196 -4.98770873987399
 1 -8.43872350025002 -2.76875393569357 -4.05049439333933
 1 -9.53909715881588 -1.62840947554755 -3.70913519861986
 1 -4.22099387538754 -3.99850567356736 -1.37436236633663
 1  2.53258120192019 -6.14351164426443  1.29363775167517
 1  2.16503983058306 -5.12066059245925 -0.32393782888289
 1  3.72321830423042 -4.17649777207721  2.19439780388039
 1  2.67155460736074 -3.58720027492749 -1.25465811591159
 1  4.23076041404140 -2.49860456105611 -1.93236145364536
 1  4.39260176757676 -4.51558341464146 -1.62866432373237
 1  4.85931980098010 -1.42502804740474  0.49230962206221
 1  5.20373273167317 -2.29487380458046  1.94333822012201
 1  6.92748196819682 -3.78833313281328  0.46686600830083
 1  6.40403924342434 -2.75798801480148 -0.94061374757476
 1  7.32187298889889 -0.72916947124712  0.32917167046705
 1  7.82926183638364 -1.89617786628663  1.69402687508751
 1  8.82191809140914 -1.58685672637264 -1.15714393309331
 1  8.79915208060806 -4.17294615451545 -0.50512298249825
 1  10.52166519591959 -3.74716807150715 -0.34796237813781
 1  9.55343209080908 -3.62828855745575  1.14862582558256
 1  9.56915797669767  0.25342375277528  0.67430660506050
 1  10.18185714431443 -1.15919423872387  1.63546448374837
 1  11.75085701680168 -1.54650197189719 -0.20433974177418
 1  10.91057699789979 -0.50613224872487 -1.22742358605861
 1  11.69579959805981  1.49096216801680 -0.00563777417742
 1  12.30592135083508  0.51111239453945  1.25745492059206
 1  13.38806954925493  0.73245798859886 -1.62947915271527
 1  14.89204943214322 -0.80002301960196  0.50514561206121
 1  13.81220160666067 -1.59682286118612 -0.59091534563456
 1  15.11315117161716 -0.78942226992699 -1.18418082108211
 1  13.46388563416342  2.77324562376238 -0.22243212051205
 1  14.42618023022302  1.85566198069807  0.95207403470347
 1  16.31456018311831  1.52708817031703 -0.68609642464246
 1  15.27337213271327  2.14014226562656 -2.05836936783678
 1  15.29149061116111  4.42619582728273 -1.14520580058006
 1  16.18603823772377  3.69897585698570  0.32602506130613
 1  17.96177599439944  3.23994750325032 -1.12320670857086
 1  16.48047518431843  4.88635591449145 -3.25556983588359
 1  18.06339872977298  4.49796618981898 -3.47533496709671
 1  16.79413409870987  3.21597650885088 -3.47451800500050
 1  17.87958583258326  5.11989264226423  0.28649781548155
 1  18.93897150795080  5.58772499899990 -1.22897503860386
 1  17.22357492729273  6.11039544964497 -1.04490284238424
 1 -5.54576246084608 -7.77572867226723 -0.29311362736274
 1 -6.69635012631263 -6.89424880628063  0.64072391569157
 1 -5.12131434883488 -7.14400427662766  1.43421629002900
 8 -7.69416231153115  6.82930296169617 -0.42279570797080
 1 -9.39522290609061  6.06486390209021 -1.78527699519952

