%nproc=3
%Mem=2GB
# td=(NStates=1) iop(3/107=0140000000,3/108=0140000000) iop(3/107=0140000000,3/108=0140000000) CAM-B3LYP/6-31G(d,p) 

TD

0 1
12 -5.77788351955196  1.16260628832883  0.28635130393039
 6 -5.05814593639364 -2.18790275497550 -0.31338440354035
 6 -3.59021048094810  1.10948348984899  2.72862430063006
 6 -6.31143756605661  4.47907593069307  0.70597295849585
 6 -8.16630754875488  1.14965364776478 -2.33580767466747
 7 -4.50177726222622 -0.19175509860986  1.08718888588859
 6 -4.33421864226423 -1.57400858225823  0.64643836233623
 6 -3.14952635433543 -2.21571276987699  1.39651524012401
 6 -2.86579073447345 -1.25190586028603  2.53168995559556
 6 -3.62475927592759 -0.05675482808281  2.13757441604160
 6 -3.44239634763476 -1.74444113671367  3.90334819421942
 6 -2.06398124142414 -2.73843783698370  0.60804499059906
 6 -1.03098086098610 -3.50523561146115  1.34874875177518
 6  0.25699156655666 -3.81981685378538  0.56656481758176
 8  0.43243709760976 -3.39330901970197 -0.55449546494649
 8  1.22705438763876 -4.54731987678768  1.19651564006401
 7 -5.01628017901790  2.60692092879288  1.52789947654765
 6 -4.12012609980998  2.39631764776478  2.49685491129113
 6 -3.79440997819782  3.72896297879788  3.21688063246325
 6 -4.65778153385339  4.55254371987199  2.64137002120212
 6 -5.36485584798480  3.90715539203920  1.56996214811481
 6 -2.80601922682268  3.80480756445645  4.34603847434744
 6 -4.57544024402440  5.98638867306731  2.86426186298630
 8 -4.05462795009501  6.49093392359236  3.78977294979498
 7 -6.96903855345534  2.65190312281228 -0.75284795249525
 6 -7.01400359815982  3.95224563006301 -0.39954815791579
 6 -7.89544468466847  4.64792584938494 -1.22163497259726
 6 -8.46702973577358  3.65422455255526 -2.02947750015002
 6 -7.77852166366637  2.43666184028403 -1.72674644444444
 6 -8.40551282998300  6.04422579227923 -1.12655378997900
 6 -9.46470294869487  3.76738767706771 -3.11155370397040
 6 -8.83059203990399  3.94764612771277 -4.49839308600860
 7 -6.55416118341834 -0.28349352955296 -1.00863188358836
 6 -7.44425803250325 -0.15727663326333 -2.11956787938794
 6 -7.67304042064206 -1.47187233993399 -2.77970099469947
 6 -6.77483296699670 -2.26693046634663 -1.99976918681868
 6 -6.08737666116612 -1.44080811031103 -1.02168003270327
 6 -8.48607398209821 -1.71826161476148 -3.87927884728473
 6 -6.17134076117612 -3.62470157615762 -2.03881927582758
 8 -6.54256749734973 -4.62818778887889 -2.53733397909791
 6 -5.07853810731073 -3.57836960366037 -0.88054467526753
 6 -5.35157228482848 -4.68245344694470  0.16637378837884
 8 -5.76043022562256 -4.49649558295830  1.26822394269427
 8 -5.16268623182318 -5.88150203430343 -0.31685585698570
 6 -5.53105645484548 -6.91810540164016  0.55997353215322
 6  2.36421310291029 -4.82923918411841  0.37554553585359
 6  3.50515382548255 -4.01646314561456  0.77173845964596
 6  4.14405350905090 -3.04008382928293  0.00084245924592
 6  3.72738763606361 -2.68414160256026 -1.39564723352335
 6  5.26648085408541 -2.21535580378038  0.71949380028003
 6  6.59523512821282 -2.56012096509651  0.04635496139614
 6  7.82248137483748 -1.81347299309931  0.61174500910091
 6  9.13468207670767 -1.94246022802280  0.04341762856286
 6  9.69687676777678 -3.41129103160316  0.39338246324632
 6  10.12670810641064 -0.96231685258526  0.49311727512751
 6  11.49428258555855 -0.97043983908391 -0.18466377697770
 6  12.40899852045204  0.26804599509951  0.18637942614261
 6  13.71881127522752  0.38074776167617 -0.60811056825683
 6  14.53943211621162 -0.78325905590559 -0.38588527372737
 6  14.32727266546655  1.77282205440544 -0.31754939733973
 6  15.55097437833783  2.12757469276928 -1.09299640734073
 6  16.10956057575757  3.38341085108511 -0.63588468146815
 6  17.41562595729573  3.80122903840384 -1.26889793759376
 6  17.39347832993300  4.04522008470847 -2.89942226222622
 6  18.12795621482148  5.01948007400740 -0.68573953095310
 1 -2.74501000690069  1.20744760836084  3.51814942614261
 1 -6.43766464936494  5.48756495869587  1.04486424912491
 1 -8.95789098819882  1.00521478297830 -3.01103648454846
 1 -3.55028209340934 -3.16077919461946  1.88189393149315
 1 -1.84462554855486 -1.02126973517352  2.60828299429943
 1 -2.83854317951795 -2.59004558545855  4.23135308120812
 1 -3.18848544864486 -0.92343446114612  4.55772190809081
 1 -4.63912558835884 -1.84009192719272  3.84589781238124
 1 -2.35001216681668 -3.27779082408241 -0.20822855745575
 1 -1.62658335803580 -1.83237186458646  0.19767060836084
 1 -0.74525891599160 -2.96262623492349  2.21001554265427
 1 -1.34461393999400 -4.40100693699370  1.81004004070407
 1 -1.81944059615962  3.55297998469847  4.16526890799080
 1 -2.95100275427543  4.94111375047505  4.53395905880588
 1 -3.41959189168917  3.10319351345135  5.25825280208021
 1 -5.03708756805681  6.85669365186519  2.19358147394739
 1 -10.07445142764276  3.00804795669567 -3.07191834643464
 1 -10.25781326422642  4.53303083758376 -2.78364135673567
 1 -9.47155291619162  3.88611651165116 -5.36308261886189
 1 -8.26751071707171  4.79548148874887 -4.70240992279228
 1 -7.95684595949595  3.13145745964596 -4.73856797149715
 1 -8.29071565316532 -1.26630988868887 -4.79176914591459
 1 -8.41117074497450 -2.94658171847185 -3.95286463036304
 1 -9.54590783988399 -1.59254588918892 -3.69183346844684
 1 -4.23437521352135 -3.95921174417442 -1.40674560466047
 1  2.63886182998300 -5.87196448954896  0.54315270317032
 1  2.13618694529453 -4.57473600000000 -0.66036147124712
 1  3.71262724512451 -4.00569069136914  1.77734609870987
 1  2.65096254815482 -3.13429498439844 -1.60283293339334
 1  3.88272561056106 -1.60574527512751 -1.38857707520752
 1  4.30726323372337 -3.29898175447545 -2.06995845314531
 1  4.89042291129113 -1.16825236983698  0.71865225632563
 1  5.40750310871087 -2.65151946914691  1.68638252455245
 1  6.84291351135114 -3.52802710221022  0.18094741644164
 1  6.62827166666667 -2.41184340034003 -1.07924761096110
 1  7.64460526212621 -0.58153470777078  0.65674442774277
 1  7.80542945314531 -1.92337058555856  1.82656012841284
 1  9.17914381398140 -2.04060210091009 -1.05002322102210
 1  9.01429359475948 -4.09783864376438 -0.05136760696070
 1  10.71423445284528 -3.47591094579458 -0.10609819171917
 1  9.61550829842984 -3.58548427702770  1.48071903490349
 1  9.64961602250225  0.05850426082608  0.56205537993799
 1  10.46649560816082 -1.04089240854085  1.57925886318632
 1  11.97676960806081 -1.90422774447445  0.28139883208321
 1  11.43658959915992 -0.89008064356436 -1.34425526922692
 1  11.95412543064306  1.15207827962796  0.09766255585559
 1  12.78307906660666  0.26923820712071  1.21789096419642
 1  13.43380412271227  0.42008675147515 -1.88760496529653
 1  14.59668989618962 -0.91305432273227  0.57031212871287
 1  14.05951633813381 -1.65781896079608 -0.63871012511251
 1  15.47661751825182 -0.94697802550255 -0.87315971897190
 1  13.62821206680668  2.59663796299630 -0.22599247654765
 1  14.76421403360336  1.77476389088909  0.74045287258726
 1  16.32324105120512  1.25106056755676 -0.80631844684468
 1  15.41017581308131  2.21322957435744 -2.30711424232423
 1  15.56266772887289  4.21820502820282 -0.69896117611761
 1  16.29529916381638  3.49227518691869  0.51779423822382
 1  18.23321313811381  2.83030653915392 -1.05347973587359
 1  16.75555269206921  4.88500577947795 -3.18867314621462
 1  18.38106049594959  4.13588998219822 -3.32067950155015
 1  16.86737142244224  3.08511342254225 -3.22754330753075
 1  18.32652052605260  4.99754040704070  0.38636780248025
 1  19.03683129392939  5.31008723522352 -1.25962810391039
 1  17.33592616241624  5.77528193829383 -0.86186453855386
 1 -5.34284216881688 -7.74205530493049 -0.16480079607961
 1 -6.52921341264126 -6.82095147654765  1.09896974027403
 1 -4.71746396379638 -6.91666154235423  1.48212108050805
 8 -7.77659055435544  6.96752678407841 -0.53217664606461
 1 -9.40560394419442  6.13372078777878 -1.80304877237724

