%nproc=3
%Mem=2GB
# td=(NStates=1) iop(3/107=0140000000,3/108=0140000000) iop(3/107=0140000000,3/108=0140000000) CAM-B3LYP/6-31G(d,p) 

TD

0 1
12 -5.69544527572757  1.12542256995700  0.22429509830983
 6 -5.15112523432343 -2.07128109280928 -0.26987005210521
 6 -3.32401386128613  1.20530307180718  2.72549398759876
 6 -6.32135855815582  4.59518754185419  0.72911527272727
 6 -7.81487240524052  1.24232291469147 -2.58122221612161
 7 -4.41728881338134 -0.20195611871187  1.06033620062006
 6 -4.31151637203720 -1.56403758515852  0.70338405690569
 6 -3.28388979067907 -2.25972717131713  1.57074266286629
 6 -2.91894605000500 -1.31416208590859  2.60189697629763
 6 -3.50906770677068 -0.00732988558856  2.09332999159916
 6 -3.43212532053205 -1.70264695729573  4.04944280368037
 6 -1.96021086438644 -2.69660365356536  0.60489467556756
 6 -1.07076483938394 -3.61365645354535  1.41596547344734
 6  0.16083195059506 -3.95961083318332  0.58082624372437
 8  0.30966482038204 -3.54530421922192 -0.56051606700670
 8  1.03817549974998 -4.70481562636264  1.23824981348135
 7 -5.03333188418842  2.59914015071507  1.58873556015602
 6 -3.95851993919392  2.47565558155816  2.56101132693269
 6 -3.78337887508751  3.65645572807281  3.28803774817482
 6 -4.55933168886889  4.59446791229123  2.56682256645665
 6 -5.35193455585559  3.92729740624062  1.59933508540854
 6 -2.79223784868487  3.80029711341134  4.39028289878988
 6 -4.71212391239124  6.04985501970197  2.97998343514351
 8 -4.08871135843584  6.61466629682968  3.87878185068507
 7 -6.84138578817882  2.64698263076308 -0.75143781148115
 6 -7.03472567036704  3.93307371287129 -0.30516871997200
 6 -8.02970811101110  4.59509056585659 -1.24947775687569
 6 -8.38108114091409  3.67857698779878 -2.12715726812681
 6 -7.69613342484248  2.44692286638664 -1.77772154195420
 6 -8.34190646934694  6.00911228092809 -1.26963809840984
 6 -9.42546902530253  3.70190112841284 -3.16468901750175
 6 -8.91262024272427  3.83114447754775 -4.61464471117112
 7 -6.47461322862286 -0.13314849504951 -1.18352937333733
 6 -7.26924053075308  0.03032212661266 -2.23678960156016
 6 -7.52586570317032 -1.29695484818482 -2.71664468906891
 6 -6.66530201390139 -2.16975074837484 -2.08134734463446
 6 -6.01859978347835 -1.40820484998500 -1.10106797149715
 6 -8.63526890159016 -1.66193598219822 -3.84680559996000
 6 -6.31657528462846 -3.61537064306431 -1.86993238713871
 8 -6.63961720232023 -4.58161313141314 -2.55267551325133
 6 -5.13654390789079 -3.56255802250225 -0.85489211001100
 6 -5.28003513111311 -4.59094429602960  0.20110726172617
 8 -5.79138332093209 -4.42239817321732  1.21609873017302
 8 -4.93038300150015 -5.81114499859986 -0.33627779917992
 6 -5.18416176537654 -6.91264485558556  0.56267380218022
 6  2.25434211581158 -5.04499075927593  0.56106408770877
 6  3.43828713881388 -4.16683818311831  0.93904519031903
 6  4.02017112081208 -3.31296111701170  0.11287366236624
 6  3.73237813511351 -3.05259844824482 -1.40982865166517
 6  5.23049725572557 -2.45952022022202  0.52614446534653
 6  6.58271387608761 -2.64953990699070 -0.06137581168117
 6  7.71187031373137 -1.82036368216822  0.66152998759876
 6  9.08970757925793 -1.95307128912891 -0.20604731793179
 6  9.76004308440844 -3.35189509200920  0.21055418041804
 6  9.96931236683668 -0.79110973187319  0.31335929932993
 6  11.33957711501150 -0.79011180628063 -0.42325763636364
 6  12.23514113471347  0.36863605410541  0.11463225142514
 6  13.67317671177118  0.39250893779378 -0.39977973517352
 6  14.53924209720972 -0.81993272327233 -0.16191287648765
 6  14.46957689588959  1.72125689788979 -0.07029467186719
 6  15.68056733763376  2.09233116841684 -0.93817092479248
 6  16.25138475817582  3.47924043404340 -0.59605069806981
 6  17.46114050875088  3.92600151565157 -1.42973402120212
 6  17.02559154125413  3.99315487818782 -2.92559487948795
 6  17.94241766096610  5.26541466746675 -0.74875583258326
 1 -2.55146065196520  1.15213207680768  3.32841045224522
 1 -6.49615049794979  5.57215341754175  0.87656741944194
 1 -8.46481168026803  1.26221048254825 -3.43641902280228
 1 -3.58532559775978 -3.11699481618162  2.15760150225023
 1 -1.88244933093309 -1.08981658985899  2.63126529252925
 1 -2.99359868506851 -2.68607518841884  4.52422236813681
 1 -3.20530713081308 -0.64406652435244  4.51920805670567
 1 -4.61439311511151 -1.73557147514752  4.18687190979098
 1 -2.45676284188419 -3.17659070407041 -0.19971770637064
 1 -1.48753945364536 -1.76379500690069  0.29717055835584
 1 -0.62971736183618 -2.83086305860586  2.20094463556356
 1 -1.29168864746475 -4.49911674797480  1.90618965566557
 1 -1.63164181628163  3.66295098179818  3.97928030913091
 1 -2.99968762276228  4.81893153225322  4.73046870977098
 1 -3.01074100660066  3.04726792089209  5.28377535433543
 1 -5.43745760506051  6.56485446794679  2.24657677347735
 1 -10.13130711321132  2.80222737463746 -2.93126428102810
 1 -9.89203668656866  4.64855238973897 -2.91268426102610
 1 -9.77863362426243  4.15987388738874 -5.18893520412041
 1 -8.12505647164716  4.76298823942394 -4.61074075587559
 1 -8.19308958385839  2.95205951985199 -4.64455857055705
 1 -8.52188877047705 -1.11232449014902 -4.58150811981198
 1 -8.63213284118412 -2.75386244654465 -3.91855119901990
 1 -9.60554380348035 -1.38287492209221 -3.53370765586559
 1 -4.11429320532053 -3.56295211821182 -1.40085501560156
 1  2.28205614941494 -6.17371466456646  1.05507389528953
 1  2.34192751935194 -5.19046757315732 -0.63253868896890
 1  3.72276825922592 -4.06591671397140  2.06072443654365
 1  2.69966741864186 -3.27376893179318 -1.73893654375437
 1  3.74278161616162 -2.03201790239024 -1.66335455295530
 1  4.38339084648465 -3.69860171647165 -1.95126658395840
 1  4.97513138213821 -1.43468901350135  0.38569896099610
 1  5.33250560896090 -2.59905422262226  1.70729461576158
 1  6.80782000200020 -3.77138143764376 -0.02331300960096
 1  6.36053489298930 -2.57082929892989 -1.10985067126713
 1  7.35921672327233 -0.79759631393139  0.70150890419042
 1  8.04094300450045 -2.01900014851485  1.57395486788679
 1  8.91072697229723 -1.86059410011001 -1.24199241794179
 1  9.02708487388739 -4.28066692659266 -0.09236170637064
 1  10.68824185358536 -3.41079443414341 -0.13590117201720
 1  9.85380212781278 -3.53619934853485  1.28451941494149
 1  9.31453251415141  0.24762317271727  0.29092826722672
 1  10.24398335693569 -1.12581090039004  1.42716365366537
 1  11.92044397549755 -1.77428475017502 -0.33459276707671
 1  11.15269120932093 -0.60758239373937 -1.50132097579758
 1  11.63901391949195  1.21587465926593 -0.20994820522052
 1  12.26111687038704  0.40663194649465  1.39471864696470
 1  13.65977671997200  0.48604334713471 -1.46817302210221
 1  14.67374760196020 -1.08604162146215  0.96728182568257
 1  14.08515890239024 -1.70830400930093 -0.65733198729873
 1  15.62973282978298 -0.80951427912791 -0.59135153815382
 1  13.64159340494049  2.53378167736774 -0.30663054035404
 1  14.69813742594260  1.82834924942494  1.07725655295530
 1  16.42331105820582  1.29989545104511 -0.93301111611161
 1  15.13280807630763  2.03972222362236 -1.99917344824482
 1  15.43782524462446  4.04649785748575 -1.05866714671467
 1  16.32669230313031  3.78594455385539  0.38124058285829
 1  18.30133995079508  3.11102461096110 -1.22848723662366
 1  16.24224136093609  4.65242252115211 -2.95937021592159
 1  17.88522091199120  4.50837723092309 -3.43977141074107
 1  16.94709939523952  2.89019393059306 -3.28211876507651
 1  18.15029290329033  4.88792944594459  0.34198336403640
 1  18.86580419121912  5.53950017651765 -1.23577571867187
 1  17.18774134393439  5.96597100720072 -0.76906525862586
 1 -4.57756564116412 -7.79019011841184  0.31085676967697
 1 -6.27438793009301 -7.14562394379438  0.65791563486349
 1 -4.78491070847085 -6.55209508570857  1.69743261166117
 8 -7.77721061636164  6.71857188858886 -0.42424585298530
 1 -9.37622100590059  6.33424083978398 -1.98013648114811

