%nproc=3
%Mem=2GB
# td=(NStates=1) iop(3/107=0140000000,3/108=0140000000) iop(3/107=0140000000,3/108=0140000000) CAM-B3LYP/6-31G(d,p) 

TD

0 1
12 -5.56651238243824  1.24117414511451  0.19326199499950
 6 -5.02845296709671 -2.09853381808181 -0.40159322442244
 6 -3.35773723362336  1.21107364886489  2.75176661486149
 6 -6.06291271357136  4.59205722882288  0.56138850005001
 6 -8.02930384838484  1.13576225862586 -2.43114720862086
 7 -4.23519060356036 -0.27046296939694  1.04168433543354
 6 -4.19080430083008 -1.66795797719772  0.65634935343534
 6 -3.15062646434643 -2.32357355595560  1.43370895949595
 6 -2.90317447284728 -1.34270494019402  2.68213500010001
 6 -3.57334413441344 -0.03212236483648  2.10051070967097
 6 -3.48492060006001 -1.91495818841884  3.96325418481848
 6 -1.94757960126013 -2.79170316351635  0.80904509060906
 6 -0.95176293919392 -3.74375946384638  1.48605248214821
 6  0.20176604400440 -4.05792066416642  0.69818797989799
 8  0.44612846674667 -3.71792148094809 -0.50896091149115
 8  1.15602728492849 -4.73669881468147  1.45595158365837
 7 -4.94077262826283  2.58929916661666  1.44373105970597
 6 -3.99092317951795  2.39843785978598  2.51713693949395
 6 -3.79091962916292  3.62598268076808  3.17564650905091
 6 -4.47988374407441  4.64254271977198  2.56361224542454
 6 -5.23336269866987  3.93130780728073  1.48787393929393
 6 -2.90583920882088  3.84429151285129  4.36076994749475
 6 -4.59533223322332  6.04715474967497  2.85142057885789
 8 -4.14483697099710  6.59433426362636  3.82476644914491
 7 -6.86266791639164  2.56402433493349 -0.71600426812681
 6 -6.84427662546255  3.90206061156116 -0.39620782388239
 6 -7.88868400860086  4.66705776257626 -1.24482729182918
 6 -8.30689372217222  3.70109924002400 -2.07528208060806
 6 -7.73876768826883  2.44764293839384 -1.70047381718172
 6 -8.25621790049005  6.12632400210021 -1.25319645424542
 6 -9.27689416781678  3.94466540484048 -3.24171672027203
 6 -8.58971795249525  4.21251261436144 -4.54194744144414
 7 -6.25895166246625 -0.07184236443644 -1.14056507690769
 6 -7.34808841554155 -0.08062896849685 -2.11517744034403
 6 -7.59172228882888 -1.28016316901690 -2.68003102770277
 6 -6.58907439113911 -2.16664043734373 -2.08168737863786
 6 -5.96912483598360 -1.38734276377638 -1.06582444714471
 6 -8.52471784648465 -1.60390017861786 -3.72536345574557
 6 -6.14495812291229 -3.50889999599960 -2.00707610151015
 8 -6.53205644624462 -4.50235520562056 -2.64893513921392
 6 -5.01559181268127 -3.56508827552755 -0.94086070687069
 6 -5.31689881748175 -4.58441364296430  0.13037018801880
 8 -5.70946512911291 -4.38489442284228  1.29445656595660
 8 -4.87009697289729 -5.76435031913191 -0.29232340374037
 6 -5.29905325452545 -6.89393298439844  0.48796633143314
 6  2.30502718431843 -5.11081734193419  0.75275325662566
 6  3.52029533963396 -4.29481098039804  1.00377166296630
 6  4.05857496119612 -3.33500332123212  0.19261163616362
 6  3.66813171047105 -3.31562475087509 -1.26110377917792
 6  5.09169337533753 -2.46531079927993  0.69943179407941
 6  6.44330993569357 -2.86682163516352  0.01582190809081
 6  7.53313243994399 -1.83792543834383  0.56948078267827
 6  9.00625923442344 -2.02180816281628 -0.11574828802880
 6  9.64371145124512 -3.39307921042104  0.21823494849485
 6  9.96237167276728 -0.88605922682268  0.35232319571957
 6  11.26710986828683 -0.87489028412841 -0.44707001760176
 6  12.03035065566557  0.25044423492349  0.01061184938494
 6  13.43830322442244  0.61701138803880 -0.70392014921492
 6  14.28325649864987 -0.68764949494949 -0.45160184538454
 6  14.09450938913891  1.92951772397240 -0.17028467086709
 6  15.30275955685569  2.16934887018702 -1.00309741744174
 6  15.86493611331133  3.54659716971697 -0.57596868986899
 6  17.21854624932493  3.97520643614361 -1.31705275307531
 6  16.90804978707871  4.16211177387739 -2.83210553055306
 6  17.77800121932193  5.19852797879788 -0.76296725372537
 1 -2.56649215511551  1.39413627722772  3.51776938813881
 1 -6.11578246114611  5.75230143234323  0.69670943364336
 1 -8.71030622972297  1.14734899639964 -3.25064044494449
 1 -3.44113117831783 -3.25532864956496  1.80187592969297
 1 -1.99206029202920 -1.15989359755976  2.91165333133313
 1 -2.97490681588159 -2.94424100500050  4.12865281118112
 1 -3.12387898799880 -1.22189430713071  4.77928406430643
 1 -4.72626430223022 -1.84060197819782  4.00650387298730
 1 -2.19706687228723 -3.14173721872187 -0.13300103470347
 1 -1.31454215391539 -1.92876150355035  0.35731657295730
 1 -0.66114050415041 -3.20430040234023  2.46572111321132
 1 -1.40418989758976 -4.68907574387439  1.71647068376838
 1 -1.87840649274927  3.41504619131913  4.21054343544354
 1 -2.99144679867987  4.66978661776178  4.75745140804080
 1 -3.22135206770677  3.34446764086409  5.40911788858886
 1 -5.23134699399940  6.72711069356936  2.31961407720772
 1 -10.05950993349335  3.05317246914692 -3.23391454605461
 1 -9.86150363326333  4.77371490599060 -2.95277827042704
 1 -9.25988174907491  4.20331823182318 -5.34148045864586
 1 -7.93219718571857  5.05747768836884 -4.49127880968097
 1 -7.77781805670567  3.42908722262226 -4.74102821752175
 1 -8.34253083468347 -1.03293655135514 -4.59905987498750
 1 -8.59001862976298 -2.63339039933993 -3.86753609750975
 1 -9.63098634773477 -1.41457809240924 -3.50067435253525
 1 -4.05934771077108 -3.64129995299530 -1.35211014111411
 1  2.64885282908291 -6.06756404950495  1.20081846974698
 1  2.09040236683668 -5.21346987338734 -0.28419385448545
 1  3.74784076647665 -4.29035915821582  2.14062242634263
 1  2.63075052695270 -3.56628818371837 -1.40286293639364
 1  3.56951428942894 -2.21094579517952 -1.68153637113711
 1  4.14577708510851 -3.94471632793279 -1.90590204750475
 1  4.79179304830483 -1.37153269786979  0.42081247234723
 1  5.24391675007501 -2.42670698789879  1.87745163146315
 1  6.84590381038104 -3.91644594409441  0.32387170887089
 1  6.45744458395840 -3.15747796379638 -1.04526421262126
 1  7.18305910751075 -0.71856841114111  0.48563731703170
 1  7.51258016821682 -2.00829907840784  1.68790626302630
 1  8.99086498609861 -1.89967800850085 -1.36958517721772
 1  8.99927209260926 -4.17915677557756 -0.00241271147115
 1  10.60391342074207 -3.46737009170917 -0.43570115201520
 1  9.88328507610761 -3.31582731133113  1.37066802980298
 1  9.52407346824682  0.12990140054005 -0.11374219981998
 1  10.21138009660966 -0.93399171847185  1.40264120142014
 1  11.96066799789979 -1.79352667436744 -0.35818512631263
 1  11.10495643584358 -0.86769840534053 -1.45913675737574
 1  11.32433245134513  1.23396646844684 -0.02875008540854
 1  12.43756451515151  0.07543882718272  1.12212138723872
 1  13.09627036933693  0.65896063886389 -1.73801000580058
 1  14.63596382358236 -0.71185420272027  0.70651574907491
 1  13.77579796629663 -1.61675485438544 -0.88287454155416
 1  15.16273613011301 -0.41353468116812 -1.02039444244424
 1  13.40944018961896  2.73892219141914 -0.43552342964296
 1  14.39361697389739  1.93127954245425  0.89012784008401
 1  15.87675640274027  1.28379384088409 -0.70909872487249
 1  15.14796959245925  2.17394564596460 -2.05610914181418
 1  15.18865032713271  4.17760096779678 -0.80730201020102
 1  15.77572720662066  3.64909086848685  0.63444590339034
 1  17.91816163296330  3.05686919541954 -1.07758214611461
 1  16.28502563936394  4.97392467136714 -2.83652793169317
 1  17.82081447134713  4.38866525972597 -3.36031346494650
 1  16.49696438173817  3.32992790399040 -3.31159171237124
 1  18.06027390139014  5.03058371137114  0.33988315401540
 1  18.53487109790979  5.69957618411841 -1.54315645674567
 1  16.94778734853485  5.99586399649965 -0.43329168126813
 1 -5.02317020162016 -7.82338343774377  0.13200888488849
 1 -6.43166365766577 -6.66623600500050  0.67908775207521
 1 -4.93996621402140 -6.78720859705971  1.62635550395039
 8 -7.70649354465447  6.88700873227323 -0.45852928132813
 1 -9.22832621642164  6.44037145284529 -1.90930939843984

