%nproc=3
%Mem=2GB
# td=(NStates=1) iop(3/107=0140000000,3/108=0140000000) iop(3/107=0140000000,3/108=0140000000) CAM-B3LYP/6-31G(d,p) 

TD

0 1
12 -5.55617134833483  1.27677770547055  0.20918358715872
 6 -5.02958308010801 -2.11300526522652 -0.41947501260126
 6 -3.34213567346735  1.10799334083408  2.71914335253525
 6 -6.21216763906391  4.47400542364236  0.66088845004500
 6 -7.94561547954796  1.24283296569657 -2.42976707060706
 7 -4.40445753025303 -0.28342426552655  1.05593576057606
 6 -4.26274149454945 -1.64353553495350  0.62961668016802
 6 -3.20390179187919 -2.40317151575158  1.57201278987899
 6 -2.94703885928593 -1.32011268096810  2.63063985058506
 6 -3.56411321132113 -0.07574672727273  2.12184284288429
 6 -3.53355546354635 -1.75635232783278  3.94338219761976
 6 -1.98042288558856 -2.73995798899890  0.65670985708571
 6 -0.89916767966797 -3.50599568746875  1.53853773067307
 6  0.32388825622562 -3.83866873897390  0.73950211131113
 8  0.46425027892789 -3.45967565636564 -0.42659267466747
 8  1.11183286548655 -4.74959010381038  1.25254124262426
 7 -4.85508405940594  2.62273250995099  1.43890057665767
 6 -3.94699878707871  2.37878589458946  2.44412963876388
 6 -3.62038257545755  3.59781986448645  3.13194213861386
 6 -4.38680443614361  4.57337580308031  2.52366825102510
 6 -5.18436779917992  3.88273294979498  1.47809296119612
 6 -2.66764538943894  3.84503158685869  4.23011688218822
 6 -4.54249694969497  5.97375740994099  2.88220365716572
 8 -3.94210669796980  6.54010884108411  3.85822979547955
 7 -6.96540819041904  2.61062899539954 -0.70842351005101
 6 -6.92169436723672  3.90719112461246 -0.28872707580758
 6 -7.92490763096310  4.61615267206721 -1.15627843694369
 6 -8.48401143394339  3.71140027012701 -2.00642519491949
 6 -7.75245905740574  2.43604177827783 -1.70160393019302
 6 -8.44085636433643  6.02679404910491 -1.16867800240024
 6 -9.36163264166417  3.85736667496750 -3.24840738933893
 6 -8.61896087678768  4.15217658075808 -4.50633388008801
 7 -6.29238500580058 -0.13539872007201 -1.16778779917992
 6 -7.34597820452045 -0.07582848844885 -2.10964688728873
 6 -7.58295141174117 -1.28591374407441 -2.73281630623062
 6 -6.70824630833083 -2.19538331163116 -2.05068427832783
 6 -5.93733165666567 -1.47706173567357 -1.19224708940894
 6 -8.61721709640964 -1.67351714031403 -3.68673959335934
 6 -6.27230085718572 -3.59029813581358 -2.00807620152015
 8 -6.71647488808881 -4.57052202230223 -2.59453969966997
 6 -5.07853810731073 -3.59708147484748 -0.96980360116012
 6 -5.33559068666867 -4.62701790339034  0.03804095509551
 8 -5.77866204880488 -4.56669260266027  1.18531565186519
 8 -5.04259422262226 -5.90806469056906 -0.38988315971597
 6 -5.48897224642464 -6.99897348844884  0.34606214101410
 6  2.32130881248125 -5.02727898809881  0.57646562786279
 6  3.44682799289929 -4.19382088138814  1.03346463226323
 6  4.05899500320032 -3.25003482438244  0.21485386038604
 6  3.78478337563756 -2.91321450985098 -1.25741341014101
 6  5.18379258525853 -2.35061933013301  0.83820567146715
 6  6.43985959065907 -2.69467442044204  0.03272359825983
 6  7.67427655435544 -1.75360700650065  0.51445528012801
 6  9.04257286578658 -2.00351633363336 -0.04729144234423
 6  9.54797187728773 -3.32134203670367  0.43095622062206
 6  9.94339977557756 -0.87195781668167  0.36770473387339
 6  11.31832498979898 -0.78201099619962 -0.22643795439544
 6  12.22430005060506  0.39349854035404  0.25864665286529
 6  13.56944633873387  0.50760044694469 -0.51801155835584
 6  14.41266943994400 -0.77363809380938 -0.32995968116812
 6  14.29935987418742  1.81687645984598 -0.10809845224522
 6  15.42441172207221  2.16521845714571 -1.06456356405641
 6  15.96868648834883  3.46175868586859 -0.66309740274027
 6  17.31304569926993  3.83674258975898 -1.42137318511851
 6  17.14835381748175  3.99455501820182 -2.92018433843384
 6  17.83465688488849  5.18473659965997 -0.92239319631963
 1 -2.56979248514851  1.27182404600460  3.45124273547355
 1 -6.42174305720572  5.58897509970997  0.72596235893589
 1 -8.74749994909491  1.37299156065607 -3.12876825772577
 1 -3.71478854405441 -3.26161927862786  1.90622636473647
 1 -1.96479756575658 -1.32399000720072  2.77901006700670
 1 -3.05301462666267 -2.75751233213321  4.20724066996700
 1 -3.44588118821882 -1.05648776647665  4.73375951185119
 1 -4.70160183598360 -1.88830674867487  3.94298752135214
 1 -1.86771393699370 -3.20821386638664 -0.34650238483848
 1 -1.45987668736874 -1.91607023442344  0.51150199149915
 1 -0.58286267636764 -2.90777074937494  2.25817035813581
 1 -1.39255873447345 -4.48848568486849  1.86947598429843
 1 -1.68650730283028  3.73328801550155  3.83878625972597
 1 -2.86041369536954  4.92381202030203  4.35545120802080
 1 -2.85460539303930  3.06735993009301  5.14195117191719
 1 -5.34843870317032  6.59000698319832  2.16832894869487
 1 -10.11671565406541  3.05766291819182 -3.33348450305030
 1 -10.01878936183618  4.70163769826983 -3.01088408100810
 1 -9.30007576847685  4.04521242124212 -5.54340065066507
 1 -8.02084605060506  5.07988992959296 -4.64272395419542
 1 -7.91836211111111  3.09323363726373 -4.55427954265427
 1 -8.85247182878288 -0.94102736043604 -4.60390035903590
 1 -8.39133876177618 -2.67837489778978 -4.17268661256126
 1 -9.68985223432343 -1.77284391899190 -3.10389467456746
 1 -4.07310908690869 -4.06072189518952 -1.52035696579658
 1  2.55918386218622 -6.01566885998600  0.67380576847685
 1  2.28434176077608 -4.64731325772577 -0.58151358645865
 1  4.06463244564456 -4.43631375367537  1.95383374747475
 1  2.79881733363336 -3.04701625652565 -1.40784343444344
 1  4.02433977197720 -1.96131083168317 -1.40584880238024
 1  4.44203671107111 -3.44083593989399 -1.79144060136014
 1  4.94119798879888 -1.24102964756476  0.69081947304730
 1  5.35820817921792 -2.75950026722672  1.86760064636464
 1  6.59138835883588 -3.72147644714471  0.22538185988599
 1  6.28703754325432 -2.23038525452545 -0.89797948414841
 1  7.35223602520252 -0.62038859315932  0.38366712001200
 1  7.80251916211621 -1.88652690119012  1.57091456385639
 1  8.83935983558356 -2.25009305000500 -1.02696091479148
 1  8.96523868926893 -4.20523938383838  0.11624915471547
 1  10.41336436583658 -3.74772812751275  0.16389880798080
 1  9.43385013261326 -3.58165389398940  1.66698766176618
 1  9.36062712361236  0.03039144954495  0.16422559695970
 1  10.15525448404840 -1.17488580788079  1.43456439373937
 1  11.97371930303030 -1.67389471117112 -0.07851715951595
 1  11.41216715691569 -0.72006364186419 -1.32621346504650
 1  11.54787480558056  1.37155022682268  0.10386317591759
 1  12.31091184988499  0.15402668596860  1.35519469456946
 1  13.15358610091009  0.41908665146515 -1.57844404920492
 1  14.60292051925193 -0.72539555685569  0.72313741124112
 1  13.91748213471347 -1.80710388928893 -0.62086834093409
 1  15.42371222772277 -0.71259458715872 -0.67425982898290
 1  13.67276652225222  2.58872717191719  0.00159028172817
 1  14.72978059025903  1.55853226772677  0.95112393969397
 1  16.10234896199620  1.41725718721872 -1.07112492749275
 1  15.12207700320032  2.26742499389939 -2.08455198609861
 1  15.31582304440444  4.23966717441744 -0.84794607460746
 1  16.04176381028103  3.45295125452545  0.43128558735874
 1  18.16731654845485  3.23609711821182 -1.39876426432643
 1  16.34640177697770  4.69141642054205 -3.35523980288029
 1  18.00320271017102  4.29688608180818 -3.54306173977398
 1  16.83009769506950  3.09505441664166 -3.58608916211621
 1  17.83002087608761  5.26291694469447  0.14906407210721
 1  18.76164377517752  5.41186741324132 -1.31216335743574
 1  17.28684125392540  6.06295070517052 -1.23838219031903
 1 -5.04525240984098 -7.80265136453645  0.13882956695670
 1 -6.49457994929493 -7.07502688408841  0.64123396669667
 1 -4.96249846724672 -6.88569844604460  1.41981484988499
 8 -8.05166806210621  6.92480251165116 -0.39311273967397
 1 -9.02353573737374  6.26765418111811 -1.88657712521252

