%nproc=3
%Mem=2GB
# td=(NStates=1) iop(3/107=0140000000,3/108=0140000000) iop(3/107=0140000000,3/108=0140000000) CAM-B3LYP/6-31G(d,p) 

TD

0 1
12 -5.62920865206521  1.30358038573857  0.21991466026603
 6 -5.01006112791279 -2.16070003470347 -0.41552461756176
 6 -3.35847730763076  1.14376691819182  2.79244068226823
 6 -6.08342476477648  4.56276429952995  0.69434179537954
 6 -7.95957687568757  1.15148383078308 -2.34878897279728
 7 -4.42864994949495 -0.29192511561156  1.07775794279428
 6 -4.27774299469947 -1.56717789918992  0.66396011451145
 6 -3.31647304900490 -2.38426962556256  1.50930651925193
 6 -3.02371652705271 -1.45993666336634  2.63935072167217
 6 -3.61149794979498 -0.13592274487449  2.24097475607561
 6 -3.53887599559956 -1.85712240484048  4.09897775717572
 6 -2.05002984628463 -2.72337633083308  0.62243642974297
 6 -1.04905266816682 -3.73554864276428  1.42941681858186
 6  0.24643051045105 -3.99734460656066  0.61945010611061
 8  0.57185103900390 -3.41603129192919 -0.34160417581758
 8  0.97382906510651 -4.91792693749375  1.31251724022402
 7 -4.92156070707071  2.61587182388239  1.48100478707871
 6 -3.92937702490249  2.43058107410741  2.41776700250025
 6 -3.63303384058406  3.69748983148315  3.15669461386139
 6 -4.51355711141114  4.60200866636664  2.54805068926893
 6 -5.21690105250525  3.87389206570657  1.51990714261426
 6 -2.71542016691669  3.93109019271927  4.23796766726673
 6 -4.74574727472747  5.98677871207121  2.93257869466947
 8 -3.98992147944794  6.59778460866087  3.73887786028603
 7 -6.86869851945194  2.66665459795980 -0.75881854955496
 6 -6.93677587538754  3.96824723022302 -0.35758396149615
 6 -7.92579771997200  4.62497355415542 -1.12137494659466
 6 -8.40457349014901  3.62527165726573 -2.05413996639664
 6 -7.80696450795079  2.40414858895890 -1.76348011781178
 6 -8.26187846654665  5.94682605230523 -1.08801993659366
 6 -9.38414489288929  3.89870080838084 -3.18767131573157
 6 -8.60238921962196  4.05038640174017 -4.60213346004600
 7 -6.43719948724872 -0.15930111031103 -1.10524154455446
 6 -7.36735034173417 -0.06850775637564 -2.07070299289929
 6 -7.58472158875888 -1.37801295399540 -2.71961498609861
 6 -6.67921340504050 -2.19772354565457 -2.03908311821182
 6 -5.89486741024102 -1.46303033253325 -1.14157202190219
 6 -8.54973034773477 -1.63429321792179 -3.78991991139114
 6 -6.18597222432243 -3.53816292229223 -1.99123451735174
 8 -6.54532777337734 -4.51610658075808 -2.64425467116712
 6 -4.97725797929793 -3.52040380708071 -0.88386500730073
 6 -5.33123025062506 -4.58494369596960  0.10486763776378
 8 -5.78361254385439 -4.43209914331433  1.11329845014501
 8 -5.01510147334734 -5.79918380248025 -0.44131830323032
 6 -5.20048339753975 -6.92219581068107  0.45673320812081
 6  2.29743642524252 -5.05206146634663  0.72129011031103
 6  3.43938724882488 -4.07221872117212  1.06885817161716
 6  3.98233733743374 -3.31007082798280  0.22819519451945
 6  3.70558545584558 -3.14297748614861 -1.32394006280628
 6  5.16059026502650 -2.41104537273727  0.65774762566257
 6  6.50207581228123 -2.65972092509251  0.02356268216822
 6  7.68258738543854 -1.79436108190819  0.64874870947095
 6  9.01049965846585 -1.96358234023402 -0.06715342854285
 6  9.55608268836884 -3.32343224572457  0.21380450545055
 6  9.93086852245225 -0.90889151005100  0.41277924132413
 6  11.29865302260226 -0.86519931503150 -0.19704501510151
 6  12.18120574117412  0.40391958245825  0.17923871207121
 6  13.48788818291829  0.51150083698370 -0.54402415961596
 6  14.33880205320532 -0.71788251825183 -0.37134381958196
 6  14.25085502370237  1.76330110231023 -0.19014665706571
 6  15.46490577147715  2.09045098039804 -1.02848995669567
 6  16.04224384408441  3.50832334233423 -0.71806289928993
 6  17.43937833253325  3.89246816231623 -1.39053010081008
 6  17.17145612771277  3.93516907960796 -2.88237055705571
 6  17.86447986718672  5.42912103810381 -0.91359231623162
 1 -2.59135464136414  1.06371323492349  3.63237084828483
 1 -6.25268615151515  5.69405560776078  0.89657942064206
 1 -8.86111131023102  1.22451671317132 -3.06890227112711
 1 -3.62390945614561 -3.30691380808081  1.92751849394940
 1 -1.93500458645865 -1.55853346154615  2.69680184618462
 1 -3.09044837003700 -2.84729131003100  4.25190513641364
 1 -3.23071967206721 -1.00480259795980  4.76766290219022
 1 -4.83387506330633 -1.91175909390939  3.88368159075908
 1 -2.30742790839084 -2.98143118811881 -0.37266500110011
 1 -1.46492719241924 -1.86165479287929  0.36058689999000
 1 -0.65692008210821 -3.13191316361636  2.38246278737874
 1 -1.49890936953695 -4.61308814511451  1.70791982868287
 1 -1.77264591669167  3.35729041574157  3.95673805490549
 1 -2.76915456945695  4.92908254735474  4.69020468336834
 1 -3.05219515201520  3.32513570767077  5.14459143594359
 1 -5.57558141744174  6.44145212771277  2.55457757355736
 1 -10.16544052655266  3.06324347624762 -3.28856001060106
 1 -9.81224870777078  5.02437997249725 -2.88852184478448
 1 -9.32366812771277  3.92962086208621 -5.43193950455046
 1 -7.97437140314031  5.10794273487349 -4.42942262406241
 1 -7.66128640354035  3.40094440834083 -4.65909002370237
 1 -8.55164174577458 -1.00551380908091 -4.57513748274827
 1 -8.66171579947995 -2.63767082738274 -4.17639698359836
 1 -9.53500674977498 -1.25320195479548 -3.52678696379638
 1 -4.02402417841784 -3.83414923792379 -1.48270320042004
 1  2.52556049984999 -6.03933122622262  0.99721810971097
 1  2.35930925752575 -5.06987551395139 -0.36420185528553
 1  3.87007298969897 -3.97409753205321  2.00772913701370
 1  2.58781623352335 -3.56751830673067 -1.61937458755876
 1  3.71607894589459 -2.19075377597760 -1.58169638713871
 1  4.44421692909291 -3.79795165146515 -1.71820327762776
 1  5.06581045004500 -1.26870241484148  0.54129452055206
 1  5.21733409180918 -2.68335265246525  1.61912579887989
 1  6.87303652365236 -3.87722202170217  0.26633595529553
 1  6.54656349584959 -2.31808402440244 -0.82815250145014
 1  7.31866266786679 -0.94501105540554  0.54316306960696
 1  7.86310522072207 -2.15016326482648  1.67847531993199
 1  8.97260315991599 -1.91116915761576 -1.12511072977298
 1  8.98910107550755 -4.08602746264626 -0.24017648784878
 1  10.66425945534553 -3.64480783548355 -0.12830041194119
 1  9.51616836443644 -3.40697642624262  1.28092905590559
 1  9.33002406330633  0.01246965736574  0.54682385678568
 1  9.79543850245025 -0.92586090539054  1.47053799109911
 1  12.09655158625863 -1.65403272497250  0.32891358355836
 1  11.20928686888689 -1.07293892939294 -1.36519736343634
 1  11.79661968006801  1.36648972077208  0.10476326592659
 1  12.26700745944594  0.36204748804880  1.33708288338834
 1  13.24280502280228  0.44916965976598 -1.58871507630763
 1  14.62165239243924 -0.63446646394639  0.66856195369537
 1  13.83700408690869 -1.78412159105911 -0.50654690879088
 1  15.21189104560456 -0.48223155085509 -1.02192459545955
 1  13.65302454805481  2.71818011721172 -0.07537741504150
 1  14.74879249144914  1.58466488098810  0.69923875117512
 1  16.31481020812081  1.33333879537954 -1.03221103610361
 1  15.16477127262726  2.14036228762876 -2.08112164306431
 1  15.12843430553055  4.22012522022202 -0.97755903590359
 1  16.05433506740674  3.55575153455346  0.37514997379738
 1  18.15530534733473  3.26205971447145 -1.30029441734173
 1  16.35467260406040  4.51216849574957 -3.17867214611461
 1  17.93686607650765  4.41712810601060 -3.43110054365437
 1  16.82639732503250  2.90409532073207 -3.35708626182618
 1  18.28614648864886  5.40660131313131  0.00405957165717
 1  18.60988859965997  5.76470269676968 -1.55910805190519
 1  17.10211278107811  6.20649505960596 -1.05598395049505
 1 -5.10721860646065 -7.89364046344634 -0.38885320132013
 1 -6.20965145644564 -6.85071445284529  0.90122996629663
 1 -4.23682589999000 -6.98679855605561  1.25102797119712
 8 -7.84241713701370  6.93783381478148 -0.42240566896690
 1 -8.76484986878688  6.31752916861686 -2.14070253775378

