%nproc=3
%Mem=2GB
# td=(NStates=1) iop(3/107=0140000000,3/108=0140000000) iop(3/107=0140000000,3/108=0140000000) CAM-B3LYP/6-31G(d,p) 

TD

0 1
12 -5.61034676587659  1.25724575227523  0.17448011681168
 6 -5.02775289708971 -2.22829679437944 -0.30958402350235
 6 -3.32238369826983  1.12075461696170  2.76174761296130
 6 -6.16025244754475  4.55911393449345  0.69490185138514
 6 -8.00145106310631  1.17061574397440 -2.36090018391839
 7 -4.39528661316132 -0.29364528762876  1.02071223822382
 6 -4.26743196359636 -1.58368955035504  0.64165788428843
 6 -3.34621602330233 -2.32579377797780  1.49415500410041
 6 -3.00805496089609 -1.35295596529653  2.64081086768677
 6 -3.66969376937694 -0.09596874947495  2.07889854845485
 6 -3.52400450845085 -1.80483717631763  4.01724958435844
 6 -2.03940878417842 -2.55782977617762  0.62784697079708
 6 -1.03466122902290 -3.46589167706771  1.36265014191419
 6  0.22967883528353 -3.76652152425243  0.67756591769177
 8  0.42346620052005 -3.34518420722072 -0.42456247164716
 8  1.00567224942494 -4.58929407420742  1.36139212771277
 7 -4.87374592559256  2.65485572227223  1.54982166876688
 6 -3.97361144834483  2.40760877687769  2.46389161496150
 6 -3.73355389258926  3.65669575207521  3.26138508290829
 6 -4.44263001870187  4.59249771527153  2.68383426762676
 6 -5.22530189258926  3.94833951045104  1.60939609150915
 6 -2.69823844874487  3.76234331803180  4.34892876337634
 6 -4.57578027802780  6.05601563576358  2.87860329712971
 8 -3.90138262556256  6.67281211141114  3.78068204070407
 7 -6.85201685128513  2.69586751925192 -0.62018468616862
 6 -6.92832503030303  3.95161556705671 -0.29035723882388
 6 -7.92490763096310  4.61206226302630 -1.15790859996000
 6 -8.37688072087209  3.63059218931893 -1.99342389478948
 6 -7.77000081158116  2.43242141624162 -1.69937370717072
 6 -8.26432871157116  5.99979134883488 -1.32170330493049
 6 -9.35074155255526  3.81067200550055 -3.29267181578158
 6 -8.67748672937294  3.95711707480748 -4.64699794649465
 7 -6.36151191849185 -0.11793697389739 -0.99961098149815
 6 -7.38794240094009 -0.01484238983898 -1.95908183078308
 6 -7.63649676627663 -1.35147029972997 -2.66216924152415
 6 -6.70084556825683 -2.17397117041704 -1.97701691159116
 6 -6.00030795429543 -1.44358838833883 -1.03250111481148
 6 -8.48854422912291 -1.54122391099110 -3.74294521392139
 6 -6.28823245034503 -3.62899200520052 -1.92247764166417
 8 -6.54078731933193 -4.58301327142714 -2.47659790549055
 6 -5.03435368886889 -3.64787655435544 -0.88448506930693
 6 -5.34115124272427 -4.76763196479648  0.01886903790379
 8 -5.87508169076908 -4.64310024342434  1.10364748504850
 8 -4.98754871807181 -5.86935081918192 -0.45204937633763
 6 -5.39495284448445 -6.99259285038504  0.26148368316832
 6  2.32159884148415 -5.05071133133313  0.69401738303830
 6  3.40818412851285 -4.08327982728273  1.06420770657066
 6  4.05406451015102 -3.26339616051605  0.17140951595160
 6  3.71247614491449 -3.19406259465947 -1.34476214501450
 6  5.18906311231123 -2.45001927012701  0.59003085398540
 6  6.47495310001000 -2.82917787078708  0.02420274617462
 6  7.60850997769777 -1.94401604740474  0.61917575217522
 6  9.12066067456746 -2.05459144114411  0.05152843964396
 6  9.58592567266727 -3.45947585008501  0.25520864586459
 6  10.01506694229423 -0.91802242314231  0.43285124852485
 6  11.43369652695269 -0.88961175627563 -0.37579288988899
 6  12.27962558315832  0.29961915241524  0.05205599379938
 6  13.60794018811881  0.43208289518952 -0.54396415361536
 6  14.44064223722372 -0.75268599859986 -0.31537822302230
 6  14.23376331453145  1.69826459865987 -0.16948459085909
 6  15.37080636153615  2.25153708900890 -1.02266937463746
 6  15.88030765046505  3.60154266426643 -0.65024611761176
 6  17.22833722842284  4.05476439193919 -1.46931797959796
 6  16.93909289138914  4.28103366606661 -2.95731805180518
 6  17.91193461266127  5.30346847284729 -0.63826478347835
 1 -2.57672317821782  1.09366623022302  3.49048665986599
 1 -6.15201608450845  5.57048325052505  0.59830959365937
 1 -8.79767496659666  0.92058632013201 -2.93326870777078
 1 -3.59425649084909 -3.27951106780678  1.86210195229523
 1 -1.78621970797080 -1.20224783298330  2.76169833583358
 1 -3.06495582078208 -2.75996257715772  4.16621656755676
 1 -3.23803040314031 -1.09803192089209  4.72560869676968
 1 -4.78156983278328 -1.91861977997800  3.95875909850985
 1 -2.17782494809481 -2.94507755275528 -0.40882861746175
 1 -1.59319001870187 -1.51047967536754  0.45698653995400
 1 -0.70934532463246 -3.07283725602560  2.29381392249225
 1 -1.61063054165417 -4.36857369366937  1.63472250895090
 1 -1.85211386348635  3.61698638533853  4.24739712081208
 1 -2.75178283228323  4.83861350045005  4.82040770367037
 1 -2.84302423492349  2.98252144624463  5.21408838563856
 1 -5.24753861316132  6.59492747524753  2.23280539633963
 1 -9.92501648414841  3.12930008190819 -3.36937809240924
 1 -9.99465694859486  4.79257679217922 -3.03639663226323
 1 -9.54994075497550  4.12231013101310 -5.41851816241624
 1 -7.96868083408341  4.78457039763976 -4.55942562436244
 1 -8.19142941784179  2.97348166206621 -4.98234234893489
 1 -8.16357293889389 -0.91643490119012 -4.55013498249825
 1 -8.50019964786479 -2.60796785708571 -4.07693703760376
 1 -9.55212846194619 -1.27621425602560 -3.76115040014001
 1 -4.12305408140814 -3.63622944594459 -1.41582651275127
 1  2.61070901470147 -6.09999729282928  0.93495188308831
 1  2.06682000860086 -4.97491601800180 -0.42904833993399
 1  3.71916789918992 -4.18005812811281  2.06214457855786
 1  2.62327977987799 -3.40221177607761 -1.67577022712271
 1  3.97251458945895 -2.23220792139214 -1.80658887638764
 1  4.40985349274928 -3.99157101340134 -1.92711416871687
 1  5.00242411141114 -1.31469701430143  0.48097848894889
 1  5.39934229262926 -2.58779309650965  1.58811269756976
 1  6.80906012601260 -3.74719901940194  0.33725304700470
 1  6.48420726022602 -2.82146436243624 -1.09279896609661
 1  7.30351115271527 -1.00271682598260  0.49787854115412
 1  7.54310322052205 -2.18484673317332  1.70257773017302
 1  8.82616851645165 -1.85034307500750 -1.06670488918892
 1  8.93871603700370 -4.35899475937594 -0.17475994619462
 1  10.56430946034603 -3.49916327102710 -0.23695127702770
 1  9.84847159475948 -3.65350107870787  1.38712967596760
 1  9.79031009190919  0.16341475187519  0.04588376277628
 1  10.39710866946695 -0.68225654495449  1.30037097439744
 1  11.89731166226623 -1.91138846054605 -0.12374168196820
 1  11.21743768396840 -0.87195883138314 -1.45287613131313
 1  11.86703672177218  1.22605567736774 -0.26236344674467
 1  12.30291104980498  0.31477276057606  1.23793296839684
 1  13.55358610091009  0.56190093289329 -1.62711891669167
 1  14.64639486668667 -1.23401641894189  0.75783088058806
 1  13.93542392889289 -1.63682686158616 -0.62055830993099
 1  15.40875073157316 -0.64454778247825 -0.71028343134313
 1  13.48506775237524  2.38187648684869 -0.17822770007001
 1  14.47193480568057  1.70731714621462  0.88173700100010
 1  16.28394712181218  1.49676513801380 -1.06768458345835
 1  14.94688948444844  2.22563081448145 -2.05079861076108
 1  15.15987744984498  4.36298950665067 -0.70431171117112
 1  16.13210284418442  3.62230819021902  0.33255571437144
 1  18.16165598239824  3.22804631313131 -1.39168355625563
 1  16.27275441224122  5.01231851075108 -3.21275555445545
 1  17.73691608150815  4.51359775297530 -3.73563099669967
 1  16.50255494079408  3.21244615581558 -3.34066461966197
 1  18.07244511851185  4.98302895589559  0.35464463016302
 1  18.93045065586559  5.28684491099110 -1.13924606570657
 1  17.34224679447945  6.11339574967497 -0.87662601470147
 1 -4.94328221282128 -7.86813791319132 -0.15222953895390
 1 -6.56115660696070 -7.39332871427143  0.21547139043904
 1 -4.92488470587059 -6.99296917311731  1.35159802820282
 8 -7.61607450275027  6.87228726012601 -0.71605503390339
 1 -8.94707809160916  6.38115553125313 -2.30405887338734

