%nproc=3
%Mem=2GB
# td=(NStates=1) iop(3/107=0140000000,3/108=0140000000) iop(3/107=0140000000,3/108=0140000000) CAM-B3LYP/6-31G(d,p) 

TD

0 1
12 -5.75603133433343  1.14535456315632  0.14642731153115
 6 -4.92800292209221 -2.15292925762576 -0.42077514261426
 6 -3.52781424132413  1.13220576207621  2.76730816901690
 6 -6.31556797909791  4.60602862596260  0.69438179937994
 6 -7.98776969496950  1.09286796919692 -2.33200729462946
 7 -4.51614869936994 -0.27586350945095  1.11244141114111
 6 -4.24023924432443 -1.53538471987199  0.64717843634363
 6 -3.28711011271127 -2.31237243584358  1.39963555215522
 6 -2.87849200460046 -1.33250392009201  2.66955374197420
 6 -3.59234603460346 -0.00283943654365  2.16220687928793
 6 -3.57142925092509 -1.93172986558656  3.94233209260926
 6 -1.99265410871087 -2.60341433463346  0.68836302240224
 6 -1.03780154305431 -3.47343243114311  1.51909578647865
 6  0.21316718411841 -3.85451032313231  0.75762392349235
 8  0.47860171407141 -3.39195888468847 -0.29528954435444
 8  1.10606228842884 -4.54968011281128  1.55568155665567
 7 -4.99636818781878  2.56991722842284  1.48666535313531
 6 -4.07393148034804  2.37312532853285  2.49094432023202
 6 -3.77955849304931  3.61017109960996  3.21880082448245
 6 -4.58741449714972  4.56906537203720  2.60799668386839
 6 -5.27701706410641  3.92847752425243  1.55760091199120
 6 -2.88641726662666  3.67977506120612  4.37429129962996
 6 -4.58576127612761  5.99302933713371  2.97026246304630
 8 -3.98735122242224  6.47361219141914  3.84244821732173
 7 -6.86569821942194  2.65439337183718 -0.75404807250725
 6 -6.95391758955896  3.88316872237224 -0.28846704980498
 6 -7.97548268846885  4.48333939073907 -1.15749855895590
 6 -8.40984401720172  3.67180631073107 -2.13198775117512
 6 -7.74068788028803  2.37763593769377 -1.71864563436344
 6 -8.30867314601460  5.92481385108511 -1.10520165476548
 6 -9.38222470087009  3.90050098839884 -3.18137068566857
 6 -8.69487846854686  4.02228359145915 -4.61200444714471
 7 -6.39725549284928 -0.14667984818482 -1.05661668206821
 6 -7.33484709140914 -0.03507441304130 -2.05641156375638
 6 -7.55875899249925 -1.36214136683668 -2.80746377097710
 6 -6.58102358605861 -2.16297007030703 -2.10164937483748
 6 -5.96016393989399 -1.42444647414741 -1.13081094579458
 6 -8.35223059775978 -1.58794858345835 -3.89472039143914
 6 -6.17201082818282 -3.51363046904690 -2.07951334523452
 8 -6.44453769436944 -4.53119808990899 -2.79143938963896
 6 -4.98753900740074 -3.51269303600360 -1.01903852465247
 6 -5.44462158975898 -4.57411261286129  0.08688583958396
 8 -5.73536771937194 -4.36680261366137  1.14888200850085
 8 -5.17017698089809 -5.81179506360636 -0.43319749114911
 6 -5.52801615081508 -6.91849544064406  0.43237077187719
 6  2.25943262486249 -5.00131639183918  0.72778075937594
 6  3.41252456255626 -4.09211071037104  1.08899018481848
 6  4.10482958665867 -3.16901672257226  0.29439181418142
 6  3.69854475177518 -3.14052724112411 -1.17084475327533
 6  5.26166037203720 -2.34467873607361  0.78715056595660
 6  6.57803340804080 -2.70370532353235  0.13568389428943
 6  7.77697682438244 -1.70854250005000  0.57428126272627
 6  9.08895750425043 -1.92314829682968 -0.14116082928293
 6  9.55667274737474 -3.40346024852485  0.17297042204220
 6  10.05081051665167 -0.94377499839984  0.41642960636064
 6  11.42165532283228 -0.99846264136414 -0.39345465606561
 6  12.31594921552155  0.29173836433643  0.14020480868087
 6  13.72664205830583  0.39048873577358 -0.59076883408341
 6  14.59029720272027 -0.73641437143714 -0.33939062426243
 6  14.16315625382538  1.84549932213221 -0.27072471487149
 6  15.40114939583958  2.21093302860286 -1.12503961166117
 6  16.00626024572457  3.52716522652265 -0.73569466246625
 6  17.36387078177818  3.91348026352635 -1.42458350615061
 6  17.24119310141014  3.93355891859186 -2.95523784378438
 6  17.92629604880488  5.15606373237324 -0.87892884988499
 1 -2.87263276917692  1.34234109770977  3.62479009020902
 1 -6.60566144904490  5.56837303950395  0.96533629632963
 1 -8.87827302640264  1.07675193669367 -2.93288866976698
 1 -3.58724578977898 -3.33962707940794  1.71933767586759
 1 -1.85174626062606 -1.32233984218422  2.85328749474948
 1 -2.93144246944694 -2.65341192209221  4.15969591549155
 1 -3.65632223232323 -1.08113023072307  4.53815995189519
 1 -4.45800747654765 -2.12054997299730  3.59252247484748
 1 -2.42799996559656 -3.08387143214321 -0.16831456605661
 1 -1.54127482718272 -1.81562018941894  0.23273411471147
 1 -0.87886227632763 -3.02345231753175  2.59015355645565
 1 -1.37609708830883 -4.49587642394239  1.89682871957196
 1 -1.77284593669367  3.68071275797580  4.22989537063706
 1 -2.88250590459046  4.65431507060706  4.66122178507851
 1 -3.10778071057106  2.88996219031903  5.35509248604860
 1 -5.17495135443544  6.57311529402940  2.17708982478248
 1 -10.14825880838084  3.18439559145915 -3.37947910251025
 1 -9.95456293919392  4.89710724522452 -3.14950794339434
 1 -9.20507626852685  4.21632953295329 -5.39118542914291
 1 -7.92929689568957  4.72417435803580 -4.45305498729873
 1 -7.89572984788479  3.28052236613661 -4.71296541124112
 1 -8.27276385798580 -0.77841109880988 -4.55243521252125
 1 -8.24454408230823 -2.56639369966997 -4.37190653455346
 1 -9.48166141524152 -1.47572420702070 -3.63243752885289
 1 -4.31075285128513 -3.96983280628063 -1.58331326142614
 1  2.31554949874988 -5.94240153325333  1.18859724762476
 1  2.08359168576858 -4.96202472887289 -0.26973240834083
 1  3.61399738213821 -4.21359148144814  2.08842720682068
 1  2.58270572247225 -3.53056461136114 -1.32089473957396
 1  3.79462680068007 -2.03298799939994 -1.61459967746775
 1  4.29981248864886 -3.60099195549555 -1.91274273157316
 1  5.07854172317232 -1.37480302490249  0.44102449354935
 1  5.32965532393239 -2.40193451065106  1.91768565486549
 1  6.83314253425343 -3.76784108360836  0.28040736243624
 1  6.57933677317732 -2.62110432643264 -1.10574026022602
 1  7.56969777137714 -0.62705926022602  0.55092384568457
 1  7.93936284648465 -2.05825407390739  1.71554902730273
 1  8.96200209980998 -1.86447448814881 -1.34711292999300
 1  8.96738890429043 -4.20538939883988 -0.16917938813881
 1  10.49747277667767 -3.62654600930093 -0.27784536643664
 1  9.72621936953695 -3.51751748034803  1.19917088008801
 1  9.82876393729373  0.10464887528753  0.28501767616762
 1  10.20860981958196 -0.98285660496050  1.46668760606061
 1  12.00891282238224 -1.84156147784778 -0.02602190999100
 1  11.18415435563556 -0.80136177167717 -1.40498134183418
 1  11.76188620672067  1.21396446824682  0.21520431003100
 1  12.28570932963297  0.12248353165316  1.29267844294429
 1  13.48037878017802  0.23972871567157 -1.68459466426643
 1  15.04566479367937 -0.73705672297230  0.55773087058706
 1  13.96090647714771 -1.60632381128113 -0.51834808890889
 1  15.52327218371837 -0.69613294099410 -0.94648705170517
 1  13.33392263786379  2.55360365956596 -0.25943582088209
 1  14.52486009820982  1.83521993649365  0.83619244654465
 1  16.23482220932093  1.48312377387739 -1.03741155615562
 1  15.00201499699970  2.15640389178918 -2.13392692359236
 1  15.29792125422542  4.39118232593259 -0.79154043404340
 1  16.09362899679968  3.59535549494950  0.24245670447045
 1  17.86598641544154  3.16296980548055 -1.21998638653865
 1  16.31167830463046  4.56602388128813 -3.27766204510451
 1  18.23171556145615  4.20626701990199 -3.41135856945695
 1  16.79872455775577  2.93943885508551 -3.32732328552855
 1  18.09867774177417  5.11523217621762  0.02347151285128
 1  18.88051566236624  5.12363859035904 -1.39247138823882
 1  17.33608617841784  6.07349175927593 -1.26823517561756
 1 -5.35068295289529 -7.92926402580258 -0.13567788378838
 1 -6.65337582888289 -6.72765214661466  0.78312815611561
 1 -4.88214043144314 -6.71288116431643  1.42758562696270
 8 -7.88742163746375  6.82351238263826 -0.41863529192919
 1 -9.16474985878588  6.26673408910891 -1.84888335583558

