%nproc=3
%Mem=2GB
# td=(NStates=1) iop(3/107=0140000000,3/108=0140000000) iop(3/107=0140000000,3/108=0140000000) CAM-B3LYP/6-31G(d,p) 

TD

0 1
12 -5.60771650285029  1.22815284298430  0.15398806760676
 6 -5.02172229402940 -2.13596756145615 -0.47455052015202
 6 -3.42013347324733  1.17889043054305  2.75350678887889
 6 -6.13122954525453  4.63848187128713  0.57430979217922
 6 -8.01847276527653  1.22223090549055 -2.42462655655566
 7 -4.39147623212321 -0.33376930003000  1.01330149714971
 6 -4.28282350275027 -1.59472065346535  0.67021073957396
 6 -3.16811821352135 -2.27400859945995  1.32050763936394
 6 -2.88990314571457 -1.21674234393439  2.47724451105111
 6 -3.59506630663066 -0.05639479207921  2.02253291189119
 6 -3.37509961796180 -1.70790748334833  3.81765962536254
 6 -1.90774561786179 -2.67160115331533  0.54532871897190
 6 -0.96184394729473 -3.50299538743874  1.44900877777778
 6  0.22778864626463 -3.84638951105110  0.63069123022302
 8  0.47152100600060 -3.53177286608661 -0.56516653205321
 8  1.05442712491249 -4.73296844164416  1.26746273477348
 7 -4.88922747374737  2.65077531423142  1.51223791039104
 6 -3.99331341854185  2.44952296829683  2.48553377917792
 6 -3.73631416861686  3.65447553005301  3.18592753715372
 6 -4.45861161686169  4.61793025852585  2.56802268646865
 6 -5.15468483088309  3.93478815531553  1.44914006590659
 6 -2.72132075697570  3.78852593629363  4.28019188968897
 6 -4.60528322832283  6.06525655985599  2.88172360916092
 8 -4.14839732703270  6.56931176137614  3.91965593809381
 7 -6.77422907250725  2.63686161866187 -0.72112478017802
 6 -6.93755595339534  3.94087449294929 -0.36349455255526
 6 -7.91355649584959  4.55099615641564 -1.18320112921292
 6 -8.45369840264026  3.60981011111111 -2.00147469986999
 6 -7.72891670317032  2.36377455155516 -1.68680245004500
 6 -8.46036831553155  5.91691306100610 -1.02577371197120
 6 -9.49888636703670  3.83885482378238 -2.96436898549855
 6 -8.91012999369937  4.01563292639264 -4.40399364606461
 7 -6.30957672497250 -0.23933911411141 -1.11206222662266
 6 -7.31766537323732  0.01547064146415 -2.03482940554055
 6 -7.69036215281528 -1.21897705040504 -2.69118214281428
 6 -6.74048953265327 -2.21235500880088 -2.05568477837784
 6 -5.93294121762176 -1.43961799129913 -1.14668253295330
 6 -8.58595397009701 -1.64678446704670 -3.81630254965497
 6 -6.27485111221122 -3.64461356735674 -2.01672706660666
 8 -6.67931117171717 -4.57878284838484 -2.66052629832983
 6 -5.07829808330833 -3.58466023272327 -0.96853347414741
 6 -5.32093922152215 -4.67746294789479  0.10241739273927
 8 -5.77835201780178 -4.42239817321732  1.20727784808481
 8 -5.08812877607761 -5.84959884398440 -0.30858502990299
 6 -5.48389173837384 -7.03836742784278  0.42195973077308
 6  2.40481716331633 -5.07794405460546  0.70138812011201
 6  3.44308761886189 -4.18106960626063  0.97908919471947
 6  4.10329943364336 -3.23782360326033  0.24547692269227
 6  3.74107900520052 -3.06829001740174 -1.31807947674767
 6  5.13818802480248 -2.29442371057106  0.69819167006701
 6  6.60050565526553 -2.70571552455246  0.21313163906391
 6  7.69785891259126 -1.77666931273127  0.77045087968797
 6  9.00299890839084 -1.93432941494149  0.09384267106711
 6  9.61314839493949 -3.37183708620862  0.07552067706771
 6  10.05297073267327 -0.95706632753275  0.68330629402940
 6  11.37327048434843 -0.89900269536954 -0.14254956555656
 6  12.18419604020402  0.35427461796180  0.27735852405241
 6  13.60495989008901  0.44082376927693 -0.48734849204920
 6  14.45297347034704 -0.71420215021502 -0.32307899309931
 6  14.27261719991999  1.76533130533053 -0.16175381778178
 6  15.48651793269327  2.12144407970797 -1.04020112781278
 6  16.04465408510851  3.50640315031503 -0.61304239723972
 6  17.34198859355936  3.92046096159616 -1.43738478627863
 6  17.12293127522753  3.89767533023302 -2.90574289428943
 6  17.92867628682868  5.22999112511251 -1.07932888988899
 1 -2.62716822272227  1.09912677627763  3.43245085628563
 1 -6.41624250715071  5.76753295549555  0.72854261696170
 1 -8.77001220032003  1.31171543304330 -3.03633901480148
 1 -3.54743180838084 -3.19432254895490  1.70532627472747
 1 -1.78034912091209 -0.93159076727673  2.64384655065507
 1 -3.00287961316132 -2.68558513941394  3.95586553245324
 1 -2.80723732383238 -0.91808392609261  4.65027116301630
 1 -4.49018069386939 -1.87298521652165  3.89568279087909
 1 -2.25909307490749 -3.12397544254425 -0.55784351895190
 1 -1.40705140484048 -1.87954658205821  0.11170201150115
 1 -0.71585597569757 -2.90188016031603  2.34812935403540
 1 -1.55578505710571 -4.37057389368937  1.68371740844084
 1 -1.65195384748475  3.58721340804080  4.12136451755175
 1 -2.82572022602260  4.86327596669667  4.65821148404840
 1 -3.00271020352035  3.07175036913691  5.00081705850585
 1 -5.12509636893689  6.76662464496450  1.91828394419442
 1 -10.35803978647865  2.95841299319932 -3.11997315191519
 1 -10.11305878877888  4.62751028552855 -2.66764975757576
 1 -9.69727548844885  4.29060696069607 -5.01597790839084
 1 -8.19934390039004  4.73933587418742 -4.00593027482748
 1 -8.28703897879788  3.07218153205321 -5.09925404010401
 1 -8.27556413801380 -1.12457571527153 -4.69700966996700
 1 -8.59407903580358 -2.82998005830583 -3.92570191409141
 1 -9.74818806790679 -1.48055469006901 -3.65076936203620
 1 -4.19383115911591 -3.78503432643264 -1.60396532663266
 1  2.58435637943794 -6.07744503760376  1.19055744364436
 1  2.37231055765577 -5.51068959535954 -0.42928836393639
 1  3.52612859525953 -4.15347546984698  1.95747411151115
 1  2.86023347524752 -3.54815637053705 -1.65919856995700
 1  3.74316165416542 -1.93477817841784 -1.63615183268327
 1  4.51814432183218 -3.49485134143414 -1.96272773007301
 1  4.99567343634363 -1.24066961156116  0.14064445554555
 1  5.19493185158516 -2.04461877907791  1.69512339863986
 1  7.01500072007201 -3.78765306480648  0.49260858255826
 1  6.64535337483748 -2.53176539253925 -0.89569925612561
 1  7.28898970057006 -0.80990754505451  0.97985673897390
 1  7.93718262846285 -1.96283453195320  1.87318479087909
 1  8.85570146974698 -1.69149719041904 -0.99606782548255
 1  8.96873903930393 -4.08735759565957 -0.58440091029103
 1  10.74113714311431 -3.49381273597360 -0.42098968086809
 1  9.69255600320032 -3.72665839443944  1.09702066506651
 1  9.59610067096710  0.05510392079208  0.47998717311731
 1  10.21410036863686 -1.08351667096710  1.62805374267427
 1  12.05485741684168 -1.87487480918092 -0.03219252705271
 1  11.23253919411941 -1.12999463496350 -1.23604444814481
 1  11.57288730683068  1.23010608240824 -0.22941015141514
 1  12.38997975667567  0.51808309160916  1.39653882898290
 1  13.37591833413341  0.45278002080208 -1.53286949174917
 1  14.66283651085109 -0.90669368666867  0.91869696719672
 1  14.06022640914092 -1.56036921582158 -0.63362961706171
 1  15.32520237673767 -0.52976630433043 -0.86757916091609
 1  13.63503274887489  2.68453675287529 -0.27526740404040
 1  14.68967657985799  1.65684209870987  0.96603543084308
 1  16.28966769386939  1.40632609410941 -0.86872468746875
 1  15.37906270177018  1.95089334073407 -2.12563609450945
 1  15.36939840194019  4.23193640134013 -0.74554583458346
 1  16.25770540444044  3.31556751615161  0.48665112391239
 1  17.97642745954596  3.13648715721572 -1.16500088798880
 1  16.29871700850085  4.58113539243924 -3.39777405630563
 1  18.06916930683068  4.21273766696670 -3.41400883448345
 1  16.90285497079708  2.74340925212521 -3.19605015821582
 1  18.08419629362936  5.38704935793579  0.05296446214621
 1  18.69233684448445  5.88310453695370 -1.64824696579658
 1  16.96435900570057  5.86898130823082 -1.30978933103310
 1 -5.18547643224322 -7.92612371177118 -0.10536485248525
 1 -6.58408890019002 -6.81002038343834  0.55383522682268
 1 -4.96034825222522 -6.78525840204020  1.45179804820482
 8 -7.92634552985299  6.85621565296530 -0.47787121552155
 1 -9.49273265706571  6.09850726642664 -1.60441890939094

