%nproc=3
%Mem=2GB
# td=(NStates=1) iop(3/107=0140000000,3/108=0140000000) iop(3/107=0140000000,3/108=0140000000) CAM-B3LYP/6-31G(d,p) 

TD

0 1
12 -5.69178490969097  1.19306933463346  0.19649231803180
 6 -5.04240436223622 -2.16888085278528 -0.44754781988199
 6 -3.33424488438844  1.16144868636864  2.73836527472747
 6 -6.20957738003800  4.58964698779878  0.69613197439744
 6 -8.03664458245825  1.15070375277528 -2.39383347724772
 7 -4.41015810031003 -0.29360528362836  1.03963413041304
 6 -4.27656287668767 -1.63684486588659  0.60626434493449
 6 -3.31923332503250 -2.40458165676568  1.51661725032503
 6 -2.95564972037204 -1.39566023572357  2.51255804240424
 6 -3.53541034103410 -0.15063421602160  2.10640129872987
 6 -3.36217832583258 -1.71108780138014  4.01695955535554
 6 -2.06532137543754 -2.84526852005200  0.61470565666567
 6 -1.10252801570157 -3.63384847274728  1.42540641754175
 6  0.26752261966197 -3.82821769386939  0.72530069116912
 8  0.47833168706871 -3.44188387718772 -0.39288930433043
 8  1.08171985418542 -4.69929507430743  1.34180016851685
 7 -4.74372292329233  2.59659989668967  1.41930861746175
 6 -3.95198928612861  2.34809282528253  2.46045127092709
 6 -3.77322785998600  3.66327641014101  3.16366531093109
 6 -4.55574132983298  4.59449791529153  2.60075595979598
 6 -5.20498986138614  3.93925860236024  1.49475462736274
 6 -2.87265589048905  3.72996007970797  4.34956882738274
 6 -4.61129382938294  6.05144517871787  2.80370580738074
 8 -4.00934342164216  6.54581941214121  3.78275224772477
 7 -6.96180783038304  2.57785571807181 -0.57146981468147
 6 -6.92931512931293  3.93306371187119 -0.35102330543054
 6 -7.91817695789579  4.66509756655666 -1.21206401550155
 6 -8.41298433123312  3.64124325442544 -2.04222877527753
 6 -7.77673148464847  2.37773594769477 -1.69730350015002
 6 -8.25744802350235  6.06282765246525 -1.07716885148515
 6 -9.42667914631463  3.82773371167117 -3.22883543214321
 6 -8.77891687238724  4.08512987608761 -4.55523877057706
 7 -6.36058182548255 -0.12995817601760 -1.14651567196720
 6 -7.41414502120212 -0.04202510811081 -2.12038796139614
 6 -7.66144926152615 -1.34721987468747 -2.74480750535054
 6 -6.69779526322632 -2.25110888418842 -2.03490270017002
 6 -5.91185910941094 -1.40825485498550 -1.21934979967997
 6 -8.55652102680268 -1.64555434403440 -3.79314023342334
 6 -6.29494312141214 -3.55875498149815 -2.06748214211421
 8 -6.55630887148715 -4.61125609570957 -2.68296854255426
 6 -5.06991724522452 -3.55916768346835 -0.90693731453145
 6 -5.32939006660666 -4.60115531713171  0.09867701870187
 8 -5.76160034263426 -4.42122805620562  1.23871099139914
 8 -5.10552051525153 -5.81423530763076 -0.40962513391339
 6 -5.37258060726073 -6.90458404950495  0.51728926372637
 6  2.35170185178518 -5.00892715291529  0.71828981028103
 6  3.46887019711971 -4.14258575787579  1.13805509130913
 6  4.06016512021202 -3.32239206010601  0.27169954495450
 6  3.67576247354735 -2.99056224462446 -1.20616828562856
 6  5.10250445644564 -2.42700696889689  0.79798164906491
 6  6.52376798149815 -2.55049000200020  0.11438176407641
 6  7.64227335403540 -1.65049669546955  0.60567440204020
 6  9.04656326482648 -1.94450043204320 -0.17343405660566
 6  9.64905198529853 -3.35711561406141  0.18860198519852
 6  10.05075051065107 -0.85526614751475  0.27338530193019
 6  11.43594675197520 -0.93625642074207 -0.29474478507851
 6  12.23710133073307  0.32519170967097  0.04446523472347
 6  13.57651704580458  0.34668435533553 -0.64416417361736
 6  14.59361753475348 -0.70636136613661 -0.24531121632163
 6  14.21323126132613  1.82674744694469 -0.31749939233923
 6  15.44797407830783  2.17073900920092 -1.08436554425443
 6  15.98690831053105  3.51646415641564 -0.64582567556756
 6  17.31228562326233  3.90487940344034 -1.37274832263226
 6  17.26649563166317  4.07279284198420 -2.83475579557956
 6  17.92628604780478  5.10269839583958 -0.70345130213021
 1 -2.91687719361936  1.03279014261426  3.64428203940394
 1 -6.25886676957696  5.71840804300430  0.78101786448645
 1 -8.60273547264726  1.17406166766677 -3.19978535943594
 1 -3.90906797199720 -3.35407852455246  2.01495723782378
 1 -1.81938302430243 -1.61518912711271  2.72131429742974
 1 -2.94072339753975 -2.87501408230823  4.29714966086609
 1 -2.85294189428943 -1.12504462216222  4.90264640054005
 1 -4.52800447624762 -1.75586350435044  4.09610283288329
 1 -2.45801296689669 -3.31448449344935 -0.33607134173417
 1 -1.61856255595560 -1.86624525192519  0.23798463976398
 1 -0.68247263736374 -3.00730070237024  2.37379192029203
 1 -1.46345582418242 -4.46124296059606  1.74015305200520
 1 -1.68483713581358  3.66307099379938  4.13318569966997
 1 -3.03814146814682  4.81622126122612  4.92926858975898
 1 -2.82202213471347  2.82195538963896  5.16720369716972
 1 -5.11826568586859  6.65890387288729  2.17580969676968
 1 -10.00045402790279  2.90763791569157 -3.36637779237924
 1 -10.09287677057706  4.64264179867987 -3.11023401600160
 1 -9.42489825072507  4.21301920192019 -5.22028833943394
 1 -8.01579554555456  4.98710065066507 -4.75432511431143
 1 -8.21745202010201  3.21963627752775 -4.94282839753975
 1 -8.42470905250525 -1.08143140084008 -4.69707967696770
 1 -8.52005163306331 -2.55182224252425 -3.96513585748575
 1 -9.55791904100410 -1.53420005460546 -3.47543182828283
 1 -4.17543931993199 -3.88530435343534 -1.49395432553255
 1  2.36604454825483 -6.16314360746075  0.91338972687269
 1  2.23779710631063 -4.78583711011101 -0.38610404550455
 1  3.72751873427343 -3.84941506380638  2.23037140124012
 1  2.57906535843584 -3.23369492439244 -1.48720137023702
 1  3.75180251825182 -1.84964966556656 -1.48041625912591
 1  4.32869537693769 -3.53862571887189 -1.80956241354135
 1  4.83037690669067 -1.49519506410641  0.67794818591859
 1  5.41868422682268 -2.61878619581958  1.83703759005901
 1  6.85655487548755 -3.66884118361836  0.32043136483648
 1  6.29393823332333 -2.60591280728073 -1.03426311251125
 1  7.35427622922292 -0.80927748204821  0.33693244654465
 1  7.83480239043904 -1.77649589808981  1.74335180758076
 1  9.06374227382738 -1.71238927962796 -1.17131535023502
 1  8.90908307370737 -4.18969782968297 -0.01721419161916
 1  10.58927195659566 -3.65916927162716 -0.41786936883688
 1  9.53301004860486 -3.25962169076908  1.24318528152815
 1  9.66579764066407  0.19858826922692  0.05516469086909
 1  10.20035899449945 -0.80464878417842  1.43838477577758
 1  11.86087801890189 -1.82716003770377  0.19315000720072
 1  11.39811575177518 -0.94571620712071 -1.41541238493849
 1  11.70429044714471  1.22934600640064 -0.16231344174417
 1  12.11282204090409  0.27929921322132  1.37374654975498
 1  13.27378812111211  0.41307605040504 -1.67233343814381
 1  14.94324455165517 -0.43564658195820  0.72414751225122
 1  14.15869625612561 -1.77174035293529 -0.27325357945795
 1  15.41935179167917 -0.36716004370437 -1.01022342534253
 1  13.59562880848085  2.57616591579158 -0.56862673997400
 1  14.25952356455646  1.95875228972897  0.80141896919692
 1  16.14634336143614  1.37895335683568 -0.89516733173317
 1  15.17230202570257  2.09680793219322 -2.14103763466347
 1  15.46271773387339  4.50209341704170 -0.95460674067407
 1  16.17734736863686  3.73275923532353  0.49315177397740
 1  18.10090990779078  2.99381288978898 -1.29992438033803
 1  16.64861199799980  4.85249252815282 -3.22320659955996
 1  18.15870826072607  3.98954534773477 -3.35921335493549
 1  16.94181886718672  3.24835974717472 -3.27603815701570
 1  18.07194506850685  4.56780743374337  0.32673183888389
 1  19.12814042484248  5.27213343984398 -1.08084022512251
 1  17.43034560436044  6.06062047214721 -0.75214356645665
 1 -5.34460234483448 -7.81829292869287  0.02105778977898
 1 -6.49162965426543 -6.69131851325132  0.85036487978798
 1 -4.74754697209721 -6.74962483868387  1.42965583398340
 8 -7.79384227952795  6.89637966936694 -0.38262169056906
 1 -9.04547793159316  6.23525094079408 -1.81190965846585

