%nproc=3
%Mem=2GB
# td=(NStates=1) iop(3/107=0140000000,3/108=0140000000) iop(3/107=0140000000,3/108=0140000000) CAM-B3LYP/6-31G(d,p) 

TD

0 1
12 -5.61327705890589  1.23381340904090  0.20741341014101
 6 -5.07702782458246 -2.17861182588259 -0.33285635073507
 6 -3.37273873377338  1.16267880938094  2.70079151735173
 6 -6.15425184748475  4.51473949704971  0.67155951715172
 6 -8.02983390139014  1.12977165956596 -2.34963905780578
 7 -4.40513759825983 -0.24326024912491  1.00300046704670
 6 -4.30046526692669 -1.61343252465247  0.71640535903590
 6 -3.20513191489149 -2.28096929552955  1.41720730933093
 6 -2.99572372777278 -1.35757642734273  2.56401318791879
 6 -3.64118091809181 -0.06363551615161  2.14751541014101
 6 -3.56727883588359 -1.85765245784578  3.93121098049805
 6 -1.97853269656966 -2.74116811001100  0.64692887898790
 6 -0.98741650455046 -3.66135122302230  1.43745762266227
 6  0.24270013741374 -3.93383825592559  0.63726188728873
 8  0.54237809170917 -3.51973166196620 -0.44691470687069
 8  1.09378106030603 -4.66024116891689  1.34661064956496
 7 -4.84386293729373  2.62477271397140  1.42059874647465
 6 -3.88144223142314  2.39039705570557  2.48137336313631
 6 -3.71239177637764  3.60241032353235  3.20193913831383
 6 -4.57606336203620  4.58230669616962  2.62453833803380
 6 -5.28776813921392  3.93866854335434  1.54561971387139
 6 -2.89894851975198  3.67823490719072  4.45318918941894
 6 -4.58335103510351  6.02109214341434  2.90919635643564
 8 -4.02002448974897  6.47828265846585  3.88200217271727
 7 -6.90010165976598  2.64038197069707 -0.75678834653465
 6 -6.82106430423042  3.95309571507151 -0.34981318441844
 6 -7.86897203740374  4.62181323812381 -1.18728153725373
 6 -8.44359739253925  3.68706783688369 -2.06733128552855
 6 -7.76695050655066  2.45794396849685 -1.79745351515151
 6 -8.30802308100810  5.99908127782778 -1.15878701330133
 6 -9.41968844724473  3.76692763106311 -3.16703925252525
 6 -8.60338931963196  3.88628999209921 -4.49294254095410
 7 -6.36937270457046 -0.10798597879788 -1.10304132453245
 6 -7.30962456915692 -0.01781268686869 -2.10456637923792
 6 -7.63016613321332 -1.37965311801180 -2.72930595519552
 6 -6.79985546924692 -2.21629540284028 -2.02612182208221
 6 -5.98419634313431 -1.43748777827783 -1.04331219591959
 6 -8.43492886758676 -1.68543833243324 -3.84616553595360
 6 -6.25626925402540 -3.55984509050905 -2.01633702760276
 8 -6.61538477907791 -4.46538150825083 -2.63937418311831
 6 -5.08709896339634 -3.57012877957796 -0.94540116091609
 6 -5.24336146374637 -4.63161836343634  0.15539269026903
 8 -5.73934811741174 -4.40492642604260  1.26153327362736
 8 -5.07838780198020 -5.83825770987099 -0.43976814821482
 6 -5.38746209540954 -6.97152074317432  0.35111264606461
 6  2.41683836543654 -5.01719797999800  0.78225620692069
 6  3.39221253135314 -3.93245474477448  1.13414470027003
 6  3.93103220692069 -3.17073689458946  0.24291666666667
 6  3.56531142844284 -3.10475366376638 -1.30059772857286
 6  5.15562976897690 -2.11638590679068  0.60728257915792
 6  6.48584418911891 -2.52150710371037 -0.03397307140714
 6  7.65869499619962 -1.72314396019602  0.55260909550955
 6  9.02444105260526 -1.95482146414641 -0.02368908210821
 6  9.45181226132613 -3.37538744124412  0.20133325832583
 6  9.98458389398940 -0.92232285318532  0.49443740714071
 6  11.27303046034603 -0.77826062116212 -0.29669498009801
 6  12.30735835643564  0.19673886438644  0.33498428662866
 6  13.61781117521752  0.45731541844184 -0.56111586878688
 6  14.46066423942394 -0.76893762376238 -0.40051673687369
 6  14.28329826802680  1.72741751395140 -0.19233687608761
 6  15.53250253115312  2.08320025532553 -0.96681378907891
 6  16.11177079677968  3.47559006900690 -0.61973306630663
 6  17.39409380408041  3.93276219171917 -1.39781082888289
 6  17.04613359545955  3.92629819251925 -2.97780010001000
 6  17.86874029322932  5.39116724272427 -0.99877083408341
 1 -2.58821432733273  1.01235809940994  3.62802041324132
 1 -6.53253413631363  5.65817201940194  0.66205596829683
 1 -8.81432663176318  1.19593385488549 -2.98910429132913
 1 -3.70617768296830 -3.27182029872987  1.78834457655766
 1 -1.81368245424542 -1.23950155835584  2.96367853385339
 1 -2.99542886808681 -2.71715829672967  4.40779072497250
 1 -3.61893849394939 -1.08996111381138  4.70352648854886
 1 -4.66420809660966 -2.11604952295230  3.82356557915792
 1 -2.28835600120012 -3.29140218521852 -0.28375611021102
 1 -1.34041474117412 -1.84526315371537  0.50407124842484
 1 -0.51325571567157 -2.96747671997200  2.25358990009001
 1 -1.37855733433343 -4.73328016431643  1.69139817651765
 1 -1.85678433053305  3.47690237693769  4.05646802790279
 1 -3.03014066806681  4.79134877397740  4.86017168006801
 1 -3.16365629812981  2.91015420952095  5.10832780958096
 1 -5.20301416071607  6.71756973947395  2.39623173897390
 1 -10.03873785628563  2.91967911981198 -3.13073422802280
 1 -10.05680316321632  4.74430196469647 -2.98828182078208
 1 -9.35971173207321  3.87058495849585 -5.32993930453045
 1 -7.84453841984198  4.85466740734073 -4.58909859165917
 1 -7.90668094299430  2.98684299819982 -4.77361147584759
 1 -7.97047362896290 -1.10378363606361 -4.70635060406041
 1 -8.30793042094209 -2.64028108840884 -4.38578792269227
 1 -9.64265751485148 -1.34673130773077 -3.81061534663466
 1 -4.22885466146615 -3.81964778777878 -1.51625655575558
 1  2.70288823262326 -6.05643293639364  1.25256364426443
 1  2.22230555715572 -5.23231175757576 -0.14316975207521
 1  3.69909589198920 -3.84169429172917  2.08102646674667
 1  2.66902435433543 -3.37799935483548 -1.54935758585859
 1  3.89473681168117 -2.17942264286429 -1.64758297579758
 1  4.12831533893389 -3.85821767806781 -1.93883534083408
 1  4.89348321732173 -1.07362290689069  0.19442983408341
 1  5.30241259965997 -2.17837215441544  1.71619550585058
 1  6.61393061306130 -3.59332363186319  0.24656397809781
 1  6.26970581008101 -2.22353456945695 -1.13536322252225
 1  7.52297309890989 -0.71551810611061  0.50945969926993
 1  7.77472638283828 -1.79423767226723  1.65825329772977
 1  8.77393329292929 -1.61392943364336 -1.04129234793479
 1  8.74441660706071 -4.08037689758976 -0.12953542374237
 1  10.52400542994299 -3.56306966166617 -0.11732931483148
 1  9.34421116871687 -3.69478520712071  1.44249521252125
 1  9.73245430633063  0.01385979637964  0.36718589298930
 1  9.96587554615462 -1.13823214251425  1.72335327262726
 1  11.71478340944094 -1.85818314001400 -0.75833514131413
 1  10.90481642184218 -0.35007664316432 -1.29494033773377
 1  11.93189320742074  1.20266333813381  0.30395318491849
 1  13.09245000370037  0.04324560786079  1.22191136623662
 1  13.31865260756076  0.45826056885689 -1.64734093889389
 1  14.91900212741274 -0.86530954825483  0.65646074357436
 1  13.83264365086509 -1.69507268616862 -0.69745599969997
 1  15.51854171067107 -0.74813814151415 -1.07576997999800
 1  13.35992523812381  2.46581488068807 -0.17782766006601
 1  14.58845645784579  1.78271468596860  0.87911673897390
 1  16.43477220432043  1.35579104060406 -0.95329314431443
 1  15.18236303180318  1.89810806220622 -2.05450898179818
 1  15.38250971307131  4.27300050775078 -0.66943822382238
 1  16.40581021492149  3.21356731613161  0.41205366416642
 1  18.31124094089409  3.04191770027003 -1.38634302220222
 1  16.29632676947695  4.74427170607061 -3.06428070697070
 1  17.88621101100110  4.12432882608261 -3.62937037063706
 1  16.43068775407541  2.95873078427843 -3.21964251745174
 1  18.37012488648865  5.52337299029903  0.11068023372337
 1  18.77909552035204  5.71604783128313 -1.49678181928193
 1  16.99631220102010  6.11714612471247 -1.07543589568957
 1 -4.99611749634964 -7.74976607600760 -0.15906022202220
 1 -6.65970646194619 -7.15554493589359  0.72645248854886
 1 -4.69104132153215 -6.99358923512351  1.28852172057206
 8 -7.65064796009601  6.91920195159516 -0.51465489388939
 1 -9.30162354615462  6.01060847654765 -1.64571303880388

