%nproc=3
%Mem=2GB
# td=(NStates=1) iop(3/107=0140000000,3/108=0140000000) iop(3/107=0140000000,3/108=0140000000) CAM-B3LYP/6-31G(d,p) 

TD

0 1
12 -5.61234696589659  1.23908393609361  0.19614228302830
 6 -4.97989811161116 -2.15096906160616 -0.33553661876188
 6 -3.49263072297230  1.16763930543054  2.82141357955796
 6 -6.28863528582858  4.67957598069807  0.68373073427343
 6 -7.95268618661866  1.13049173157316 -2.31635572947295
 7 -4.45823290779078 -0.27274319741974  1.09392955995600
 6 -4.24706992739274 -1.56028721012101  0.66133985248525
 6 -3.27723912561256 -2.35981718031803  1.56221180978098
 6 -2.93630778617862 -1.33047371707171  2.66192297889789
 6 -3.66765356535654 -0.01779093169317  2.14020467906791
 6 -3.45329743774377 -1.73877056965697  4.08412627202720
 6 -2.01503634693469 -2.69821381458146  0.65287947404740
 6 -0.94110187308731 -3.42872796069607  1.45218909580958
 6  0.24908077547755 -3.84125899799980  0.62280044114411
 8  0.41792564646465 -3.39839952875288 -0.51547156255626
 8  1.15912759495950 -4.66089123392339  1.26236222472247
 7 -4.96998554955495  2.72426266296630  1.42136882348235
 6 -4.15576966416642  2.37491550755076  2.51751697749775
 6 -3.86887742494249  3.64696477897790  3.19623856825683
 6 -4.71534729042904  4.61007947344734  2.67633351755176
 6 -5.43682304470447  4.03523820032003  1.49723487538754
 6 -2.88482710761076  3.86014309800980  4.38445231573157
 6 -4.75542824282428  5.98863889808981  3.02352778957896
 8 -4.04586707400740  6.55903073327333  3.84553852635264
 7 -6.82543419301930  2.66186411891189 -0.78081074877488
 6 -6.95003720152015  4.08264867036704 -0.43492169526953
 6 -8.07908304850485  4.58978003480348 -1.21125393449345
 6 -8.43555658845885  3.66986611671167 -2.05244979737974
 6 -7.77431124262426  2.37966614071407 -1.66545031483148
 6 -8.37363964266427  5.99550091979198 -1.18402953755376
 6 -9.43354983338334  3.84344528282828 -3.18713126172617
 6 -8.65363434413441  3.83284464756476 -4.57023026972697
 7 -6.26315208250825 -0.11219639983998 -1.20674169456946
 6 -7.28650225692569 -0.03670457605761 -2.07185310791079
 6 -7.57949106570657 -1.29526467916792 -2.71121414601460
 6 -6.69607509120912 -2.21054482778278 -2.11030023992399
 6 -5.91644956845685 -1.38723275277528 -1.17608547324732
 6 -8.69858523322332 -1.73269305790579 -3.66326724612461
 6 -6.18737236433643 -3.58351745774578 -2.01023641754175
 8 -6.53629687028703 -4.58617358745875 -2.62687293299330
 6 -4.99947020052005 -3.49591135783578 -0.92791941274127
 6 -5.24461158875888 -4.60299550115012  0.08356550755076
 8 -5.75291947454745 -4.50427636103610  1.23834095439544
 8 -4.88990895409541 -5.80405428952895 -0.48893306470647
 6 -5.18485183438344 -7.09394298539854  0.36834436923692
 6  2.39136581818182 -4.99369562976298  0.57168514981498
 6  3.42391570167017 -3.97923942324232  0.95991727752775
 6  4.15708481218122 -3.22606242714271  0.12417479247925
 6  3.65825072237224 -3.17250043844384 -1.29797746654665
 6  5.19498370437044 -2.21466573477348  0.60638248914891
 6  6.52368797349735 -2.62984793779378  0.07699802570257
 6  7.73832295899590 -1.75679732553255  0.51007484208421
 6  9.08237684618462 -1.93381936393639 -0.10075678887889
 6  9.66884396449645 -3.38351825432543  0.01172429742974
 6  9.99370480608061 -0.85065568646865  0.57785574897490
 6  11.35486864416442 -0.93258605370537 -0.10872618321832
 6  12.31131875247525  0.23400259075908  0.27950873907391
 6  13.63195258935894  0.36439612651265 -0.51229098629863
 6  14.59557773077308 -0.75662639263926 -0.11686837203720
 6  14.20780071827183  1.76922169436944 -0.14863250565056
 6  15.45226450735074  2.08689062436244 -0.99141624932493
 6  16.07396701640164  3.46774928492849 -0.75452654565457
 6  17.41656605130513  3.76751566706671 -1.40225127292729
 6  17.17798678077808  3.76221178387839 -2.93656597659766
 6  17.89104252345235  5.14306243224322 -0.96747770477048
 1 -2.94449995589559  1.01646851045104  3.68763637483748
 1 -6.75393627652765  5.68085428762876  0.77141690439044
 1 -8.74850004910491  1.05800006150615 -3.00742612351235
 1 -3.61465853105311 -3.31874499119912  1.88596433853385
 1 -1.91734282028203 -0.95377298549855  2.87028919491949
 1 -3.05278460366037 -2.60567714861486  4.39095904180418
 1 -3.33986058615862 -0.90105222292229  4.84680081598160
 1 -4.63507518331833 -1.82460037803780  3.96291951455146
 1 -2.23661082668267 -3.10797384238424 -0.29548728332833
 1 -1.55304600430043 -1.73568219561956  0.46317715901590
 1 -0.73933832393239 -2.77783775607561  2.19472401350135
 1 -1.29722920152015 -4.47979481578158  1.60127916461646
 1 -1.89707835993599  3.47470215691569  4.30217259835984
 1 -3.10172782678268  4.93062270137014  4.79111477437744
 1 -3.28017795029503  3.15970916501650  5.25784276107611
 1 -5.41649550885088  6.47704568706871  2.45687780358036
 1 -10.07606158865886  2.90475762766277 -3.33112426702670
 1 -9.89193667656766  4.74787232173217 -3.05410840344034
 1 -9.42739850075008  3.84910281028103 -5.27759407000700
 1 -7.88631259725973  4.66471841244124 -4.54345402720272
 1 -8.18103837873787  2.79059337323732 -4.51656577127713
 1 -8.45690227182718 -1.23551680938094 -4.66694666366637
 1 -8.61131075897590 -2.84509156945695 -3.97549689358936
 1 -9.61786503560356 -1.42136877147715 -3.42914719981998
 1 -4.16052782878288 -3.83288911191119 -1.65525045514551
 1  2.63898184198420 -5.95585287838784  1.01601998989899
 1  2.06943026962696 -5.00532905930593 -0.54643007810781
 1  3.71749773217322 -3.90356047834783  2.08953731783178
 1  2.51955940784078 -3.21497305220522 -1.31825447554755
 1  3.69391672967297 -2.17921262186219 -1.84439265676568
 1  4.37968047544754 -3.66261811811181 -1.91094255155516
 1  5.02909677867787 -1.17395293989399  0.38617900900090
 1  5.36644900330033 -2.20070438763876  1.57607149344935
 1  6.68372759275928 -3.73688798829883  0.13547286898690
 1  6.62752159165917 -2.57865008100810 -0.94897458365837
 1  7.52017281888189 -0.74393094739474  0.48192694599460
 1  7.90058896909691 -1.88445669416942  1.73041051345135
 1  9.00335623522352 -1.72835087578758 -1.16236445514552
 1  9.07069923532353 -3.98002686258626 -0.78248071827183
 1  10.76578960836084 -3.56968032273227 -0.31470905280528
 1  9.40878762636264 -3.84411013961396  0.99817078007801
 1  9.56350741164116 -0.04484607420742  0.22882205660566
 1  10.04706366496650 -0.98992731203120  1.67330826812681
 1  11.99091102220222 -1.78430575227523  0.15946663886389
 1  11.31753769396940 -0.87725936143614 -1.14983582728273
 1  11.78814883298330  1.25241831363136 -0.11482869326933
 1  12.50432119081908  0.17227851115111  1.28433760886089
 1  13.43738448074807  0.16482122492249 -1.79119532433243
 1  15.01198142534253 -0.78995201250125  0.77874297179718
 1  13.97833822032203 -1.72022520142014 -0.31267752185219
 1  15.51482133863386 -0.76062939063906 -0.91424382738274
 1  13.43856310191019  2.56005430463046 -0.25661553885389
 1  14.57847545974597  1.45204161866187  0.70681950925092
 1  16.49831855895589  1.46115157665767 -0.68279609460946
 1  15.08840363586359  1.78971722312231 -1.96546007690769
 1  15.41339280138014  4.38318152585259 -0.99365064506451
 1  16.12926256015601  3.33862982238224  0.44856731553155
 1  18.13722353915391  2.98470197869787 -1.26814120202020
 1  16.54507164396439  4.47331461036104 -3.12067634653465
 1  18.02082447234723  4.28587498069807 -3.40320775437544
 1  16.70996568186818  2.80724563576358 -3.44155470867087
 1  17.99224709870987  5.23829448244824  0.12341150685069
 1  18.71938954975498  5.49581580808081 -1.61402354345435
 1  17.22791536133613  5.95958036813681 -1.13796214831483
 1 -4.90916880148015 -7.80644174357436 -0.57461177717772
 1 -6.16318680998100 -7.01197057845785  0.73608345164516
 1 -4.49495171257126 -7.22335221142114  1.30263313171317
 8 -7.98116101140114  6.85111514291429 -0.35442887128713
 1 -9.29198258205821  6.42912032773277 -1.84731319881988

