%nproc=3
%Mem=2GB
# td=(NStates=1) iop(3/107=0140000000,3/108=0140000000) iop(3/107=0140000000,3/108=0140000000) CAM-B3LYP/6-31G(d,p) 

TD

0 1
12 -5.53738947014701  1.15094512221222  0.14544721352135
 6 -4.96338646044604 -2.09155312001200 -0.46025909100910
 6 -3.54942640254025  1.18541108260826  2.79637107530753
 6 -6.26148257055706  4.49741776487649  0.81028338953895
 6 -8.09904082208221  1.11669035143514 -2.29091318521852
 7 -4.39296638113811 -0.28839476257626  1.02995316231623
 6 -4.25266048644864 -1.58640982238224  0.62910662916292
 6 -3.17289869156916 -2.27944914351435  1.40959654825483
 6 -2.86150030543054 -1.25304597429743  2.58464525112511
 6 -3.67124392439244 -0.04099325192519  2.12507316591659
 6 -3.35457756575658 -1.70771746434643  3.93141100050005
 6 -1.88539338263826 -2.61023501670167  0.60644483058306
 6 -0.86955471837184 -3.46527161506151  1.45659953685369
 6  0.27343321072107 -3.85950082218222  0.67238539963996
 8  0.52119597349735 -3.48696838563856 -0.50103011841184
 8  1.08707038923892 -4.68104324912491  1.32604859335934
 7 -4.95208375937594  2.62744298099810  1.43405009160916
 6 -4.06000008720872  2.43420143614361  2.52760798659866
 6 -3.85367590479048  3.62952303480348  3.33147209160916
 6 -4.77761351705171  4.55731419691969  2.76500238443844
 6 -5.37911727412741  3.86949162566257  1.59305445734573
 6 -2.91335996089609  3.79832691639164  4.40903477397740
 6 -4.90747344734474  5.97628766296630  3.02297773457346
 8 -4.23814630193019  6.51750658085809  3.86996096859686
 7 -6.88445009460946  2.67025495799580 -0.85249791749175
 6 -6.97218941674167  3.94100450595059 -0.30457866096610
 6 -8.01594673487349  4.61752280908091 -1.21993480258026
 6 -8.39237227002700  3.69424855495550 -2.15244979737974
 6 -7.74879869136914  2.43375154925493 -1.86136990679068
 6 -8.46872915161516  6.03582495219522 -1.14658579317932
 6 -9.45695217361736  3.79086002430243 -3.16096864546455
 6 -8.85728470917092  3.79333069616962 -4.51528477517752
 7 -6.45356112341234 -0.15586076627663 -1.12806382678268
 6 -7.39485309200920 -0.09797070267027 -2.18760468306831
 6 -7.49526264286429 -1.40027518021802 -2.74712773737374
 6 -6.58599408310831 -2.12107588088809 -2.02803201310131
 6 -6.02011993549355 -1.42800683018302 -1.06387425212521
 6 -8.55825119981998 -1.68319810841084 -3.88503942334233
 6 -6.14851847894789 -3.56597570357036 -1.98977437133713
 8 -6.58658189878988 -4.58360333043304 -2.50091033673367
 6 -5.03413366686669 -3.54416618331833 -0.91177779857986
 6 -5.36874400200020 -4.58411361296130  0.14359151015102
 8 -5.66846102870287 -4.38289422282228  1.31368848914891
 8 -5.20496045924592 -5.72562644674467 -0.33680785218522
 6 -5.52875622482248 -6.84138772987299  0.49763729852985
 6  2.36524320592059 -4.98551481168117  0.68284626592659
 6  3.44222753285329 -4.04547604690469  0.93843512931293
 6  4.03384248794880 -3.18634845574557  0.08653102810281
 6  3.77890278757876 -3.13624681308131 -1.35447311611161
 6  5.19819402540254 -2.26774104230423  0.61923377427743
 6  6.54093969866987 -2.50019497249725  0.02600292619262
 6  7.64457358405841 -1.68206985278528  0.40734456905691
 6  9.03770237873787 -1.95540152215222 -0.03599031223122
 6  9.52448952905291 -3.46933683618362  0.09493261826183
 6  10.10802623822382 -0.97314793569357  0.43471143454345
 6  11.46386954425443 -0.92460525562556 -0.27927323792379
 6  12.31644926552655  0.21632082258226  0.20872166036604
 6  13.60828022212221  0.40391007790779 -0.65029478667867
 6  14.59891806480648 -0.70220095009501 -0.26265295049505
 6  14.26734667286729  1.78778355055506 -0.33853149554956
 6  15.62646192709271  2.11137307260726 -0.97542465016502
 6  16.11800141984198  3.56727923792379 -0.66079717271727
 6  17.52859725442544  3.81075999149915 -1.37163821162116
 6  17.39889887198720  3.79776533923392 -2.89760208020802
 6  18.07604102330233  5.13835196119612 -0.73571452845285
 1 -2.84185969186919  1.24156101970197  3.61345895709571
 1 -6.43695457835783  5.57455365756576  0.89051881458146
 1 -8.92719791889189  1.30668492999300 -2.90850623152315
 1 -3.49632669786979 -3.20110322702270  1.77533327542754
 1 -1.91690277627763 -1.18154576277628  2.45827799379938
 1 -2.75775510071007 -2.62959954085409  4.24135408130813
 1 -3.16829342944294 -0.83927604530453  4.67837397329733
 1 -4.36325800160016 -1.79324724272427  3.92892611521152
 1 -2.23594075967597 -3.40539358435844 -0.07800553515352
 1 -1.41659235893589 -1.61216984438444 -0.15203436213621
 1 -0.58271266136614 -2.97119709200920  2.50056459755976
 1 -1.36430590919092 -4.39837667396740  1.69033807050705
 1 -1.91363001510151  3.53255794249425  4.02585496659666
 1 -2.78665631963196  4.68011765086509  4.91624728762876
 1 -3.21234116661666  3.10224341844184  5.31627860466047
 1 -5.79481334063406  6.42928091059106  2.41104322012201
 1 -10.19787376987699  2.96229338123812 -3.09099025362536
 1 -10.00021750465047  4.63002053655365 -2.83624661726173
 1 -9.69845560646065  3.68331623162316 -5.34626093669367
 1 -8.48782274827483  4.80613255385539 -4.61560124192419
 1 -8.22213248814882  2.87575188908891 -4.65595971067107
 1 -8.06288286988699 -1.14835809350935 -4.90791076007601
 1 -8.51537116501650 -2.71959902020202 -4.32484182808281
 1 -9.43869711881188 -1.40210684528453 -3.57118140324032
 1 -3.99720149614962 -3.59302512551255 -1.50705563566357
 1  2.38980692449245 -5.87690498359836  1.24300268816882
 1  2.20135346194619 -5.31717024342434 -0.46185162026203
 1  3.70552653505351 -4.14076419871987  2.05647401150115
 1  2.81324877677768 -3.37131868676868 -1.51208385848585
 1  3.65640297829783 -2.14152885348535 -1.73541175867587
 1  4.43845635303530 -3.71334319061906 -1.97074853215322
 1  5.00564443344334 -1.18595414001400  0.31959235033503
 1  5.22908526692669 -2.13808812601260  1.75315920222022
 1  6.79945916591659 -3.57205150465046  0.24442376407641
 1  6.47523636313631 -2.63541575757576 -1.18764845104510
 1  7.49870067166717 -0.59804635893589  0.29244799809981
 1  7.82066097629763 -2.00430867936794  1.60005747814781
 1  9.07772367196720 -1.83625166586659 -1.09772799149915
 1  8.66048821422142 -4.33361222112211 -0.26311878207821
 1  10.45777880728073 -3.39048240294029 -0.32181976387639
 1  9.64716146374638 -3.68711444004400  1.16944790779078
 1  9.54809587048705  0.07656606700670  0.16781595599560
 1  10.11505046364636 -1.05563388268827  1.52601353865386
 1  11.88979091019102 -1.99515683738374 -0.03401270907091
 1  11.36310225042504 -0.85548718421842 -1.40565140884088
 1  11.89219923802380  1.30207327912791  0.01005379497950
 1  12.66894765346535  0.01488277157716  1.34212338743874
 1  13.37300804310431  0.30823556635664 -1.80064626942694
 1  14.76469669686969 -0.70838385568557  0.68388348584859
 1  14.07872825932593 -1.66018919781978 -0.44013026712671
 1  15.31744160066007 -0.65732906060606 -0.77764016701670
 1  13.45907515311531  2.48182648184818 -0.50414029132913
 1  14.15813342554256  1.82685910041004  0.77091591889189
 1  16.37439616671667  1.36380184168417 -0.59611742674267
 1  15.58403319881988  1.98482673407341 -1.99028255915592
 1  15.54174563666367  4.36917012471247 -1.00177145714571
 1  16.24605423932393  3.58435439483948  0.41975443424342
 1  18.29617943474348  3.07484099259926 -1.03767815571557
 1  16.73991112791279  4.62650992989299 -3.33293757265727
 1  18.30990338023802  4.00737713091309 -3.28360579417942
 1  17.22653733903390  2.82401731293129 -3.06172672587259
 1  18.12495036903690  4.96462711571157  0.51815098079808
 1  19.05234284508451  5.27663388988899 -1.23189533063306
 1  17.44306687648765  5.96879128922892 -0.89558791089109
 1 -5.31464934953495 -7.68385948534853 -0.04170848684868
 1 -6.59409990129013 -6.86645602700270  0.88435827912791
 1 -5.06517873527353 -6.86957683388339  1.33618648704871
 8 -7.87276017131713  6.84729476087609 -0.47961138953895
 1 -9.37132051585159  6.29785720142014 -1.86513498099810

