%nproc=3
%Mem=2GB
# td=(NStates=1) iop(3/107=0140000000,3/108=0140000000) iop(3/107=0140000000,3/108=0140000000) CAM-B3LYP/6-31G(d,p) 

TD

0 1
12 -5.58648437963796  1.22039206690669  0.19550221902190
 6 -4.85473559535954 -2.10756472117212 -0.40098316341634
 6 -3.30172163206321  1.20273281478148  2.69719115731573
 6 -6.22165858815882  4.59355737883788  0.71105346654665
 6 -7.96586750475048  1.18078676107611 -2.35785987988799
 7 -4.32365945044504 -0.30083600670067  1.08601876887689
 6 -4.22291751215122 -1.56404758615862  0.75673939243924
 6 -3.17632903460346 -2.27417861646165  1.60665625422542
 6 -2.98597275267527 -1.32134280398040  2.67066385298530
 6 -3.52371917191719 -0.07850700330033  2.23194385298530
 6 -3.51450355835584 -1.84449114171417  4.04819267866787
 6 -1.95792063536354 -2.60505449864987  0.82901708780878
 6 -0.92407016991699 -3.52441752965297  1.45580945784578
 6  0.26492235963596 -3.87343221532153  0.65711387248725
 8  0.47515136903690 -3.36459614841484 -0.41521153655366
 8  1.02048373057306 -4.72944808960896  1.29646563506351
 7 -4.89639819081908  2.65437567426743  1.40534722132213
 6 -3.92435652285229  2.41489950595059  2.38545377117712
 6 -3.58504904210421  3.60940102260226  3.13091203560356
 6 -4.48895465116512  4.64926339183918  2.47699358355836
 6 -5.24970433283328  3.95863053955396  1.47169232113211
 6 -2.72787141204120  3.81611869556956  4.23424729522952
 6 -4.63270597059706  5.96610664486449  2.86988242504250
 8 -3.97455994329433  6.62976780698070  3.65525949844984
 7 -6.84630628022802  2.60779871237124 -0.70382305000500
 6 -6.93128532633263  3.93763416891689 -0.30212841594159
 6 -7.92731787198720  4.66253731053105 -1.22969577867787
 6 -8.41648468126813  3.63961309140914 -2.06825137753775
 6 -7.72240605210521  2.44149232333233 -1.77698146794679
 6 -8.32857513621362  5.99926129582958 -1.11202233683368
 6 -9.43806028442844  3.87393833213321 -3.11724427302730
 6 -8.88856783748375  3.99357072017202 -4.53064631133113
 7 -6.39037480478048 -0.19058423862386 -1.08958997939794
 6 -7.27158076477648 -0.06366727232723 -2.10169609220922
 6 -7.63216633323332 -1.39941509420942 -2.61705473007301
 6 -6.61527701140114 -2.25451922522252 -2.02250146004600
 6 -5.92531045454546 -1.44841887138714 -1.04054191889189
 6 -8.47171254595460 -1.54604439303930 -3.78844976437644
 6 -6.16856048314831 -3.64810391639164 -2.05649104300430
 8 -6.39997323792379 -4.58689365946595 -2.81169141484148
 6 -4.91990224372437 -3.58753051975198 -1.01972859365937
 6 -5.27499462706271 -4.61163636523652  0.10638778977898
 8 -5.68652283488349 -4.36315224862486  1.20404752505251
 8 -4.90656061926193 -5.79185306940694 -0.33154732613261
 6 -5.37099044824482 -6.96006959805981  0.35238277307731
 6  2.12613929552955 -5.16054231443144  0.61081906320632
 6  3.29423273337334 -4.23502500180018  0.98986027182718
 6  3.92336143984398 -3.40574039493949  0.15890826582658
 6  3.70174507180718 -3.21549473787379 -1.34446211501150
 6  5.08466267226723 -2.44066833503350  0.68544039493949
 6  6.49394499919992 -2.67983293629363  0.06007633353335
 6  7.54830395709571 -1.76160780658066  0.68103193779378
 6  8.90434904340434 -1.95163114511451 -0.02763947714771
 6  9.44384146424642 -3.25874577707771  0.16587971297130
 6  9.88343377897790 -0.84237485838584  0.42594055745575
 6  11.25578873617362 -0.88727152225223 -0.23918922952295
 6  12.08351597219722  0.26171536203620  0.18080886908691
 6  13.47845723982398  0.43113280018002 -0.57946770397040
 6  14.40275844884489 -0.75426615661566 -0.26872355755576
 6  14.15647558575858  1.72235700790079 -0.23419106150615
 6  15.44944422532253  2.06909884518452 -0.98905601330133
 6  16.05657527722772  3.51495400540054 -0.67996908990899
 6  17.29205360006000  4.01576049154916 -1.37218826662666
 6  17.14852383448345  4.07920348304831 -2.99099141914191
 6  17.85068848804880  5.22693081908191 -0.79952090909091
 1 -2.56474198009801  1.29404626822682  3.64623223442344
 1 -6.57031791469147  5.60936713891389  0.60023978667867
 1 -8.65923112221222  1.13289755125513 -3.16249163006301
 1 -3.45646271147115 -3.11864498119812  1.97754349644964
 1 -1.91650273627363 -1.17232484068407  2.98139030503050
 1 -3.02513183838384 -2.86403298419842  4.29807975387539
 1 -3.38209480958096 -1.13213533123312  5.00419655555556
 1 -4.54159583538354 -2.15468338633863  3.99462268486849
 1 -2.36577374297430 -2.95336838183818 -0.15282301690169
 1 -1.46695739543954 -1.70195882328233  0.35552639393939
 1 -0.83049743984398 -2.93418339063906  2.21462600370037
 1 -1.38319779837984 -4.39502633893389  1.99809884658466
 1 -1.81237989008901  3.64673936063606  3.93242562366237
 1 -2.87657531153115  4.86220585968597  4.49624528742874
 1 -3.00529046154615  3.00410360446045  5.05296227302730
 1 -5.52600645994599  6.51353933643364  2.25974809060906
 1 -10.34515849834983  3.14640179207921 -3.11302245684568
 1 -10.04373185608561  4.72338987348735 -2.76855984858486
 1 -9.85528128902890  4.39328722872287 -5.18579489008901
 1 -8.00694466046605  4.69610155075508 -4.29792947474747
 1 -8.35549582448245  3.04736905080508 -4.91016513121312
 1 -8.25256183778378 -0.97204046174617 -4.47093706270627
 1 -8.55302493039304 -2.41797885818582 -4.20512985688569
 1 -9.63415666476648 -1.42086872147215 -3.63127741284128
 1 -4.01714349034904 -4.01164698769877 -1.44934986508651
 1  2.41283922772277 -6.09306659975998  0.94388277617762
 1  2.02275560216022 -5.07835636203620 -0.47500293539354
 1  3.61147713011301 -4.45490561286129  2.03644200830083
 1  2.80880833273327 -3.75169672457246 -1.84771742184218
 1  3.78205554355436 -2.09905460606061 -1.57623584108411
 1  4.53392589999000 -3.84099595589559 -1.80265172247225
 1  4.78485235423542 -1.45860140474047  0.35392578367837
 1  4.91569392779278 -2.57886220342034  1.70592447874787
 1  6.87066628662866 -3.69772407190719  0.34181350305031
 1  6.60172901240124 -2.46692890889089 -1.19221890809081
 1  7.27522832443244 -0.56325287958796  0.43314206750675
 1  7.44852376257626 -1.76970521902190  1.74400187258726
 1  8.69057495709571 -2.02106014671467 -1.15947416611661
 1  8.95213737913791 -4.22668152805281 -0.13492596279628
 1  10.38869189858986 -3.43875723042304 -0.61208879077908
 1  9.92436918451845 -3.36618234683468  1.22180314331433
 1  9.28174923582358  0.06903531393139  0.29908908330833
 1  9.94436339493949 -0.90823914321432  1.58508944624462
 1  11.93316524762476 -1.74500182188219 -0.17815712351235
 1  11.11717765796580 -0.76780841634163 -1.39797064076408
 1  11.59145916401640  1.31521459325933  0.19028181778178
 1  12.15839659835984  0.09217050035003  1.31469064416442
 1  13.33675441774177  0.55640038283828 -1.66265247004700
 1  14.65727595479548 -0.66110912821282  0.77132222972297
 1  14.14712509900990 -1.73795697459746 -0.66620287438744
 1  15.42463231973197 -0.51658498619862 -0.63992639563956
 1  13.38984823042304  2.70119841904190 -0.33390326762676
 1  14.28103571577158  1.80083649814981  0.87755658295830
 1  16.35206393349335  1.31112657415742 -0.96743455845585
 1  14.89766456195620  2.02723097449745 -1.81242477337734
 1  15.39778124022402  4.22101530923092 -0.88269954995500
 1  16.27898753265326  3.62066802620262  0.47991044984498
 1  18.08371818861886  3.08389189768977 -1.26751113901390
 1  16.33282041884188  4.90712799169917 -3.19872415131513
 1  17.91970436033603  4.22808920212021 -3.60944837843784
 1  16.80129481478148  3.10272518371837 -3.29649020222022
 1  17.92838071207121  5.16244689768977  0.31808097379738
 1  18.89723733453345  5.42845907240724 -1.03222536363636
 1  17.25224779457946  6.20982539263926 -0.85598395049505
 1 -5.10962884748475 -7.86438753815381 -0.28540285628563
 1 -6.53582407370737 -6.81721110251025  0.55157500080008
 1 -4.68832104950495 -7.14146402260226  1.26913978237824
 8 -7.73666656195619  6.78610864226423 -0.30636406480648
 1 -9.00209359315932  6.42691010671067 -1.75793426092609

