%nproc=3
%Mem=2GB
# td=(NStates=1) iop(3/107=0140000000,3/108=0140000000) iop(3/107=0140000000,3/108=0140000000) CAM-B3LYP/6-31G(d,p) 

TD

0 1
12 -5.62673840504050  1.30681070877088  0.22549521832183
 6 -5.03337345914591 -2.14939890459046 -0.29492255735574
 6 -3.27946940684068  1.24463700520052  2.69586102430243
 6 -6.00316673897390  4.60163818691869  0.48591095229523
 6 -7.94495541354135  1.16710539293929 -2.33810790469047
 7 -4.36799388388839 -0.30589651275128  1.01990215721572
 6 -4.20958617901790 -1.61916309770977  0.66211993049305
 6 -3.17983938563856 -2.26757795639564  1.44988057665767
 6 -2.83658781418142 -1.31462213191319  2.61072785938594
 6 -3.49126592659266 -0.01127027962796  2.11312197079708
 6 -3.45906801480148 -1.94299099169917  3.99410727012701
 6 -2.00847569086909 -2.67641163436344  0.65606979307931
 6 -0.94168193109311 -3.53885897379738  1.39161303820382
 6  0.28474434183418 -3.93383825592559  0.63123128422842
 8  0.58062191609161 -3.59896958575858 -0.51255127052705
 8  1.07371905410541 -4.83852899769977  1.24753074157416
 7 -4.83056160716072  2.62765300200020  1.49747643424342
 6 -3.94906899409941  2.48044606060606  2.48512373817382
 6 -3.63368390559056  3.72874295679568  3.12316126052605
 6 -4.39511526722672  4.67581604710471  2.45849173337334
 6 -5.12472183458346  3.95773044954495  1.47167231913191
 6 -2.83676230113011  3.81786887058706  4.40376424692469
 6 -4.55380808080808  6.09595963016302  2.77817325412541
 8 -3.94973746104611  6.70319514971497  3.66078005050505
 7 -6.78375002460246  2.63058099059906 -0.68552121982198
 6 -6.92785498329833  3.98457886338634 -0.33637184028403
 6 -7.85035017521752  4.60249130593059 -1.19351216031603
 6 -8.38119115191519  3.72971210131013 -1.94848940134013
 6 -7.66088990049005  2.47152532663266 -1.74356812661266
 6 -8.15428770747075  6.05315668536854 -1.15883701830183
 6 -9.42738921732173  3.86168710701070 -3.06998954755476
 6 -8.88114709540954  3.99519088218822 -4.53066631333133
 7 -6.35924169146915 -0.09596477667767 -1.05032605300530
 6 -7.34631823852385 -0.00476138173817 -2.04435035763576
 6 -7.49253236983698 -1.31033618631863 -2.69163218781878
 6 -6.62312779647965 -2.16974074737474 -2.11817102700270
 6 -5.93033095659566 -1.46559058855886 -1.08764662936294
 6 -8.45312068676868 -1.63668345694569 -3.74867578697870
 6 -6.20161378847885 -3.52777188318832 -2.00006540044004
 8 -6.52994623522352 -4.49030400050005 -2.74780502620262
 6 -5.15756601010101 -3.62897466416642 -0.86417303810381
 6 -5.34684181178118 -4.63346854845485  0.14259141014101
 8 -5.70977516011601 -4.41723765716572  1.32102922322232
 8 -5.11513147634763 -5.86451033513351 -0.37667183858386
 6 -5.40096344554455 -6.91645523662366  0.54457199199920
 6  2.34263094469447 -5.16737299749975  0.70316829812981
 6  3.27406071617162 -4.22472397169717  0.98424971077108
 6  4.01377048074808 -3.44935475637564  0.12431480648065
 6  3.70480537783778 -3.39870305870587 -1.37553522232223
 6  5.12829703570357 -2.49124339253925  0.56869872077208
 6  6.48552415711571 -2.78695364836484 -0.04528420252025
 6  7.61932105880588 -1.92842448824882  0.49739357395740
 6  9.03318192669267 -2.21866784878488 -0.00543725692569
 6  9.64158123822382 -3.50291019351935  0.28995212021202
 6  9.96356179177918 -1.02182280318032  0.42392035543554
 6  11.35767892519252 -0.89416221132113 -0.21273658425843
 6  12.12914053465347  0.27798698919892  0.27161794999500
 6  13.37412680678068  0.48906859375938 -0.49547930513051
 6  14.47544571757176 -0.62318304830483 -0.10109679487949
 6  14.02141207940794  1.89824459665967 -0.24823246564656
 6  15.29030831173117  2.18334026932693 -1.01698880658066
 6  15.78284790449045  3.56315882588259 -0.68226931993199
 6  17.19011340604060  4.00620953645365 -1.41688273607361
 6  16.97555653775377  4.34845040774077 -2.95557787778778
 6  17.59018243744374  5.31362948894890 -0.74228518551855
 1 -2.56600210611061  1.15242210581058  3.46691430263026
 1 -6.31200208310831  5.52145834803480  0.58449821252125
 1 -8.58297349644964  1.09468372987299 -3.06063144404440
 1 -3.68538560376038 -3.23156627332733  1.77871361346135
 1 -1.55562664866487 -1.14268187638764  2.73761592759276
 1 -2.91175050025003 -2.80830741164116  4.23460340624062
 1 -3.08925552565257 -1.09285140284028  4.79335547144715
 1 -4.56983865966597 -2.20032795079508  3.90772399499950
 1 -2.42621978757876 -3.22061510651065 -0.35055278987899
 1 -1.43101380108011 -1.56288491589159  0.23724456575658
 1 -0.85303969406941 -3.10094006630663  2.27165170627063
 1 -1.29158863746375 -4.57187402370237  1.71427046374637
 1 -1.64625327742774  3.48959364606461  4.27332971407141
 1 -2.76364401840184  4.91292093119312  4.68223388628863
 1 -3.18041797429743  3.13404659875988  5.24424140094009
 1 -5.35694955425542  6.64835281778178  2.28422053785379
 1 -10.09044302680268  2.98361551345135 -3.09512066666667
 1 -10.07191467436744  4.55560309480948 -2.90403339593959
 1 -9.68978473937394  4.03943184318432 -5.32759907050705
 1 -8.32604657065706  4.92988492909291 -4.86843652545255
 1 -8.18535881078108  3.19443375727573 -4.83024713941394
 1 -8.28613519511951 -1.09237249494950 -4.82244221322132
 1 -8.53525315321532 -2.65701276157616 -4.00302964686469
 1 -9.57531078017802 -1.38343497809781 -3.24676896199620
 1 -4.29849162516252 -3.88202402540254 -1.66018094819482
 1  2.63579152295230 -6.31394868796880  1.18482687058706
 1  2.07835116171617 -5.33462198859886 -0.33904934003400
 1  3.50624660706071 -4.14207432973297  2.10669903400340
 1  2.65522297419742 -3.56027758265827 -1.55447809790979
 1  4.13667100510051 -2.34924962556256 -1.74735295279528
 1  4.38183069046905 -4.08161001730173 -1.94384584188419
 1  4.85438930793079 -1.65370091469147  0.14385477657766
 1  4.89986234463446 -2.66842115931593  1.53211709800980
 1  6.85364458445845 -3.87305160466047 -0.11960263856386
 1  6.48890773027303 -2.41556377237724 -1.07525721192119
 1  7.38825962756276 -0.87359391369137  0.25841459475948
 1  7.66741565176518 -2.03430167866787  1.56515398779878
 1  9.13869976957696 -2.01466950765077 -1.02003022172217
 1  8.87914007940794 -4.45311417131713 -0.03638610881088
 1  10.64050708010801 -3.75598895359536 -0.18185576747675
 1  9.89751649924992 -3.39513524212421  1.32482344534453
 1  9.32283334423442 -0.04765635523552  0.36221539593959
 1  10.00095905450545 -1.15688400770077  1.73312424972497
 1  11.90141207230723 -1.72615993769377  0.01549224142414
 1  11.22730867106711 -1.01361299679968 -1.31681252495250
 1  11.61204122222222  1.24000707250725  0.16525931553155
 1  12.29459021772177  0.24519580288029  1.40341951705171
 1  13.12743348564856  0.39238398119812 -1.59962616741674
 1  14.76147637483748 -0.47195021232123  0.91503660116012
 1  14.00157054355436 -1.60717389628963 -0.30870712481248
 1  15.37897775427543 -0.53052638033803 -0.77265966896690
 1  13.32581182678268  2.72997129632963 -0.24748462576258
 1  14.23026063826383  1.92230864536454  0.82881170847085
 1  16.12914164126413  1.48705416691669 -0.82726054105411
 1  14.89933472897290  2.31749000040004 -2.02980651155116
 1  14.94370583268327  4.43298650635063 -0.89238051805180
 1  16.07625725962596  3.51032699209921  0.42237469626963
 1  17.88295811261126  3.22491600010001 -1.10970535843584
 1  16.36324346114611  5.26501378027803 -3.05275955485549
 1  17.89973236313631  4.48787518071807 -3.40171760536054
 1  16.42615730103010  3.55684059525953 -3.65816636983698
 1  18.14699257325733  5.20285093809381  0.29435860156016
 1  18.48431604240424  5.89862608910891 -1.34296643774377
 1  16.81882445224522  6.21214562466247 -0.86279463156316
 1 -5.15539342394239 -7.78849994939494 -0.09858417441744
 1 -6.39105959725973 -6.96201558295830  0.83379322262226
 1 -4.92129434683468 -6.98864874107411  1.40726359475948
 8 -7.81425432073207  6.82057208860886 -0.38727215561556
 1 -8.91809519331933  6.51845926162616 -1.88476694419442

