%nproc=3
%Mem=2GB
# td=(NStates=1) iop(3/107=0140000000,3/108=0140000000) iop(3/107=0140000000,3/108=0140000000) CAM-B3LYP/6-31G(d,p) 

TD

0 1
12 -5.58149388058806  1.22085211291129  0.14591726052605
 6 -4.98459858165817 -2.09703366806681 -0.38370143524352
 6 -3.41831329122912  1.22295483698370  2.67511895009501
 6 -6.29759618191819  4.56732475557556  0.59840220142014
 6 -8.10291120912091  1.11714039643964 -2.35870996489649
 7 -4.45372245674568 -0.24975089818982  1.05993616061606
 6 -4.23097831823182 -1.56862804420442  0.59826354485449
 6 -3.18524992669267 -2.23059425802580  1.49449503810381
 6 -2.88973312871287 -1.25977664736474  2.67394418101810
 6 -3.65271207120712 -0.02129128172817  2.15107576617662
 6 -3.49610171817182 -1.68558525112511  4.03210106950695
 6 -1.99552439573957 -2.71407540074007  0.65468965506551
 6 -0.98627639053905 -3.59732482038204  1.43208708560856
 6  0.29626549394939 -3.92926779887989  0.56650481158116
 8  0.53501735563556 -3.60345003380338 -0.56643665906591
 8  1.14311599379938 -4.78597374217422  1.29393538203820
 7 -4.81796034703470  2.69338957565757  1.34272095869587
 6 -3.97117120432043  2.46464448044804  2.30971619741974
 6 -3.72768330553055  3.67387747024702  3.16264520892089
 6 -4.49246500220022  4.73142160766077  2.45375125932593
 6 -5.13369273167317  3.98795347184718  1.39538469036904
 6 -2.76542516741674  3.77275435913591  4.22527639813981
 6 -4.57414011401140  6.09069910411041  2.76851228802880
 8 -3.99858234553455  6.51875670587059  3.70598457095710
 7 -6.89442109170917  2.57674560706071 -0.72747541524152
 6 -6.98657085488549  3.97629803530353 -0.30733893699370
 6 -8.00742588278828  4.65177623442344 -1.22678548764876
 6 -8.50611364416442  3.67081621172117 -1.96872142454245
 6 -7.79733354485449  2.40215838993899 -1.72528629842984
 6 -8.57851012971297  5.98914028372837 -1.00190132473247
 6 -9.53806028442844  3.76189712801280 -3.07702025062506
 6 -8.90195917661766  3.98543990709071 -4.48746199289929
 7 -6.37757352465246 -0.05437061726173 -1.15369639003900
 6 -7.40159376607661 -0.03969487508751 -2.05260118271827
 6 -7.61080419701970 -1.29456460916092 -2.69002202680268
 6 -6.68173365706571 -2.11864563786379 -2.00523973387339
 6 -6.02232015551555 -1.30780480998100 -1.01437930263026
 6 -8.57018239293929 -1.73260304890489 -3.69220013941394
 6 -6.19674330143014 -3.53666277227723 -2.03044843874387
 8 -6.63151639223922 -4.47518248834884 -2.61028127382738
 6 -5.08951920542054 -3.51974374107411 -0.95257187798780
 6 -5.35987311491149 -4.61395659725973  0.07150430143014
 8 -5.66651083368337 -4.44773070647065  1.20918803910391
 8 -4.80774073727373 -5.84656854095410 -0.37610178157816
 6 -5.23252660186019 -6.91212480358036  0.46066360116012
 6  2.38776545814581 -5.09485574577458  0.62668064936494
 6  3.41442475257526 -4.16118761806181  1.11411269706971
 6  4.04478358205821 -3.31130095099510  0.21018339333933
 6  3.59844474177418 -3.23186637503750 -1.28413608240824
 6  5.18962316831683 -2.49092336053605  0.72918476937694
 6  6.56538214291429 -2.83671862486249  0.08639896579658
 6  7.63687281398140 -1.86229787558756  0.54382821742174
 6  8.97075568406841 -1.97351333333333 -0.05779249244924
 6  9.60601768186819 -3.35463536603660  0.06742986798680
 6  9.95397083268327 -0.91184180508051  0.36111407480748
 6  11.33212636993699 -0.82201499659966 -0.26743205380538
 6  12.25301292189219  0.19489868036804  0.19615040324032
 6  13.65864525862586  0.37686737363736 -0.50318007520752
 6  14.48332650565056 -0.76378710871087 -0.24430111531153
 6  14.36391632983298  1.75282005420542 -0.11606924932493
 6  15.52953223412341  2.16046798209821 -0.99231633933393
 6  16.09569918961896  3.50319282928293 -0.64781587458746
 6  17.45580997569757  3.95104401990199 -1.37801884968497
 6  17.20471945404541  4.08679424212421 -2.82891521152115
 6  17.90886430563056  5.23278140414041 -0.74031498849885
 1 -2.73245875177518  1.14869173277328  3.62234984618462
 1 -6.46689757265727  5.64277047924792  0.67338710141014
 1 -8.85874107320732  1.16397065856586 -3.14132951385139
 1 -3.60898796399640 -3.29983310001000  1.80819656175618
 1 -1.82134322032203 -1.04561216941694  3.09258142414241
 1 -2.95213453865387 -2.50893747464746  4.34888483438344
 1 -3.48118471857186 -0.89234135183518  4.72952908880888
 1 -4.45610728652865 -1.83500141814181  3.82705592819282
 1 -2.37777494309431 -3.29374241924192 -0.15205293989399
 1 -1.52834353405340 -1.87346597399740  0.22649349064906
 1 -0.70440483058306 -3.07737771007101  2.29004354545455
 1 -1.38202768136814 -4.60406724302430  1.68964800150015
 1 -1.76731538363836  3.26130081678168  3.96629901100110
 1 -2.81300895489549  4.60166980608061  4.66120178307831
 1 -3.16508644114411  3.20554374847485  5.05414239103910
 1 -5.20392425172517  6.91854983748375  2.07194931073107
 1 -10.10432441494149  2.85769292119212 -3.16845800040004
 1 -10.17340482338234  4.67191472597260 -2.89264225682568
 1 -9.67692345324532  3.93308120812081 -5.04716102670267
 1 -8.22078604460446  4.96808874947495 -4.62119180098010
 1 -8.28905918081808  3.07108142204220 -4.77305141984198
 1 -8.40825740734073 -1.18794205190519 -4.63151312031203
 1 -8.73509313721372 -2.80359742004200 -3.62802214611461
 1 -9.67857110621062 -1.48144477907791 -3.26273055815582
 1 -4.46179795579558 -3.99377520052005 -1.56654158425843
 1  2.49227717151715 -6.08810610371037  1.12488087598760
 1  2.06543987058706 -5.34857338373837 -0.50810624572457
 1  3.69969595199520 -4.36618674097410  2.07571593569357
 1  2.50011746364636 -3.37416897179718 -1.18934158425843
 1  3.94926226422642 -2.28007270787079 -1.70927914541454
 1  4.11091359875988 -4.26531838813881 -1.83548500580058
 1  4.90994486348635 -1.33186873147315  0.40777116821682
 1  5.43586594499450 -2.57690200740074  1.72268615491549
 1  6.70279949994999 -3.88460275977598  0.58628795049505
 1  6.44664350385039 -2.83753596959696 -0.95044473067307
 1  7.04299510111011 -0.93105966026603  0.45007376067607
 1  7.78325723592359 -2.08211646014601  1.70035750815082
 1  8.78730463006301 -1.97331537223722 -1.17459567826783
 1  9.00323248864887 -4.20780964086409 -0.25785825602560
 1  10.56697972737274 -3.23401675637564 -0.51134871677168
 1  9.67623437103710 -3.54869059765977  1.09636059905991
 1  9.61216227712771  0.05919432983298  0.32791196559656
 1  10.15687464606461 -1.02078039733973  1.43307424472447
 1  11.88972090319032 -1.72706002770277 -0.29376868466847
 1  10.93336927712771 -0.82824445994599 -1.20704154785479
 1  11.92460247834783  1.25206827862786  0.37412020162016
 1  12.43696445514552  0.08924020732073  1.29407858295830
 1  13.48931967426743  0.60321506430643 -1.65147135193519
 1  14.68691891909191 -0.76343936123612  0.92893799129913
 1  13.98616900340034 -1.67433061196120 -0.80984723882388
 1  15.65877573407341 -0.63718704640464 -0.75885828882888
 1  13.58796804240424  2.52518081728173 -0.19619949724973
 1  14.66292390459046  1.79232564706471  0.84547337463746
 1  16.17371609870987  1.26788224972497 -1.10453826882688
 1  15.19878467396740  2.26305455685569 -2.09911344224422
 1  15.17125858795880  4.20417362506251 -0.76194747474747
 1  16.19810944484448  3.65319127852785  0.53721618041804
 1  18.16747656445645  3.16593010151015 -1.19030341824182
 1  16.33533066986698  4.87282456135614 -3.17598187708771
 1  18.10546293619362  4.18403479667967 -3.23798123172317
 1  16.63863854915492  3.20583549474947 -3.19849040224022
 1  18.12771064506451  5.26316696969697  0.30408957465747
 1  18.76746435723572  5.66554278077808 -1.02832497359736
 1  17.01659422922292  6.00343475357536 -0.84344269636964
 1 -4.71567945254526 -7.73034413381338 -0.00570488648865
 1 -6.38912940424042 -6.76388576997700  0.61457130043004
 1 -4.72770498789879 -6.79857973417342  1.44209707810781
 8 -8.01196409170917  6.83721375277528 -0.23118654705471
 1 -9.33387677147715  6.36239365506551 -1.74725319281928

