%nproc=3
%Mem=2GB
# td=(NStates=1) iop(3/107=0140000000,3/108=0140000000) iop(3/107=0140000000,3/108=0140000000) CAM-B3LYP/6-31G(d,p) 

TD

0 1
12 -5.63882961416142  1.23664369206921  0.23331600040004
 6 -4.95971609340934 -2.10394435913591 -0.47567063216322
 6 -3.49749120902090  1.16000854235424  2.83481491969197
 6 -6.15568199049905  4.53349137223722  0.69453181438144
 6 -8.04505542354235  1.23830251265127 -2.34066816071607
 7 -4.35052213671367 -0.27133305640564  1.05366553355336
 6 -4.22231745214521 -1.56916809820982  0.61576529502950
 6 -3.21508290999100 -2.32070326892689  1.40872646124612
 6 -2.96492064746475 -1.29652032173217  2.63083987058706
 6 -3.53046984698470 -0.02138129072907  2.13856451505151
 6 -3.39481158915892 -1.73157985058506  3.93935179457946
 6 -1.97928277157716 -2.81623561676168  0.56745093119312
 6 -0.92470023292329 -3.60312540044004  1.39914379127913
 6  0.25759162656266 -3.94937981008101  0.59834799589959
 8  0.49024287818782 -3.47795748454845 -0.44544455985599
 8  1.03644532673267 -4.79023416821682  1.32691868036804
 7 -4.86384493549355  2.68692892959296  1.48484517111711
 6 -3.92027611481148  2.41913992999300  2.44833005880588
 6 -3.71214175137514  3.62578266076608  3.11516046044604
 6 -4.47827358305831  4.65055352085208  2.64394027822782
 6 -5.21924128652865  3.98971364786479  1.47279243114311
 6 -2.73916254115412  3.74768185188519  4.24796866736674
 6 -4.54944764476448  6.02073210741074  2.80970640744074
 8 -3.83856634393439  6.63152798299830  3.62648662116212
 7 -6.98008965856586  2.60294822732273 -0.56003867156716
 6 -7.03435563336334  3.94792519801980 -0.26049425252525
 6 -8.00764590479048  4.59098015481548 -1.15032784188419
 6 -8.46598963176318  3.63763289338934 -2.01660621302130
 6 -7.85596940844084  2.35339351345135 -1.61103487328733
 6 -8.30766304500450  6.07583895359536 -1.19406054065407
 6 -9.45961243964396  3.79271020932093 -3.18259080768077
 6 -8.80656963766377  3.90799216231623 -4.53400664736474
 7 -6.34578034533453 -0.10800598079808 -1.15402642304230
 6 -7.31029463616362  0.02274136853685 -2.11007693029303
 6 -7.57534065066507 -1.36624177687769 -2.85171819641964
 6 -6.55631111481148 -2.12926669997000 -2.28536774667467
 6 -5.90664858835884 -1.48525255475548 -1.22097996269627
 6 -8.54149952465247 -1.51793158175818 -3.91000191959196
 6 -6.17011063816382 -3.63207231323132 -2.06388178207821
 8 -6.59767300790079 -4.57425239533953 -2.65389563526353
 6 -5.02109236273627 -3.63019478617862 -0.87858447924792
 6 -5.30708783638364 -4.60312551415142  0.16875402640264
 8 -5.93029721232123 -4.40143607700770  1.19611673197320
 8 -4.86078604180418 -5.81573545764576 -0.21949612101210
 6 -5.28235158435844 -6.88759235033503  0.62260979577958
 6  2.37696437803780 -5.08261452165216  0.62067004830483
 6  3.47240055015502 -4.15452695199520  1.01060234603460
 6  4.05131423512351 -3.25718553945395  0.23525590059006
 6  3.58587348464846 -3.08148133653365 -1.24921259005901
 6  5.21186539253925 -2.41112538073807  0.81509336023602
 6  6.62496810151015 -2.65525047804781  0.13074340024002
 6  7.65944507120712 -1.75840748654866  0.79313314791479
 6  8.94676328482848 -1.94430041204120 -0.05649236243624
 6  9.56472355245524 -3.45552545504550  0.02985611061106
 6  10.01175661126113 -0.81959258015802  0.45754371777178
 6  11.27610076737674 -0.85428822392239 -0.30571588218822
 6  12.17798541914191  0.21701089158916  0.17689847804780
 6  13.58463785788579  0.40830051695170 -0.56865662286229
 6  14.48817699069907 -0.85030576057606 -0.22734942014201
 6  14.20344028222822  1.70768554075408 -0.21649929232923
 6  15.51914119501950  2.00285222052205 -1.10146725442544
 6  16.05340496019602  3.46206871687169 -0.69760085308531
 6  17.33393778847885  3.92104101960196 -1.37590863866387
 6  17.03617259935994  4.15037059975998 -2.88273059305931
 6  17.73368678787878  5.35004313031303 -0.77965892289229
 1 -2.74091959785979  1.07007387098710  3.55908351955196
 1 -6.37470835373537  5.40008621082108  0.75636539923992
 1 -8.86525172427243  1.07613187468747 -2.90268564946495
 1 -3.67153421862186 -3.13193631033103  1.88930467256726
 1 -1.87959904590459 -1.18392600080008  2.61021318731873
 1 -3.03137246244624 -2.64797137803780  4.34769471537154
 1 -3.48396499659966 -0.95209732743274  4.69235537143714
 1 -4.52257393319332 -2.04825274327433  3.89576279887989
 1 -2.22161932753275 -3.14712775777578 -0.33626136073607
 1 -1.76816751645165 -1.68657728512851  0.26583742504250
 1 -0.30750514061406 -3.00514048634864  2.30569511061106
 1 -1.53842332093209 -4.77030386668667  1.59231826852685
 1 -1.65999465156516  3.54788947564756  3.79240162126213
 1 -2.68456611061106  4.71760139923992  4.65153081598160
 1 -2.99487942044204  2.98899209330933  5.03414039083908
 1 -5.12664652395240  6.55420340284028  2.21290340614061
 1 -10.06840082258226  3.10362751465147 -3.30060121472147
 1 -10.20724820772077  4.68285582008201 -3.10047303990399
 1 -9.53037879877988  4.07907580758076 -5.41572788338834
 1 -8.17422138813881  4.91925386598660 -4.64203388518852
 1 -8.14358463336334  3.08413272717272 -4.70303441814181
 1 -8.07699428102810 -1.00000325802580 -4.96252622162216
 1 -8.61100072797280 -2.56588364866487 -4.25026437033703
 1 -9.60467371647165 -1.18882551715171 -3.59286357145715
 1 -4.07042881888189 -3.97495331833183 -1.34404933503350
 1  2.53727167096710 -6.17665495859586  1.06669505740574
 1  2.02015534213421 -5.33893241964196 -0.38461389648965
 1  3.58097407980798 -4.29504962726273  2.07291565566557
 1  2.48598605050505 -3.03890544544454 -1.55916856695670
 1  3.78459579757976 -2.02410711131113 -1.40898911641164
 1  4.31348385578558 -3.38106996329633 -1.95926738403840
 1  4.99829369836984 -1.33763930853085  0.51518190929093
 1  5.29532189058906 -2.54511882908291  1.88310219651965
 1  6.95399461946195 -3.59957425692569  0.45888521022102
 1  6.65630446994699 -2.40613282928293 -1.02209189538954
 1  7.41106190779078 -0.66759331363136  0.67637639093909
 1  7.63546245644564 -1.85460370887089  1.78548602100210
 1  8.55893179277928 -1.52091013171317 -0.90918913761376
 1  8.91569373477348 -3.99137799769977 -0.57034950515052
 1  10.51325435483548 -3.45820917561756 -0.54650223212321
 1  9.80516726432643 -3.63229895849585  1.10341130413041
 1  9.56217727862786  0.19491790219022  0.24738391279128
 1  10.27089604820482 -1.12462078137814  1.37094803210321
 1  11.94288621972197 -1.82566988868887 -0.33432274007401
 1  11.01417735793579 -0.64977661316132 -1.33810465416542
 1  11.63630364846485  1.17762083388339  0.09737252685269
 1  12.49831058975898  0.18513979727973  1.35363453855386
 1  13.26236697899790  0.25975071787179 -1.59407561236124
 1  14.86178640584058 -1.04103712101210  0.82733783128313
 1  13.81565195169517 -1.72111529042904 -0.49382563666367
 1  15.38316817331733 -1.06126945464547 -0.92833523652365
 1  13.54340358595860  2.48555685488549 -0.52008188548855
 1  14.44286189838984  1.51414782928293  0.79901872917292
 1  16.36433516061606  1.28967442894289 -0.98713652865287
 1  15.18513330883088  2.29515776717672 -2.08838236913691
 1  15.15841730383038  4.17341054875487 -0.75420670067007
 1  15.99491912581258  3.58294425382538  0.48875133393339
 1  18.05774559135914  3.26667017551755 -1.04030841874187
 1  16.08746588338834  4.69188646754675 -2.90621490039004
 1  17.90095248514852  4.61379777297730 -3.06161359495950
 1  16.81439612491249  3.27488239943994 -3.47832838603860
 1  17.74582245624562  5.32626327932793  0.39642880858086
 1  18.80725833663366  5.49802602910291 -1.04900704180418
 1  16.85157772757276  6.00647505760576 -0.95927427952795
 1 -5.23695157975798 -7.86196729612961  0.05019070307031
 1 -6.31526201750175 -6.68710809220922  0.84804464776478
 1 -4.71735395279528 -7.00370024622462  1.45078794719472
 8 -8.02020491579158  6.87739777117712 -0.27855128352835
 1 -9.06663004680468  6.42864027972797 -2.05592405990599

