%nproc=3
%Mem=2GB
# td=(NStates=1) iop(3/107=0140000000,3/108=0140000000) iop(3/107=0140000000,3/108=0140000000) CAM-B3LYP/6-31G(d,p) 

TD

0 1
12 -5.64316004720472  1.23844387208721  0.25931860066007
 6 -5.00801092289229 -2.10349431413141 -0.39454251935193
 6 -3.42907436733673  1.15777831933193  2.79726116431643
 6 -6.41002742504250  4.52008003110311  0.71637399859986
 6 -7.95852677067707  1.19426810921092 -2.44479857375738
 7 -4.38401548604860 -0.22898882198220  0.99699986698670
 6 -4.24839005940594 -1.58276945834583  0.64505822432243
 6 -3.13487488918892 -2.23932513111311  1.44267985658566
 6 -2.89045320072007 -1.33930460016002  2.48480526712671
 6 -3.59285608560856 -0.01458061066107  2.14370502910291
 6 -3.49546165416542 -1.80189688228823  3.92729058845885
 6 -1.92244708800880 -2.55686968016802  0.56527071317132
 6 -0.86506426932693 -3.40558564646465  1.40129400630063
 6  0.35481134853485 -3.84414928702870  0.60536869796980
 8  0.52013586748675 -3.44378406720672 -0.54780479587959
 8  1.15718740094009 -4.69966511131113  1.31438742724272
 7 -4.88289684068407  2.62669290599060  1.46832351895190
 6 -4.02379646684668  2.47879589558956  2.50829605540554
 6 -3.82454299149915  3.75400548304831  3.18951789618962
 6 -4.62099785548555  4.62937140264026  2.62852873707371
 6 -5.33342270467047  3.94509918641864  1.51203635553555
 6 -2.71541016591659  3.90086717041704  4.25775964646465
 6 -4.84411711171117  6.02625265946595  3.00374581138114
 8 -4.19356184348435  6.57220205040504  3.91025499799980
 7 -6.95076672627263  2.63984191669167 -0.68142080978098
 6 -7.13548574637464  3.92430283578358 -0.32285048814882
 6 -8.01607674787479  4.67747880468047 -1.22255506460646
 6 -8.50986401920192  3.65641477157716 -2.07593214561456
 6 -7.81862567406741  2.43912208630863 -1.72736650645064
 6 -8.52352463116312  6.01251262096210 -1.16510764536454
 6 -9.44099057745775  3.74383532183218 -3.21017356595660
 6 -8.78313729442944  3.89847121022102 -4.54577782448245
 7 -6.40074584188419 -0.09974515471547 -1.03410443084308
 6 -7.37269087578758 -0.05713661926193 -2.15417133973397
 6 -7.65342845944595 -1.35547069976998 -2.74918794339434
 6 -6.68387387108711 -2.20773454675468 -2.07791700160016
 6 -5.97093501700170 -1.44387841734173 -1.05063292799280
 6 -8.60581595629563 -1.63219300790079 -3.81683260266027
 6 -6.21025465256526 -3.53497260326033 -2.02071746564656
 8 -6.66629987058706 -4.50402537263726 -2.64392463816382
 6 -5.01876212971297 -3.55800756745675 -0.90629725052505
 6 -5.21721884948495 -4.62476767836784  0.09033618461846
 8 -5.66973115571557 -4.43429936333633  1.22744986528653
 8 -5.04004396759676 -5.88622250635064 -0.34194836623662
 6 -5.19316266546655 -6.94495808690869  0.56839437423742
 6  2.37502418401840 -5.09845610581058  0.71705968726873
 6  3.37719102920292 -4.00526202550255  1.05890717651765
 6  4.08926803050305 -3.31802162306231  0.14174654965497
 6  3.83682858015802 -3.25006819521952 -1.24676234503450
 6  5.15728993499350 -2.39643391159116  0.67181903280328
 6  6.53619922462246 -2.71276622962296  0.03222354825483
 6  7.61897102380238 -1.84622626842684  0.50613444804480
 6  8.99563817231723 -2.00402638463846 -0.11590830403040
 6  9.59346642674267 -3.35893579607961  0.16223934893489
 6  10.03417885348535 -0.89256987788779  0.39371733513351
 6  11.48978213551355 -0.87643043814381 -0.28436374697470
 6  12.34656227682768  0.31308049854985  0.15662645084508
 6  13.69912930703070  0.38229791669167 -0.65947570477048
 6  14.44934310731073 -0.87123785378538 -0.46519320452045
 6  14.35211514971497  1.67869264146415 -0.14682232463246
 6  15.48911819271927  2.17067900320032 -1.02086919461946
 6  16.08888850855086  3.53343585358536 -0.62951404440444
 6  17.38147254195420  3.85405432093209 -1.26505755355536
 6  17.35276425852586  3.85690125282528 -2.76936925692569
 6  17.96877029622962  5.21094922092209 -0.79916087308731
 1 -2.57578308420842  1.07729459305931  3.63782139333933
 1 -6.69717059996000  5.51434763696370  1.14049381208121
 1 -8.66912211131113  1.05594985648565 -3.16459184008401
 1 -3.44955202040204 -3.25580869756976  1.87816355845585
 1 -1.87355844184418 -1.11967957615762  2.78371053705371
 1 -3.03334265946595 -2.62726930783078  4.60179012491249
 1 -3.57879447954795 -1.09105122282228  4.66126226212621
 1 -4.63138481428143 -2.13026094409441  3.90230345294529
 1 -2.11352851845184 -3.22167521252125 -0.34767250185018
 1 -1.53088378807881 -1.75694432183218  0.26687752905291
 1 -0.59400379047905 -2.88560853315332  2.09571411251125
 1 -1.27814729332933 -4.24852168846885  1.95156419311931
 1 -1.87368602070207  3.66195088178818  3.85739812091209
 1 -2.81676933093309  4.96263590269027  4.57884354725473
 1 -2.94656458895890  3.26177937203720  5.17203418021802
 1 -5.37973183248325  6.87466544904490  2.19119123492349
 1 -10.10159414191419  2.84898205010501 -3.32293344794479
 1 -10.23667115001500  4.55389292379238 -3.13722671527153
 1 -9.65394115501550  3.96928482848285 -5.61452776337634
 1 -8.20025399139914  4.84220616121612 -4.50069975177518
 1 -8.15038531343134  3.02831714561456 -4.61479559425943
 1 -8.18081466306631 -1.23119637733773 -4.73236320532053
 1 -8.55381500940094 -2.67822488278828 -3.71326066996700
 1 -9.65240848994899 -1.28622525712571 -3.62924720982098
 1 -4.14915669166917 -3.91018684168417 -1.46184111421142
 1  2.49793773757376 -6.06628392149215  1.45446383428343
 1  2.02325565216522 -5.34970349674968 -0.39419485458546
 1  3.56994297669767 -4.06507662996300  2.20145850995100
 1  2.98116556845684 -3.57960951585159 -1.49403205330533
 1  3.62549988798880 -2.07568226882688 -1.32664088158816
 1  4.75244775217522 -3.79821167746775 -1.85687714501450
 1  4.81281515051505 -1.28644418901890  0.52121251235124
 1  5.21446380478048 -2.42869718691869  1.81493537983798
 1  6.79669888988899 -3.82503680318032  0.03468278997900
 1  6.27803664316432 -2.29218143414341 -1.07682736893689
 1  7.52585338693869 -0.81139769406941  0.18284703800380
 1  7.54069297949795 -1.87287553605361  1.64252172457246
 1  8.94561046064607 -1.98667670837084 -1.21701992069207
 1  8.72218438383838 -4.28078693859386  0.11529905970597
 1  10.44040707010701 -3.74062741744174 -0.38395597749775
 1  9.85999274687469 -3.40399612821282  1.26261722472247
 1  9.59169022992299  0.01823023342334  0.13086226062606
 1  10.11832079067907 -1.09308762806281  1.37299823712371
 1  12.01520345144515 -1.76037335903590 -0.20644995279528
 1  11.45499143934394 -0.88679031453145 -1.31280212391239
 1  11.78862888098810  1.16813988578858  0.00421321092109
 1  12.57936869556956  0.03054433773377  1.26608578367837
 1  13.58791953425342  0.44955969876988 -1.80938714351435
 1  14.60236046324633 -1.09257227452745  0.72471756925693
 1  13.84341472797280 -1.74046722562256 -0.96174242834283
 1  15.45202505900590 -0.83309663736374 -1.00188259125913
 1  13.56059530513051  2.60996929612961 -0.06971684898490
 1  14.69035664786479  1.55163157765777  0.88754758205821
 1  16.41018974607461  1.57365282678268 -0.78996681168117
 1  15.36306110161016  2.33656190759076 -1.98109164006401
 1  15.38930039213921  4.11388459615962 -0.80180146014601
 1  16.21652128602860  3.35336129552955  0.48792125092509
 1  18.10463027982798  3.11370487898790 -0.83834822272227
 1  16.23063019981998  4.22817009590959 -3.39610388928893
 1  18.24483687358736  4.39788618181818 -3.10555798939894
 1  17.30147483278328  2.83869878107811 -3.22121267446745
 1  18.46058393239324  4.89288994199420  0.28259742544254
 1  18.74105171597160  5.37539376587659 -1.46611875297530
 1  17.38298086788679  6.17136154625463 -0.88077642974297
 1 -4.81903978857886 -7.86654775417542  0.12159784378438
 1 -6.28897938923892 -7.22555193659366  0.96147599089909
 1 -4.50620283768377 -6.87484736093609  1.47084995339534
 8 -8.03687658295830  6.82846287768777 -0.38846227462746
 1 -9.12508589238924  6.24107152285229 -2.06087455495549

