%nproc=3
%Mem=2GB
# td=(NStates=1) iop(3/107=0140000000,3/108=0140000000) iop(3/107=0140000000,3/108=0140000000) CAM-B3LYP/6-31G(d,p) 

TD

0 1
12 -5.66449218041804  1.16872690039004  0.27651031983198
 6 -5.01736185798580 -2.09241320602060 -0.33499656475648
 6 -3.49505096499650  1.26769931143114  2.84709614781478
 6 -6.30967739003900  4.47072509560956  0.67966032723272
 6 -8.06452737073707  1.11230991339134 -2.40718481238124
 7 -4.39900698519852 -0.30201612471247  1.19737990499050
 6 -4.34360958135814 -1.62891407280728  0.73761748024803
 6 -3.18917031873187 -2.33065426402640  1.58777436603660
 6 -2.99354350975098 -1.37061773147315  2.71324811141114
 6 -3.65375217521752 -0.11227037963796  2.16031669026903
 6 -3.62149425742574 -1.81846853945395  3.98117597699770
 6 -2.00958580188019 -2.67023101630163  0.72522670877088
 6 -0.88724648754876 -3.52258734663466  1.48077195409541
 6  0.26940280768077 -3.84300917301730  0.55979414051405
 8  0.47464131803180 -3.40441012981298 -0.54789480488049
 8  1.03050473267327 -4.73046819161916  1.16913290179018
 7 -4.89871842284228  2.61029126582658  1.49263595019502
 6 -3.99198328552855  2.45970398639864  2.47926315211521
 6 -3.64864540174017  3.76579666216622  3.09509845424542
 6 -4.47120287598760  4.65529399489949  2.48976486068607
 6 -5.17582694509451  3.95648032453245  1.47474262616262
 6 -2.71530015491549  3.89484656835684  4.24753862436244
 6 -4.53951665166517  6.09037907210721  2.84164960176018
 8 -3.84361684898490  6.53300813101310  3.63057703020302
 7 -7.08780042964296  2.56507443994399 -0.70132279998000
 6 -7.01408360616062  3.92901330683068 -0.34463266636664
 6 -8.00286542674267  4.61627268406841 -1.18241105020502
 6 -8.46103913671367  3.69521865196520 -2.09157370977098
 6 -7.90646445794579  2.43893206730673 -1.71289505930593
 6 -8.28319059775978  6.01926329602960 -1.13749488408841
 6 -9.48122460086009  3.86358729702970 -3.11252380098010
 6 -8.78333731443144  3.91535289838984 -4.47872111881188
 7 -6.40375614291429 -0.09674485468547 -1.05754677507751
 6 -7.38070167686769 -0.03805471107111 -2.11742766536654
 6 -7.62468558515852 -1.33248840154015 -2.63403642824282
 6 -6.69906539023902 -2.21876564986499 -1.91313052295230
 6 -5.99209713321332 -1.42952698219822 -0.98419628432843
 6 -8.56517189188919 -1.59344913351335 -3.79172009140914
 6 -6.06323995109511 -3.54728383438344 -2.08540393429343
 8 -6.33754699529953 -4.46082105220522 -2.85877612331233
 6 -5.06808706220622 -3.54502626932693 -0.96231285208521
 6 -5.33119024662466 -4.61545674727473  0.09575672667267
 8 -5.72798698129813 -4.45607154055406  1.19677679797980
 8 -4.98669863306331 -5.82349623372337 -0.44846901830183
 6 -5.31419476867687 -6.99032262336234  0.37308484328433
 6  2.23304998659866 -5.10954721492149  0.50481846314631
 6  3.39327263736374 -4.22582408170817  0.91888317411741
 6  4.03959306300630 -3.36841666256626  0.19523189818982
 6  3.63481837913791 -3.02844603300330 -1.23882155095510
 6  5.25248945494549 -2.58682295049505  0.71206305720572
 6  6.62328793349335 -2.80728568156816  0.06319664556456
 6  7.61513063976398 -1.90900254605461  0.68288212281228
 6  8.99173778227823 -1.94052003400340  0.06434972177218
 6  9.62114919501950 -3.28440834333433  0.34905803080308
 6  9.95793122872287 -0.74995561646165  0.45095305870587
 6  11.18459161646165 -0.67025982108211 -0.15574088468847
 6  12.21835945654565  0.41221041154115  0.18163895209521
 6  13.61461085518552  0.36944663156316 -0.56496625382538
 6  14.53120129312931 -0.84847557755776 -0.33841052625263
 6  14.34760469866987  1.70844561676168 -0.03847148954895
 6  15.47753703460346  2.17887982328233 -1.02803991169117
 6  16.08923854355436  3.55621813181318 -0.64198529152915
 6  17.33954834953495  3.95424433993399 -1.39511055885589
 6  17.06763574567457  4.02719828252825 -2.97643996399640
 6  17.98324174337434  5.20178830483048 -0.95595655265527
 1 -3.02019752565257  1.15046190979098  3.74539215041504
 1 -6.40277116001600  5.34155035723572  0.79112887558756
 1 -8.73805900500050  1.06161042254226 -3.17648302920292
 1 -3.48621568676868 -3.44522763946395  2.03744948704870
 1 -1.98527961396140 -1.13300090829083  2.91932409840984
 1 -3.14310363556356 -2.84851143204320  4.33436338223822
 1 -3.58402500260026 -1.19602171987199  4.65338147404741
 1 -4.70542221802180 -2.12911082908291  3.68398162076208
 1 -2.31525869146915 -3.38369141414141 -0.14840257485749
 1 -1.71696239593959 -1.71475010241024  0.33377421872187
 1 -0.47620201030103 -2.94375434773477  2.26142068316832
 1 -1.18789826842684 -4.57694453075308  1.87937697439744
 1 -1.75184383648365  3.35312999969997  3.90840322142214
 1 -2.61123877787779  4.97297693679368  4.46643230613061
 1 -3.07931786428643  3.16781997609761  5.05889286608661
 1 -5.31742560186018  6.69796777927793  2.13138525432543
 1 -10.15307929042904  2.97386453835384 -2.77377853245325
 1 -10.00368785168517  4.78715625012501 -2.65371836443644
 1 -9.37451321222122  4.23172107210721 -5.38973528412841
 1 -8.06320028602860  4.81694363496350 -4.30686036783678
 1 -8.27172744764477  3.03643795769577 -4.80671478617862
 1 -8.65192177377738 -0.96072933063306 -4.82094206320632
 1 -8.58913854175418 -2.75195225552555 -4.29362870677068
 1 -9.61639488858886 -1.53530016461646 -3.48945323042304
 1 -4.00794257025703 -3.97223304630463 -1.49567449754975
 1  2.63459140294029 -6.25599289238924  0.83313170107011
 1  2.17113043964397 -4.96212473887389 -0.58384381948195
 1  3.74911089348935 -4.49616973927393  2.03931229532953
 1  2.65326277817782 -3.08013956885689 -1.47464011411141
 1  3.87937527552755 -1.92674737533753 -1.56328454595460
 1  4.14951745914592 -3.71473332963296 -1.85004646194619
 1  5.12048591759176 -1.44202974757476  0.49895028612861
 1  5.32027438583858 -2.55381969916992  1.88280216651665
 1  6.89016823682368 -3.84998929842984  0.31930125182518
 1  6.51832067156716 -2.74772698869887 -1.00059974617462
 1  7.33363416501650 -0.72716927122712  0.77290604390439
 1  7.96090500070007 -2.29817806630663  1.67026449884988
 1  9.05862176177618 -2.00724876557656 -1.21287950665066
 1  9.16047821322132 -4.07152601250125 -0.00060253045305
 1  10.71121415081508 -3.42342569726973 -0.19343692559256
 1  9.71394814241424 -3.65555128372837  1.39310027302730
 1  9.48896995789579  0.30063847424743  0.19303847824782
 1  10.06842580118012 -0.56208452775278  1.56433737103710
 1  11.69771170227023 -1.84136145784579 -0.03031233903390
 1  11.07012295249525 -0.83484512001200 -1.32481332503250
 1  11.90718073617362  1.39665273707371 -0.10814802520252
 1  12.19178993769377  0.19530081338134  1.25131430653065
 1  13.38201894419442  0.60159490229023 -1.68733493829383
 1  14.94189441664166 -1.00377339463946  0.74062916041604
 1  14.16996738323832 -1.78511169006901 -0.57284353845385
 1  15.43980383688369 -0.84187751545155 -0.80787319031903
 1  13.66061530713071  2.46062436163616 -0.16772664996500
 1  14.90176778897890  1.69925634013401  0.80769959725973
 1  16.14093282038204  1.18904436593659 -0.97328514351435
 1  15.05550034553455  2.16749500090009 -2.14488801970197
 1  15.30357181928193  4.13142635033503 -0.76813809380938
 1  16.05961559545954  3.65358131753175  0.32015447424742
 1  18.10827064386439  3.15202871137114 -1.25327971587159
 1  16.24094123092309  4.80370764966497 -3.15549982888289
 1  18.00753314321432  4.30440683388339 -3.48266570017002
 1  16.79872455775578  3.13831874307431 -3.47828838203820
 1  18.05402327632763  5.23918457145715  0.18650781648165
 1  18.94035164596460  5.23167939443944 -1.36136827792779
 1  17.51848441824183  6.20103451355136 -1.28160651275128
 1 -4.96400428502850 -7.75843694309431 -0.32992730873087
 1 -6.34602509380938 -7.06897627902790  0.51915175847585
 1 -4.63818603600360 -6.66490636683668  1.22600546894689
 8 -7.76079897519752  6.87019705110511 -0.45968939733973
 1 -9.06041942574257  6.27590500620062 -1.80164863236324

