%nproc=3
%Mem=2GB
# td=(NStates=1) iop(3/107=0140000000,3/108=0140000000) iop(3/107=0140000000,3/108=0140000000) CAM-B3LYP/6-31G(d,p) 

TD

0 1
12 -5.64899063026303  1.22949297699770  0.21987465626563
 6 -4.97855797759776 -2.04447841254125 -0.36817988308831
 6 -3.45763722362236  1.26138868036804  2.86893833203320
 6 -6.25851227352735  4.54726274937494  0.72106446764676
 6 -7.86231714971497  1.12567124952495 -2.44201829572957
 7 -4.40631771627163 -0.26127205030503  1.10348051505150
 6 -4.29935515591559 -1.53936511791179  0.71505522402240
 6 -3.26418782048205 -2.30970216881688  1.50426601520152
 6 -2.91796595199520 -1.32249291899190  2.65919270587059
 6 -3.65090189018902 -0.01553070567057  2.15314597319732
 6 -3.48462057005701 -1.82824951755176  4.11911977137714
 6 -2.11360620392039 -2.72311630483048  0.59318350445045
 6 -1.00872863576358 -3.64473956185619  1.32940681758176
 6  0.21236710411041 -3.86783165526553  0.62216037713771
 8  0.44249810371037 -3.40214990379038 -0.43915393079308
 8  1.00092177437744 -4.69158430323032  1.30825681418142
 7 -4.93316186718672  2.69605984268427  1.59962664926493
 6 -4.03458754595460  2.36160417641764  2.52349757555756
 6 -3.76609714691469  3.62932301480148  3.13832277667767
 6 -4.49008476417642  4.65622408790879  2.51695757995800
 6 -5.18152751515152  3.94246892339234  1.51905705760576
 6 -2.75987461236124  3.94682176587659  4.15330920142014
 6 -4.55647834783478  6.05838587278728  2.92246768356836
 8 -3.81059354665467  6.67970280048005  3.70993496599660
 7 -6.85675732533253  2.60368830133013 -0.65419808750875
 6 -6.99664186198620  3.80955136063606 -0.21709991309131
 6 -7.96789192939294  4.59185024182418 -1.11932474157416
 6 -8.42300533333333  3.64123325342534 -1.96041059345935
 6 -7.71863567506751  2.42085025912591 -1.73064683448345
 6 -8.31322360106011  6.06438780848085 -1.10137127172717
 6 -9.45955243364337  3.75766670497050 -3.09231177977798
 6 -8.70305928662866  4.08145950905091 -4.52206545324532
 7 -6.29205497279728 -0.15461064126413 -1.20897191759176
 6 -7.15982958965897 -0.09180008560856 -2.24091001360136
 6 -7.43524664126413 -1.41055620832083 -2.79883290789079
 6 -6.50057554125413 -2.18264203750375 -2.10638984888489
 6 -5.96589451295130 -1.42816684618462 -1.16740460516052
 6 -8.30712608730873 -1.62167195579558 -3.96606752615262
 6 -6.06873050015002 -3.55361446744674 -2.04321971587159
 8 -6.31280452105211 -4.63178814891489 -2.62444268996900
 6 -4.96947720122012 -3.50423218991899 -0.83617023782378
 6 -5.27800492809281 -4.58931413301330  0.17882503350335
 8 -5.70379456205621 -4.53077901130113  1.20933805410541
 8 -4.81088105130513 -5.81428531263126 -0.35122929432943
 6 -5.19630297949795 -6.99210280138014  0.34568210301030
 6  2.19913659525953 -5.06856311651165  0.62431041234123
 6  3.27109041914191 -4.11195269456946  1.05216650245025
 6  4.02120122382238 -3.39951977287729  0.19181155615562
 6  3.63080797809781 -3.18061124952495 -1.24664233303330
 6  5.01278548454845 -2.48455272347235  0.67514936583658
 6  6.39510511521152 -2.68254320732073 -0.04032370647065
 6  7.48848797549755 -1.74046569236924  0.58256209080908
 6  8.91167977647765 -2.04424040604060 -0.02726944014401
 6  9.40571765186519 -3.36879678217822  0.42665579057906
 6  9.88408384398440 -0.83999462036204  0.38873683708371
 6  11.19887304460446 -0.82852564766477 -0.25791110171017
 6  12.14110173077308  0.38140733123312  0.12420320852085
 6  13.46159555365537  0.51803149004900 -0.62835259245925
 6  14.44563273627363 -0.77771850185018 -0.32931961716172
 6  14.14081401960196  1.73444821702170 -0.22269991239124
 6  15.43899318021802  2.09353128842884 -1.04525163286329
 6  15.91776139583958  3.46798930893089 -0.66342743574357
 6  17.30351474617462  3.93872278777878 -1.41970301810181
 6  17.20637962006201  4.15159072177218 -3.00280260026003
 6  17.82241566076608  5.20994912091209 -0.77600855785579
 1 -2.78919442534253  1.34989185278528  3.75790340154015
 1 -6.36126700960096  5.56027222942294  0.78070783348335
 1 -8.68807400650065  1.18867312881288 -3.18203358425843
 1 -3.73724078927893 -3.30205332203220  1.88033377547755
 1 -1.80017110311031 -1.14953256145615  2.58476064206421
 1 -2.89807913311331 -2.79376595749575  4.31595154105411
 1 -3.13830043014301 -1.22387450515052  4.82166830273027
 1 -4.44030570637064 -1.81966988498850  4.32092531513151
 1 -2.27162432803280 -3.15975902090209 -0.42178991359136
 1 -1.49009970967097 -1.81556018341834  0.23538437973797
 1 -0.65574996509651 -3.22379235153515  2.31652619371937
 1 -1.44272375097510 -4.75177201350135  1.61239027572757
 1 -1.84181283338334  3.79509419611961  3.64748712981298
 1 -3.00491814581458  5.05108474757476  4.48674433733373
 1 -2.61832176467647  3.03973716781678  5.09562653945395
 1 -5.35622948224822  6.54414239673967  2.23445556135614
 1 -10.02459644214421  2.86864401630163 -3.12526368096810
 1 -10.05152263516352  4.57204473897390 -2.91409440204020
 1 -9.47121288218822  4.32953085308531 -5.19032534313431
 1 -8.03655762176218  4.96337827842784 -4.51238091989199
 1 -8.19116939183918  3.18768308220822 -4.84389850455045
 1 -8.08814539613961 -0.82386564426443 -4.82258222722272
 1 -8.29016864476448 -2.59992705300530 -4.02648199209921
 1 -9.51534478357836 -1.18319495409541 -3.63547783288329
 1 -4.17188896489649 -3.70233605660566 -1.61038596869687
 1  2.52860080388039 -6.02555984908491  1.06807519541954
 1  2.12633596019602 -5.25497402380238 -0.44985042014201
 1  3.54777075947595 -4.08577870017002  2.00418878297830
 1  2.53757120902090 -3.34312586748675 -1.55824847494749
 1  3.96726406440644 -2.32211691229123 -1.62563078057806
 1  4.19556206360636 -3.97762961926193 -1.84331578887889
 1  4.68281215021502 -1.44701024562456  0.54195458655866
 1  5.17095945434543 -2.42863718091809  1.87954184048405
 1  6.51775099509951 -3.77168146764676  0.11026034773477
 1  6.45276411591159 -2.62786500250025 -0.99238892509251
 1  7.21272207380738 -0.80605716001600  0.52482123542354
 1  7.52448135833583 -1.90040828932893  1.60173764616462
 1  8.98574447404741 -1.97243528422842 -1.08777699639964
 1  8.72257442284228 -4.24435329522952  0.12516004580458
 1  10.47086011541154 -3.55813916861686 -0.03899148104810
 1  9.70844759235924 -3.67443317191719  1.37984894789479
 1  9.49047010791079  0.13113152355235  0.29536871127113
 1  9.91973093169317 -0.99338765806581  1.32861379867987
 1  11.82405433653365 -1.55084240594059 -0.07503681148115
 1  11.02433837403740 -0.90064169966997 -1.28897974167417
 1  11.69850986908691  1.49108218001800  0.03723651325132
 1  12.53011377007701  0.15290657395740  1.19178835393539
 1  13.35961670397040  0.59762450525053 -1.92643884868487
 1  14.55295552275228 -0.90352336963696  0.74123922142214
 1  13.88335872237224 -1.67446062496250 -0.69999625372537
 1  15.46456631313131 -0.79117244494449 -0.71168357135714
 1  13.36951619721972  2.31167946714671 -0.43828370567057
 1  14.22906051825183  1.61800821532153  0.78779760706071
 1  16.09426815391539  1.39292475397540 -0.97498531353135
 1  15.06046084158416  2.01234948634864 -2.15245877677768
 1  15.12393385548555  4.35472868056806 -0.62819409940994
 1  16.20107974187419  3.24518047744774  0.38126058485849
 1  17.97905772257226  2.83174668316832 -1.44085847374737
 1  16.65722285908591  5.10141742064206 -3.14705898479848
 1  18.14077646754675  4.47795418861886 -3.32888032163216
 1  16.58764344964496  3.22737764896490 -3.64897545074507
 1  18.15998387238724  4.99137979097910  0.18821798749875
 1  18.82939054985498  5.47678390489049 -1.17752989408941
 1  17.25260783058306  6.06867127722772 -0.79897824992499
 1 -4.97446533113311 -8.01549264866487 -0.13110742674267
 1 -6.33122361366137 -6.93467284868487  0.69022886618662
 1 -4.81909412681268 -7.06482635883588  1.31961482988299
 8 -7.75828872417242  6.85511554295430 -0.39673310171017
 1 -9.08794217801780  6.36236365206521 -1.85829429692969

