%nproc=3
%Mem=2GB
# td=(NStates=1) iop(3/107=0140000000,3/108=0140000000) iop(3/107=0140000000,3/108=0140000000) CAM-B3LYP/6-31G(d,p) 

TD

0 1
12 -5.66897262846285  1.20591061876188  0.24274694349435
 6 -4.95974609640964 -2.16019998469847 -0.39224228932893
 6 -3.38362982288229  1.10434297579758  2.79609104730473
 6 -6.17857427972797  4.62552057515752  0.70842320352035
 6 -7.94502542054205  1.16041472387239 -2.33654774867487
 7 -4.29339642414241 -0.26236215931593  1.03347351435144
 6 -4.19430465086509 -1.62669385078508  0.55805952445245
 6 -3.15341674337434 -2.33869506810681  1.40770635923592
 6 -2.88013216861686 -1.34457512721272  2.59584637123712
 6 -3.55379217921792 -0.06843599619962  2.10190084868487
 6 -3.51572368036804 -1.83931062366237  3.90643850325033
 6 -1.91288613191319 -2.73351734493449  0.65346953305331
 6 -0.91204896779678 -3.57008209610961  1.40568444534453
 6  0.30925679307931 -3.94178905100510  0.57078523962396
 8  0.38095194909491 -3.56641633043304 -0.57321733713371
 8  1.09262094429443 -4.82899804460446  1.15947193569357
 7 -4.80685923692369  2.58379861656166  1.39968665526553
 6 -3.98191227842784  2.30467848384838  2.45984120992099
 6 -3.72650318751875  3.59022910541054  3.16922586698670
 6 -4.57306306200620  4.54254271977198  2.64158004220422
 6 -5.17716707910791  3.90181485798580  1.45698084998500
 6 -2.75283390829083  3.78199528322832  4.28693256375638
 6 -4.64256695669567  5.94296433063306  3.02049748654865
 8 -4.02356484378438  6.46206103630363  3.97104107660766
 7 -6.77789943954395  2.71902983548355 -0.75222789048905
 6 -6.91149334713471  3.98525893139314 -0.41022922602260
 6 -7.87273241344134  4.60531158795880 -1.29419222832283
 6 -8.40283331613161  3.72015114521452 -2.10369492189219
 6 -7.66454026552655  2.46098427252725 -1.77454122392239
 6 -8.35885816451645  6.00717208690869 -1.20797193179318
 6 -9.34244072247225  3.90245118341834 -3.23063561216122
 6 -8.88870785148515  3.99568093119312 -4.72164541124112
 7 -6.25808157545755 -0.17526270647065 -1.01087210761076
 6 -7.31995560226023 -0.05694660026003 -1.98194411701170
 6 -7.52779589618962 -1.31335648834883 -2.63307633223322
 6 -6.58681416511651 -2.10845461876188 -2.12449165906591
 6 -5.81139906340634 -1.43026705620562 -1.16138400310031
 6 -8.53333870857086 -1.67282707130713 -3.60597151655166
 6 -6.22406603370337 -3.55553465946595 -2.10799619351935
 8 -6.58479171977198 -4.51254622472247 -2.63887413311331
 6 -4.96697695119512 -3.59556132283228 -0.86999362016202
 6 -5.39369649724972 -4.65169037063706  0.20895804680468
 8 -5.96500068266827 -4.32923885728573  1.22325944624462
 8 -5.09548951215122 -5.85402928702870 -0.18270244164416
 6 -5.51768511771177 -6.86370996209621  0.62525005980598
 6  2.42261894349435 -5.21880814101410  0.64467244854485
 6  3.39690300040004 -4.11078257755775  0.99454073987399
 6  3.97646675037504 -3.24023384428443  0.06573894889489
 6  3.66687158445845 -3.11760494889489 -1.37685535433543
 6  5.11665587158716 -2.28957322552255  0.61889374027403
 6  6.47097270197020 -2.57088204120412  0.05093541944194
 6  7.52912203890389 -1.64642628842884  0.59913374797480
 6  8.86525513401340 -1.85017099909991  0.12063535033503
 6  9.40177725782578 -3.24587448994899  0.34591771677168
 6  9.99151458705871 -0.89328994989499  0.64546250965096
 6  11.30687384468447 -0.81991478657866 -0.08931424202420
 6  12.17790541114111  0.38837802830283  0.18797958615862
 6  13.51011040514051  0.49310899779978 -0.53801355855586
 6  14.48043621662166 -0.66516724672467 -0.47472415761576
 6  14.25330526872687  1.81649642184218 -0.13077071947195
 6  15.37228650955096  2.19398133343334 -1.12802991069107
 6  16.05877549724972  3.57031954195420 -0.72286337933793
 6  17.33973836853685  3.83081199669967 -1.44373542134213
 6  17.16746572867287  4.05538110081008 -2.97500982098210
 6  18.07367078627863  5.02453057905791 -0.80507146414641
 1 -2.50415592149215  1.21825868946895  3.52813042424242
 1 -6.44909579247925  5.64648085028503  0.80946070877088
 1 -8.69216441554155  1.29709397089709 -3.18467384828483
 1 -3.48491555675567 -3.31011412811281  1.66762250435044
 1 -1.85327641364136 -1.23118072627263  2.88075024102410
 1 -3.34403372857286 -2.87929451035104  4.12963290919092
 1 -3.38487508760876 -1.13616573427343  4.75882201810181
 1 -4.69329100490049 -1.96127404540454  3.79928315091509
 1 -2.34561172677268 -3.60447349234923  0.01262352775278
 1 -1.37878857855786 -1.83947257465747  0.18547938923892
 1 -0.37941233133313 -3.17623759605961  2.05807034813481
 1 -1.42485196379638 -4.46920375667567  1.83763279998000
 1 -1.83706235833583  3.30690537723772  4.23374575567557
 1 -2.65383303730373  4.79508914801480  4.33485914881488
 1 -3.19320925342534  3.36566976107611  5.40617759455946
 1 -5.19680353965397  6.64398238073807  2.30343245904590
 1 -10.01862584508451  3.03300045194519 -3.18960011461146
 1 -9.97795527842784  4.72263979847985 -2.95261825442544
 1 -9.68991475237524  4.10590849084908 -5.43671998259826
 1 -8.34211817781778  4.97754969556956 -4.80681036283628
 1 -8.22121239613961  3.10935524942494 -5.02481659635963
 1 -8.52964954655466 -0.74369762746275 -4.48405837483748
 1 -8.30129975787579 -2.70498755905591 -4.31464080798080
 1 -9.63024627372737 -1.73768040264026 -3.22719700480048
 1 -4.10198197419742 -3.71524734773477 -1.41356628672867
 1  2.73746168996900 -6.13930122322232  1.26251463936394
 1  2.32682600920092 -5.60759928632863 -0.36964239933993
 1  3.57163314571457 -3.78809893219322  1.97845620972097
 1  2.66675412731273 -3.55953750865087 -1.67358000810081
 1  3.77495483348335 -2.12517721832183 -1.74368258575858
 1  4.33537604500450 -3.70607246354635 -1.97203866116612
 1  4.77069093809381 -1.30136568116812  0.27667805890589
 1  5.10834319271927 -2.25843016021602  1.68048193449345
 1  6.51887110711071 -3.67335163466347  0.54090341204120
 1  6.66474531403140 -2.99358157415742 -1.01656134233423
 1  7.20742154375438 -0.66893344764476  0.43271202450245
 1  7.49116802700270 -1.63850209870987  1.78085555795580
 1  8.72010791039104 -1.66715475617562 -0.93341155985599
 1  8.65239740514051 -4.09632849274927 -0.07562003220322
 1  10.48852188158816 -3.45174852955296 -0.33790137203720
 1  9.53721046864687 -3.71287701630163  1.33816477947795
 1  9.55450651155116  0.11759016941694  0.58132730713071
 1  10.24040299889989 -0.90645896519652  1.58958989628963
 1  11.96598852995300 -1.74432175387539 -0.05788509630963
 1  10.86314225442544 -0.80518215371537 -1.31893273697370
 1  11.61764178227823  1.37080015181518  0.30245303490349
 1  12.39882064076408  0.38518980228023  1.11391056615662
 1  13.50454119641964  0.51485622842284 -1.77952415721572
 1  14.78333856105611 -0.93249626692669  0.50119521702170
 1  13.87765815231523 -1.65129830873087 -0.92372862696270
 1  15.45226508300830 -0.70965429312931 -1.10881328432843
 1  13.45679492509251  2.65382368156816 -0.09302918021802
 1  14.46942455465547  1.73066948144814  1.01462028932893
 1  16.21403013011301  1.43274873637364 -1.15838365336534
 1  15.10411520702070  2.40862911431143 -1.97465099599960
 1  15.29270073217322  4.51053426112611 -1.00465174517452
 1  16.21812144604460  3.43297925732573  0.38139059785979
 1  17.88503832063206  2.91156466496650 -1.45932031993199
 1  16.44705184198420  4.80353763266327 -3.15587986688669
 1  18.29400179007901  4.28023441664166 -3.11216865046505
 1  16.69217390269027  3.26492140334033 -3.56308686188619
 1  18.46895476947695  5.01012166516652  0.23165233093309
 1  18.96258386918692  5.60298652515251 -1.17500964206421
 1  17.39174174397440  5.86318072817282 -0.78905725782578
 1 -5.23844172877288 -7.92465356475648  0.33591927592759
 1 -6.60885137643764 -6.67731711311131  0.72138198149815
 1 -5.01057327472747 -6.73312318851885  1.71199406780678
 8 -7.90307320262026  6.82714274567457 -0.43099652805281
 1 -9.09940332413241  6.26813422912291 -1.91370983848385

