%nproc=3
%Mem=2GB
# td=(NStates=1) iop(3/107=0140000000,3/108=0140000000) iop(3/107=0140000000,3/108=0140000000) CAM-B3LYP/6-31G(d,p) 

TD

0 1
12 -5.52998873007301  1.24204423212321  0.10577324612461
 6 -5.09094921672167 -2.19561352605261 -0.27872093719372
 6 -3.26909836973697  1.13924646614661  2.70948238643864
 6 -6.25165158745875  4.47821584468447  0.68664102530253
 6 -7.89023994199420  1.24121280368037 -2.51081517541754
 7 -4.44921200570057 -0.40004592769277  1.15089525652565
 6 -4.38534375477548 -1.66034721612161  0.78567228572857
 6 -3.26053745544554 -2.32405360396040  1.56655224382438
 6 -2.97726188158816 -1.40548121782178  2.67229401600160
 6 -3.53043984398440 -0.06312546514651  2.16371703030303
 6 -3.41053316131613 -1.75461215381538  3.98946680608061
 6 -2.04375921922192 -2.67174116731673  0.62189637573757
 6 -1.02863062596260 -3.58667375527553  1.47830170707071
 6  0.20259612701270 -3.91933680578058  0.67566572767277
 8  0.47698155205521 -3.55868555735574 -0.44361437683768
 8  0.91019270147015 -4.71201634643464  1.47245323382338
 7 -4.80424897589759  2.53339357605761  1.45186187278728
 6 -3.94932902010201  2.32915093109311  2.44002922872287
 6 -3.67395793299330  3.53185326782678  3.22099104350435
 6 -4.46632238793879  4.55631409690969  2.63284916911691
 6 -5.23006236863686  3.81727640414041  1.50824597649765
 6 -2.66540516541654  3.83678076177618  4.27821169166917
 6 -4.62609530953095  6.01176121032103  2.98073351015102
 8 -4.00351283858386  6.53083791399140  3.88060203270327
 7 -6.79549119871987  2.62454038653865 -0.71217388508851
 6 -6.92786498429843  3.88568897439744 -0.36180438353835
 6 -7.86482162236224  4.54293535033503 -1.18691150025003
 6 -8.32212524532453  3.71866099619962 -2.08854340674067
 6 -7.66972078357836  2.43613178727873 -1.80322409220922
 6 -8.19846212491249  5.99209057875788 -1.20641177577758
 6 -9.43656013441344  3.77991893019302 -3.09398194679468
 6 -8.88715769646965  4.27564892799280 -4.49406265296530
 7 -6.22383815111511 -0.02123730393039 -1.22725374577458
 6 -7.25887949464946  0.03490258465847 -2.18035395799580
 6 -7.42346546314631 -1.17908306100610 -2.81400442504250
 6 -6.65119060276028 -2.09882365566557 -2.09968917881788
 6 -5.86261418491849 -1.36706073557356 -1.08862672737274
 6 -8.35916129082908 -1.71652144074407 -3.89237015641564
 6 -6.16856048314831 -3.43268237423742 -2.05597099099910
 8 -6.46807004760476 -4.44492946304630 -2.79377962366237
 6 -5.10614086758676 -3.59900166686669 -0.98238485928593
 6 -5.36224335193519 -4.64196939853985  0.07216436743674
 8 -5.78631281388139 -4.47467340074007  1.20363748404840
 8 -5.07291725492549 -5.84376826092609 -0.44238841024102
 6 -5.54673802300230 -6.98621221232123  0.40457799259926
 6  2.22233891549155 -5.08198445864586  0.88562654395440
 6  3.22852616271627 -4.05968746804680  1.14171545734573
 6  4.00303940764076 -3.29000882178218  0.29610198519852
 6  3.67825272257226 -3.26901008940894 -1.22168983778378
 6  5.15920012601260 -2.43742801100110  0.80418226912691
 6  6.52377798249825 -2.76006095909591  0.10674100000000
 6  7.58191731843184 -1.87345899169917  0.67883171777178
 6  8.97568617711771 -1.95210119211921 -0.03719043224322
 6  9.54021110121012 -3.43256315881588  0.21636476147615
 6  9.96069150475047 -0.90832145304530  0.48574653805381
 6  11.35462862016202 -0.85949874497450 -0.19656496709671
 6  12.18537615821582  0.40532972347235  0.19515030323032
 6  13.44223361746175  0.47026671357136 -0.66663642084208
 6  14.42969114211421 -0.69928065806581 -0.42331901710171
 6  14.16414635283528  1.84256902910291 -0.36032367476748
 6  15.49221850275027  2.23370530583058 -1.08391549924992
 6  16.01633125282528  3.65119762976298 -0.73011410441044
 6  17.26215060976098  4.00748966446645 -1.46447749554956
 6  17.21780076217622  3.99859542224222 -2.97146946694669
 6  17.81163458265826  5.36395452145215 -0.96232718971897
 1 -2.37435294119412  1.17410427402740  3.42231984318432
 1 -6.48991987488749  5.56890309250925  1.10318008070807
 1 -8.80506570567057  1.23873813531353 -3.27739312021202
 1 -3.55762282748275 -3.19781289798980  1.96739248134813
 1 -1.81903298929893 -1.34230183838384  2.73530569656966
 1 -3.07068639383938 -2.94289086998700  4.11838178407841
 1 -3.08316491659166 -1.07465958365837  4.85781191709171
 1 -4.59334100990099 -1.94461237923792  3.84984820742074
 1 -2.53662082768277 -3.42335538053805 -0.11419915451545
 1 -1.45878657835784 -1.83257188458846  0.17354819611961
 1 -0.73569795989599 -3.16899687198720  2.47256179727973
 1 -1.61386086468647 -4.50903774007401  1.72574161086109
 1 -1.75806445854585  3.32591727842784  3.96123850495049
 1 -2.84243189718972  4.87341698079808  4.67065272817282
 1 -2.87806773927393  3.18584177827783  5.03722069886989
 1 -5.27351121042104  6.58459644214421  2.60807292309231
 1 -10.18406238873887  3.05440259215922 -3.38549970457046
 1 -10.02070955385539  4.53000053455346 -2.68455144774477
 1 -9.48204396529653  4.59374727472747 -5.21440775137514
 1 -8.11708567456746  5.16817875847585 -4.33844352615262
 1 -8.35807608250825  3.49839415331533 -5.02288640334033
 1 -8.35549213081308 -1.04854811251125 -4.77196716571657
 1 -7.98898852675268 -2.70182724302430 -4.18195753965397
 1 -9.60323357245725 -1.81541817641764 -3.67182146724673
 1 -4.20318209420942 -3.74756057905791 -1.40424535463546
 1  2.51658960276028 -6.16074336743674  1.32015040294030
 1  1.88038136473647 -5.32320084648465 -0.06250168526853
 1  3.60759674207421 -4.23246336863686  2.14421278537854
 1  2.81594904680468 -3.75758731363136 -1.51474412451245
 1  3.69800713871387 -2.17423212381238 -1.39766798429843
 1  4.26628913631363 -3.89428128442844 -1.53210466776678
 1  4.85389925892589 -1.41731727632763  0.53937432853285
 1  5.24749710811081 -2.55877019421942  1.98783266956696
 1  6.63938315831583 -3.84244854435444  0.38165748744874
 1  6.39684852435243 -2.81153336933693 -1.04303398959896
 1  7.32223302490249 -0.75024157845785  0.58306706000600
 1  7.73393230343034 -2.06410465896590  1.75086255865587
 1  8.98271417101710 -1.86611465216522 -1.02291050975098
 1  8.68327049244924 -4.31683054295430 -0.05149761996200
 1  10.70600362976298 -3.54266762146215 -0.05838342024202
 1  9.45557230483048 -3.52481821042104  1.34185514851485
 1  9.48374943584358  0.25008341874187  0.42523169756976
 1  9.94578353695370 -0.87346566586659  1.65999693699370
 1  11.79821175227523 -1.68742606430643  0.14113480568057
 1  11.19093503370337 -0.99586122162216 -1.44504534823482
 1  11.47586760486048  1.19361243304330 -0.17346455685569
 1  12.26151691039104  0.63234451775177  1.32821199629963
 1  13.37334807710771  0.56736147894789 -1.72509871467147
 1  14.54511473867387 -1.07764078137814  0.68854395189519
 1  13.94744513101310 -1.54815799469947 -0.79737599169917
 1  15.46756661316132 -0.53096642434243 -0.75574797779778
 1  13.52869211481148  2.70780908010801 -0.65093497079708
 1  14.26807441964196  1.94958137263726  0.84526335363536
 1  16.39008773587359  1.65940140164016 -0.65991380638064
 1  15.18799359485949  2.09262751415142 -2.07449097999800
 1  15.32081354345434  4.41003421112111 -1.05981726172617
 1  16.39315894979498  3.65740169956996  0.22064452325233
 1  18.14893471027103  3.29017252575258 -1.15526991489149
 1  16.63808094489449  4.77617489638964 -3.26265054395440
 1  18.03331572147215  4.06841323452345 -3.60825825942594
 1  16.85702038733873  3.13999891109111 -3.55674622782278
 1  17.73959183318332  5.43930458345835  0.15819498519852
 1  18.89175678647865  5.63277950445045 -1.31546368746875
 1  17.01902447224722  6.10485489558956 -1.47796614871487
 1 -5.04192207680768 -8.06573767316732  0.15300098409841
 1 -6.73223371467147 -6.98418780018002  0.51222106540654
 1 -5.02087430483048 -6.92464234043404  1.47572044044404
 8 -7.82040493579358  6.85022505390539 -0.46165959435944
 1 -9.03549693349335  6.21388880458046 -1.94752321982198

