%nproc=3
%Mem=2GB
# td=(NStates=1) iop(3/107=0140000000,3/108=0140000000) iop(3/107=0140000000,3/108=0140000000) CAM-B3LYP/6-31G(d,p) 

TD

0 1
12 -5.44743047424743  1.26008603630363  0.11906457525753
 6 -4.99712983478348 -2.13845781048105 -0.24841790689069
 6 -3.35311677157716  1.22450499199920  2.71400283848385
 6 -6.16190261256126  4.65423344644464  0.56060842204220
 6 -7.85975689368937  1.12093077547755 -2.39034312821282
 7 -4.30084716921692 -0.22413833693369  1.14348451545154
 6 -4.15116033643364 -1.54015519691969  0.67578129662966
 6 -3.16984838653865 -2.31242244084408  1.54729031763176
 6 -2.73754791019102 -1.23321399109911  2.63578036463646
 6 -3.43155995599560  0.05390623802380  2.10483114171417
 6 -3.27336944494449 -1.58416510911091  4.01424928432843
 6 -1.97868271157116 -2.79867386058606  0.69029321542154
 6 -1.00510827372737 -3.60291537943794  1.41471534843484
 6  0.26222208960896 -3.95866073817382  0.51352951405141
 8  0.43724757865787 -3.58013770257026 -0.60721073647365
 8  1.11731341354135 -4.81122626742674  1.20002599109911
 7 -4.74899345034503  2.71377161386139  1.23190987758776
 6 -3.91283537073707  2.52355037103710  2.38213343914391
 6 -3.70424096129613  3.75403548604860  3.16368531293129
 6 -4.47510326602660  4.67709617511751  2.53028891309131
 6 -5.12489185158516  4.00103477997800  1.39981513341334
 6 -2.78788741364136  3.76386347004700  4.26439030953095
 6 -4.74079677967797  6.09447948214822  3.01785722252225
 8 -4.16313880118012  6.50845567576758  4.15719969246925
 7 -6.82770442004200  2.66079401190119 -0.65920858855886
 6 -6.89311150895089  3.96892729822982 -0.48320652375238
 6 -7.96480162036204  4.63413447024702 -1.31965477457746
 6 -8.37880091289129  3.62910204030403 -2.12498705110511
 6 -7.59551336283628  2.44934310841084 -1.82581635143514
 6 -8.39158143684369  6.03787515721572 -1.18742987758776
 6 -9.38145462386239  3.84595553385339 -3.19137168576858
 6 -8.78446742744274  4.11044240734073 -4.52727597429743
 7 -6.18701446874687 -0.07536271647165 -1.15405642604260
 6 -7.27333093979398 -0.02601350695070 -2.12093801640164
 6 -7.47740085668567 -1.37652280498050 -2.79536256085609
 6 -6.66929241294129 -2.16368014131413 -2.10946015591559
 6 -5.95314323782378 -1.37712174167417 -1.05937380208021
 6 -8.58013338803880 -1.65317510611061 -3.81662258165817
 6 -6.12018564566457 -3.54296340234023 -1.94110950485048
 8 -6.55016825742574 -4.62518748884889 -2.44968521422142
 6 -5.04936519001900 -3.56741850855086 -0.78430505130513
 6 -5.37736486408641 -4.66369157075708  0.18714586558656
 8 -5.90707489008901 -4.49378531193119  1.32836995729573
 8 -4.99113907710771 -5.89171305540554 -0.29547371877188
 6 -5.31075442464246 -7.02410600170017  0.51722925772577
 6  2.37009369096910 -5.00169642984298  0.56934491579158
 6  3.44952826292629 -4.15555705500550  0.90398168396840
 6  3.99197830153015 -3.19432925382538  0.14105648064806
 6  3.69379427672767 -3.18332152055206 -1.33098076687669
 6  5.13282748874887 -2.27544181238124  0.68305015591559
 6  6.46749235393539 -2.81828678167817  0.15960628652865
 6  7.65375450215021 -1.90803244904490  0.63962779737974
 6  8.99627823632363 -2.18705468746875 -0.09985669886989
 6  9.55279235933593 -3.66293619611961  0.22936606160616
 6  9.91662709830983 -1.03225384628463  0.38003596699670
 6  11.33860701800180 -1.01129392449245 -0.25035034563456
 6  12.08243586418642  0.34354354485449  0.13210399859986
 6  13.42816221032103  0.40654034093409 -0.68541829902990
 6  14.37611578457846 -0.83714444444444 -0.26995368056806
 6  14.09553949214921  1.84411918411841 -0.31908955135514
 6  15.24069335023502  2.12439437473747 -1.15458256595660
 6  15.83746336603660  3.50767327732773 -0.61387248024802
 6  17.13298769346935  4.00310922642264 -1.29470051785178
 6  16.99476845894590  4.32714827752775 -2.79642196219622
 6  17.53530694989499  5.32942106810681 -0.56253721072107
 1 -2.58598410431043  1.22626949054905  3.59658726992699
 1 -6.26847773067307  5.70384658685869  0.84738450115011
 1 -8.75757095619562  1.24361862336234 -2.86383176407641
 1 -3.66950401560156 -3.18239135583558  1.79820556265627
 1 -1.47022810881088 -1.06566417461746  2.68572073807381
 1 -2.73425275047505 -2.31682826372637  4.52575252115212
 1 -3.26881348144815 -0.52234435213521  4.74519065496550
 1 -4.21268294409441 -1.80542846084608  4.17268049064907
 1 -2.54100126572657 -3.52825587058706 -0.03988172277228
 1 -1.48863956365637 -1.99322795019502  0.09186002730273
 1 -0.61221561166117 -3.17450742304230  2.33702824392439
 1 -1.18184766336634 -4.39188602490249  1.69017805450545
 1 -1.78787743984398  3.40333502020202  3.74483686478648
 1 -2.48348600260026  4.85037467656766  4.81124678757876
 1 -2.65004493699370  2.94192738683868  4.97015399219922
 1 -5.49406326562656  6.63005098759876  2.45625774157416
 1 -10.00205418791879  2.99076622852285 -3.27602875747575
 1 -10.08006548944895  4.60132766726673 -3.10392338493849
 1 -9.61591735263526  4.22992089208921 -5.27439374997500
 1 -8.12897686368637  5.14319626022602 -4.51174085588559
 1 -8.31533180808081  3.21444575847585 -4.80473458815881
 1 -8.61278786038604 -0.80839409710971 -4.66711668066807
 1 -8.35601522942294 -2.65539259955996 -4.25010435433543
 1 -9.71138438753875 -1.65079171377138 -3.35745003010301
 1 -4.13894567056706 -4.07412323532353 -1.25087001710171
 1  2.70498844264426 -6.07221451455146  0.81519990789079
 1  2.03921724832483 -5.20922944934493 -0.54937037213721
 1  3.58043402580258 -3.96423654595460  2.02602096619662
 1  2.85121257315732 -3.50257181208121 -1.57552020212021
 1  3.92653999199920 -2.18768346894689 -1.76212442994299
 1  4.26118862626263 -4.17764962126213 -1.89366082338234
 1  4.93412728172817 -1.25041058565857  0.38091848294829
 1  4.91158351675167 -2.26398071527153  1.85578946524652
 1  6.67847706770677 -3.81195549504950  0.60429975167517
 1  6.44742358185819 -2.69774199019902 -0.88473816001600
 1  7.48352915451545 -0.87870442474247  0.36694544784478
 1  7.90401931213121 -2.07357560606061  1.63115058745875
 1  8.84219011861186 -2.21031907260726 -1.18319653835384
 1  8.68548071347135 -4.25505436533653 -0.04360683088309
 1  10.52288531793179 -3.96763011771177 -0.33238081998200
 1  9.76095284288429 -3.71512724132413  1.45916687968797
 1  9.26290735163516 -0.04287587718772  0.08298747314731
 1  10.06614557315732 -0.90745906520652  1.47202814011401
 1  11.88365029612961 -1.93180050175017  0.01250194239424
 1  11.31300724092409 -1.17418905440544 -1.39620046374637
 1  11.43868388648865  1.10706377817782 -0.25374258465847
 1  12.27277803650365  0.37417870117012  1.16791596669667
 1  13.15229597189719  0.19322406520652 -1.78434463926393
 1  14.68340856805681 -0.60831384868487  0.91412651015101
 1  13.77649803630363 -1.83262644154415 -0.28177443154315
 1  15.19879973647365 -0.73868719641964 -0.83952635563556
 1  13.28436768236824  2.44713301250125 -0.47161703900390
 1  14.39017662986299  1.83043945844584  0.67772659996000
 1  16.19474820192019  1.55777123862386 -0.90090790579058
 1  15.17712250775078  1.94985323672367 -2.10278380928093
 1  14.90236169826983  4.16173938163816 -0.76045732573257
 1  16.06372600650065  3.35189114851485  0.49183164196420
 1  17.99419923672367  3.14621813031303 -1.04637902580258
 1  15.92973010981098  4.92259953885389 -2.99237351625163
 1  17.92984537443744  4.81636803000300 -3.27230466406641
 1  16.84833951925192  3.36655156635664 -3.36460701390139
 1  17.87088496249625  4.96810746374637  0.36048521422142
 1  18.53097070787079  5.91754798129813 -1.12932507360736
 1  16.80852342214222  6.15150956105611 -0.62439079117912
 1 -5.12018990359036 -7.92189328872887 -0.11215553155316
 1 -6.39585007630763 -6.89243862526253  0.77913775707571
 1 -4.77953017041704 -7.04181405760576  1.43568643704370
 8 -7.91196409170917  6.78801883328333 -0.36618004640464
 1 -9.25991937573757  6.33374078977898 -1.75212367986799

