%nproc=3
%Mem=2GB
# td=(NStates=1) iop(3/107=0140000000,3/108=0140000000) iop(3/107=0140000000,3/108=0140000000) CAM-B3LYP/6-31G(d,p) 

TD

0 1
12 -5.47409314051405  1.20237026472647  0.18688135693569
 6 -4.96135625742574 -2.14757872257226 -0.44292735783578
 6 -3.29510096999700  1.15453799529953  2.79563100130013
 6 -6.23124954725473  4.52382040514051  0.62317467866787
 6 -8.08506942494249  1.14712339473947 -2.29550364426443
 7 -4.33623070757076 -0.26013193629363  0.97802796979698
 6 -4.31576679707971 -1.61769295069507  0.61680539903990
 6 -3.20540194189419 -2.26959815841584  1.44383997259726
 6 -2.91498565396540 -1.31924259395940  2.59848663526353
 6 -3.55556235623562 -0.01046019861986  2.11856251485149
 6 -3.50569267726773 -1.69438613121312  3.91499935933593
 6 -1.93063790709071 -2.69539353255326  0.67243142924292
 6 -1.00841860476048 -3.63090817871787  1.38464234113411
 6  0.31196706410641 -3.90838571067107  0.58269643074307
 8  0.55169902380238 -3.39951964076408 -0.47457747314731
 8  1.04888657085709 -4.74632977777778  1.29998598709871
 7 -4.86281483248325  2.59459969666967  1.48449513611361
 6 -3.86644073127313  2.43158117411741  2.44391961776178
 6 -3.67973851105110  3.68553863636364  3.11168011241124
 6 -4.45396115181518  4.63465193069307  2.47464334853485
 6 -5.27794715711571  3.84679935643564  1.47922307420742
 6 -2.74568319321932  3.99552663636364  4.26042991349135
 6 -4.66689938993899  5.95781581578158  2.82823826062606
 8 -3.87602008930893  6.64216904710471  3.59432340484048
 7 -6.98701035063506  2.58172610511051 -0.60393306100610
 6 -7.04198639643964  3.87822822832283 -0.29128733183318
 6 -7.99646478667867  4.51435249204920 -1.15075788488849
 6 -8.59538257105710  3.62179130923092 -2.06027057945795
 6 -7.78210202170217  2.34431260536054 -1.71984575437544
 6 -8.47895017371737  5.96183755345535 -1.12306344094409
 6 -9.67001347974798  3.87492843114311 -3.06806935553555
 6 -8.99090807150715  4.03595495859586 -4.40971421812181
 7 -6.33398916621662 -0.12622780298030 -1.09834085448545
 6 -7.37355096179618 -0.14707561316132 -2.00245616821682
 6 -7.64972808940894 -1.24141929462946 -2.68244126872687
 6 -6.73485896959696 -2.17152092539254 -2.08044725462546
 6 -5.94391231473147 -1.41908593809381 -1.16559442414241
 6 -8.65899127382738 -1.60583037163716 -3.68697961736174
 6 -6.21586521362136 -3.45458456445645 -2.06722211611161
 8 -6.57839107970797 -4.47897286738674 -2.62417266296630
 6 -5.03793404690469 -3.50825259195920 -0.93605022582258
 6 -5.24505163276328 -4.56308150975098  0.07932508350835
 8 -5.78670285288529 -4.39438537193719  1.19152627292729
 8 -4.93851381458146 -5.79113299739974 -0.39474364576458
 6 -5.43462681188119 -6.83056664776478  0.50826836163616
 6  2.38205488708871 -5.03475973617362  0.64553253455346
 6  3.50953426352635 -4.08247974727473  1.02308359415942
 6  4.05867497119712 -3.27465728662866  0.11069344434443
 6  3.71615651295130 -3.24634782318232 -1.36560422922292
 6  5.17664187018702 -2.41864613281328  0.61322317321732
 6  6.59377498219822 -2.70822577557756 -0.08115778987899
 6  7.65420454715472 -1.84270591639164  0.58990282488249
 6  9.08395700420042 -2.00868685068507 -0.04645135833583
 6  9.67904498459846 -3.40628053055306  0.30862398739874
 6  10.05001043664367 -0.98411903280328  0.42488045144514
 6  11.34511766906691 -0.72439523462346 -0.35167047764776
 6  12.26801442204220  0.31902109260926  0.30603139133913
 6  13.60516991109111  0.36626631353135 -0.44698445564556
 6  14.58930710371037 -0.88353908390839 -0.15604228942894
 6  14.25169510771077  1.69640441264126 -0.06441408380838
 6  15.49940922182218  2.13387532283228 -0.86262337003700
 6  16.04614423412341  3.58886139613961 -0.53352444544454
 6  17.28837323202320  3.87098601410141 -1.34742579037904
 6  17.00585956805681  3.95142070477048 -2.91916423642364
 6  17.89163258245824  5.31793991999200 -0.94508546554655
 1 -2.58785429132913  1.22816968056806  3.73109072027203
 1 -6.43682456535654  5.55154135633563  0.79260902360236
 1 -8.80221542064206  0.88875313681368 -3.21933731463146
 1 -3.70983804900490 -3.26554967166717  1.87046278837884
 1 -1.88130921692169 -1.05273288148815  2.47786995299530
 1 -3.11291061626163 -2.58976555745575  4.32935288118812
 1 -3.53492009210921 -0.86872899059906  4.65293142904290
 1 -4.62012368816882 -1.81799971797180  3.84102732533253
 1 -2.28448561416142 -3.22714575957596 -0.16543427802780
 1 -1.53707440714071 -1.60657928532853  0.33565440674067
 1 -0.67289167926793 -3.35273524582458  2.40816535763576
 1 -1.50689016761676 -4.63960079637964  1.56219525622562
 1 -1.83840249234923  3.63514820152015  3.99537191829183
 1 -2.74348200220022  5.08071771087109  4.46311197409741
 1 -3.02025195769577  3.45432862696270  5.09648662546255
 1 -5.52164602390239  6.40426840934093  2.22161427722772
 1 -10.35837982048205  3.08574572647265 -3.17663881848185
 1 -10.12549003190319  4.78830636513651 -2.70350334293429
 1 -9.69891565246525  4.28473637363736 -5.23585989658966
 1 -8.38713267926793  4.83837577817782 -4.54014369616962
 1 -8.36138641354136  3.28795310921092 -4.73059717441744
 1 -8.54460104170417 -1.06539979767977 -4.59620958995900
 1 -8.49060868876888 -2.72714977527753 -3.75452479637964
 1 -9.52575582468247 -1.43639027362736 -3.18755304040404
 1 -4.28099987598760 -3.84565038803880 -1.59419434953495
 1  2.82888083188319 -6.18545583868387  1.04006239413941
 1  2.11666499309931 -5.29414794119412 -0.52913834893489
 1  3.91495747814781 -3.90543066536654  2.07835619971997
 1  2.81367881978198 -3.59080063496350 -1.82629527962796
 1  3.65727306530653 -2.09269396999700 -1.68002622012201
 1  4.56239874727473 -3.87772962926293 -1.86797825512551
 1  4.71893576257626 -1.31346689128913  0.34245463656366
 1  5.35583794219422 -2.43559787698770  1.66941082738274
 1  6.59721894189419 -3.70853515301530 -0.21457213551355
 1  6.68704754425443 -2.45692790879088 -1.00726041224122
 1  7.16828763036304 -0.62946950125012  0.41565031833183
 1  7.75584449464947 -2.10657890639064  1.67916538893889
 1  9.03053895349535 -2.01369941064106 -1.12428064676468
 1  9.12156432183218 -4.15598445834583 -0.10596306650665
 1  10.62895592499250 -3.41612496719672 -0.20330791269127
 1  9.57441418901890 -3.72441817041704  1.33928489148915
 1  9.55404646554655  0.00274868526853  0.54063323772377
 1  10.47020597919792 -1.26697501680168  1.42311324862486
 1  11.72333426452645 -1.62314963666367 -0.25743505130513
 1  11.14709064926493 -0.53197483298330 -1.46780762446245
 1  11.70627064516452  1.25174824662466  0.31931472107211
 1  12.61147190589059  0.04887617091709  1.38022719781978
 1  13.44415515781578  0.33504824762476 -1.44204040884088
 1  14.92402262946295 -0.84065708300830  0.89367446494650
 1  13.88506889338934 -1.75710888978898 -0.49446570067007
 1  15.41968182468247 -0.86594992269227 -0.91255365836584
 1  13.31567081268127  2.65967426662666 -0.06892676997700
 1  14.47692530473047  1.73208962346235  0.96593542084208
 1  16.22678140524052  1.47030249174918 -0.85707352235223
 1  15.22740753625363  2.19761801320132 -1.98315184608461
 1  15.49695115721572  4.40957416511651 -0.83143442344234
 1  16.30972060596059  3.59395535493549  0.48144060286029
 1  18.02845266206621  3.12954646314631 -1.19539392729273
 1  15.98125526232623  4.54364164306431 -3.19106338523852
 1  17.79651204110411  4.19169556275628 -3.63115054865487
 1  16.67377206250625  2.86086099729973 -3.16699725292529
 1  18.24500237423742  5.15241589458946  0.20903006870687
 1  18.81618922972297  5.31539776627663 -1.52114425552555
 1  17.19143171297130  6.05344975507551 -1.21867021912191
 1 -5.31124900950095 -7.70612171157116 -0.11938625462546
 1 -6.44464495579558 -6.74243362476248  0.70895073837384
 1 -4.59208142554255 -6.70682055825583  1.18434130253025
 8 -7.94621751705171  6.74819485088509 -0.35982941134113
 1 -9.04918830263026  6.26389380508051 -1.83267173467347

