%nproc=3
%Mem=2GB
# td=(NStates=1) iop(3/107=0140000000,3/108=0140000000) iop(3/107=0140000000,3/108=0140000000) CAM-B3LYP/6-31G(d,p) 

TD

0 1
12 -5.57572330353035  1.24914494219422  0.25049771857186
 6 -4.96566668846885 -2.10351431613161 -0.40006307140714
 6 -3.34497595749575  1.13425596709671  2.95247668586859
 6 -6.17491391369137  4.53705172827283  0.71300366156616
 6 -7.81231214921492  1.20305898829883 -2.36442053595360
 7 -4.27600468496850 -0.22555847894789  1.09252941994199
 6 -4.27154237463746 -1.54942612401240  0.67238095659566
 6 -3.31308270997100 -2.43659485808581  1.60957654625463
 6 -2.99487364276428 -1.34846551625163  2.80255704230423
 6 -3.57073387338734 -0.09987914051405  2.26164682328233
 6 -3.62090419841984 -1.86434312691269  4.05613347274727
 6 -1.99985482878288 -2.73367736093609  0.76158034413441
 6 -1.03008077097710 -3.55289037693769  1.47163104000400
 6  0.11018688608861 -3.88112298439844  0.62682084318432
 8  0.39517337123712 -3.47592728152815 -0.44082409780978
 8  1.02816449864987 -4.70449559435944  1.40676666516652
 7 -5.10049860086009  2.59644988168817  1.71643833043304
 6 -4.10612469966997  2.34651266726673  2.67635286108611
 6 -3.68344888208821  3.66916699919992  3.25283422782278
 6 -4.49720547624762  4.58070653615362  2.58809469366937
 6 -5.23426278867887  3.98608328482848  1.61475662756276
 6 -2.70933955885589  3.87218430213021  4.29949381988199
 6 -4.65939863986399  6.01139117331733  2.91443688048805
 8 -3.99855234253425  6.66575140534053  3.81317529002900
 7 -6.81758340794079  2.58601653415342 -0.61767443514351
 6 -6.89583178097810  3.91058146364636 -0.37337554065407
 6 -7.73082822302230  4.68090914771477 -1.27292010111011
 6 -8.28628166096610  3.67928705880588 -2.18765331773177
 6 -7.68903271477148  2.45898407250725 -1.76774054385439
 6 -8.06044832353235  6.04012538223822 -1.38649978457846
 6 -9.28249472787279  3.81392233053305 -3.32962551115112
 6 -8.64209319001900  3.95551691479148 -4.64117736443644
 7 -6.29892565986599 -0.13393857405741 -1.05068608900890
 6 -7.23845745244524  0.04984407880788 -2.03358928152815
 6 -7.53016613321332 -1.27976312901290 -2.70140316491649
 6 -6.64398988268827 -2.16268004130413 -2.04050326022602
 6 -5.89192711621162 -1.40743477297730 -1.15521338603860
 6 -8.41511688638864 -1.56915670427043 -3.83000391979198
 6 -6.12174580168017 -3.49620872687269 -2.01266666056606
 8 -6.38318155875588 -4.50929589968997 -2.67759800550055
 6 -5.02767302080208 -3.55088685538554 -0.90987760856086
 6 -5.39512664026403 -4.66601180278028  0.09260641164116
 8 -5.75998018061806 -4.51611754515452  1.13473059335934
 8 -4.98754871807181 -5.84811869596960 -0.48822299369937
 6 -5.39060240944094 -6.95132872397240  0.45410294509451
 6  2.25498217981798 -5.10473673387339  0.72825080638064
 6  3.41582489258926 -4.12212371167117  1.03808509430943
 6  3.96673577727773 -3.32684250515052  0.12764513951395
 6  3.66904180148015 -3.32731591999200 -1.36854452325233
 6  5.13049725572557 -2.42634690289029  0.54121597249725
 6  6.51878748344835 -2.69694464746475 -0.03042271637164
 6  7.63081220792079 -1.76042768856886  0.46856069066907
 6  9.02210081858186 -1.98184416641664 -0.11665837903790
 6  9.58994607470747 -3.45357526002600  0.14332745774577
 6  9.99907534313431 -0.89381000190019  0.45234319771977
 6  11.36520967826783 -0.96154894999500 -0.24512982358236
 6  12.25583320392039  0.25123431393139  0.22249303750375
 6  13.48729812391239  0.46217590449045 -0.63406316351635
 6  14.40384855785579 -0.76069679967997 -0.36702338753875
 6  14.12834277247725  1.71992676487649 -0.24570221262126
 6  15.33247252815281  2.15621755705571 -1.06096320402040
 6  15.79644926462646  3.54838734873487 -0.64070516351635
 6  16.97415180988099  3.99060797629763 -1.41314236203620
 6  16.92303128522853  4.18088365106511 -2.81683400340034
 6  17.46874029322932  5.46386451245125 -0.95381633863386
 1 -2.66693219911991  1.06758362196220  3.88109572077208
 1 -6.17129801270127  5.51648785098510  0.84859462216222
 1 -8.62496769586959  1.17879214071407 -3.12786816771677
 1 -3.62198926412641 -3.42012512921292  2.07778352045204
 1 -1.82520360636064 -1.19372698089809  2.91115328132813
 1 -3.11722104730473 -2.88973555445545  4.43661360726073
 1 -3.25424202430243 -1.27976009370937  5.03375951185119
 1 -4.66624830063006 -1.76634455245525  4.11020424302430
 1 -2.44797196279628 -3.36066911191119  0.14264653005301
 1 -1.43242394209421 -1.74662328972897  0.27216805810581
 1 -0.62380677077708 -3.15518549084909  2.53047758885889
 1 -1.53918339693969 -4.40391722802280  1.66465550225022
 1 -1.74336298839884  3.49645433213321  3.73393577467747
 1 -2.53591124512451  4.86523616271627  4.67510317321732
 1 -2.92008194069407  3.15953914801480  5.16004298109811
 1 -5.39433329262926  6.34454243674367  2.43232534833483
 1 -9.99261324382438  3.02145929782978 -3.27467862246225
 1 -9.99770725362536  4.60593812831283 -3.22168516111611
 1 -9.36810257115712  4.07772567256726 -5.28164447504750
 1 -8.06820078607861  4.99458139873987 -4.63447312911291
 1 -8.01000127502750  3.14360867476748 -4.92062617731773
 1 -8.03377995959596 -0.82761601930193 -4.74163413241324
 1 -8.12770239813981 -2.65908296859686 -4.24894423832383
 1 -9.38657190629063 -1.12722935753575 -3.59333361846185
 1 -3.91346312231223 -3.78329415241524 -1.46176110621062
 1  2.47780572437244 -6.02145943904390  1.24945333323332
 1  1.97563088968897 -5.20143867026703 -0.42012744784478
 1  3.52718870127013 -4.11891201350135  2.20011837593759
 1  2.57703515541554 -3.80751230613061 -1.54811746184618
 1  3.81018835683568 -2.34678937953795 -1.56758497599760
 1  4.44544705210521 -3.81871372767277 -2.00971242854285
 1  4.63244711371137 -1.37008255285529  0.32180257135713
 1  5.17553991239124 -2.45079939713971  1.59251313761376
 1  6.80760998099810 -3.84726902640264  0.31248056975698
 1  6.50417925742574 -2.86804902090209 -1.11197088328833
 1  7.62359316091609 -0.69124567886789  0.34150290359036
 1  7.72128103830383 -1.80744899339934  1.60530800320032
 1  8.98461436103610 -2.01871991269127 -1.11935015371537
 1  8.89660182558256 -4.38099695959596  0.01849937973797
 1  10.58191122052205 -3.50729408410841 -0.35723330523052
 1  9.85413216081608 -3.59463519211921  1.10449141214121
 1  9.65051611251125  0.08987739813981  0.40518969336934
 1  10.14924388298830 -0.91462978227823  1.61568250555056
 1  12.07330926202620 -1.80354767646765 -0.06097540534053
 1  11.14095003520352 -0.95322695819582 -1.31020186388639
 1  11.63162318041804  1.16659973177318 -0.00086729712971
 1  12.72293305200520  0.04514579787979  1.30180935603560
 1  13.35268601090109  0.53463820662066 -1.53542974777478
 1  14.44696492369237 -0.70648366566657  0.68876397389739
 1  13.79711009750975 -1.66858003690369 -0.72886914101410
 1  15.41419127562756 -0.83130645834583 -0.80933333633363
 1  13.36376562216222  2.50212851205121 -0.37740761806181
 1  14.23381099329933  1.73051946644664  0.87047587488749
 1  16.18049677677768  1.22537799929993 -0.99857767276728
 1  15.30362515801580  2.10615886728673 -2.19954348524852
 1  15.13438490059006  4.33226643434343 -0.67618889888989
 1  16.00648028192819  3.53390935033503  0.41237369616962
 1  17.89927974477448  3.27851135963596 -1.06583097099710
 1  16.09014615141514  4.84512179107911 -3.24017829672967
 1  17.74305669556956  4.46075246844684 -3.37094452805281
 1  16.60927561286129  3.00657556875688 -3.23367392059206
 1  17.81536941094109  5.27921857485749  0.07951711741174
 1  18.23355096589659  6.11651787828783 -1.67579972107211
 1  16.28078064786479  6.04545895599560 -0.92940129222922
 1 -4.88287617221722 -7.64754585398540 -0.29634395039504
 1 -6.47229772107211 -6.99132851425143  0.38591843514351
 1 -4.88785100250025 -7.08127800400040  1.38852172057206
 8 -7.55217811311131  6.85161519291929 -0.62956638503850
 1 -8.74606799059906  6.44678209390939 -2.26831529902990

