%nproc=3
%Mem=2GB
# td=(NStates=1) iop(3/107=0140000000,3/108=0140000000) iop(3/107=0140000000,3/108=0140000000) CAM-B3LYP/6-31G(d,p) 

TD

0 1
12 -5.67360309150915  1.26216624432443  0.23283595239524
 6 -5.11064118591859 -2.11278524322432 -0.28941200630063
 6 -3.31594305420542  1.20270281178118  2.81809324752475
 6 -6.19835625792579  4.55090311341134  0.66083844504450
 6 -8.01387230523052  1.18061674407441 -2.31269536343634
 7 -4.42720980548055 -0.28255417851785  1.11623179017902
 6 -4.21740696109611 -1.56638782018202  0.71447516601660
 6 -3.13494489618962 -2.27169836843684  1.39577516611661
 6 -2.82406656205621 -1.23080375007501  2.54585137173717
 6 -3.55495229522952  0.02988383578358  2.12923358195820
 6 -3.28750085808581 -1.69413610621062  3.98166602600260
 6 -1.91843668696870 -2.68803279647965  0.48625281138114
 6 -0.92207997089709 -3.61420650855086  1.26648052495250
 6  0.38462432983298 -3.90289516161616  0.57406556765677
 8  0.76799065296530 -3.39672936173617 -0.45597561296130
 8  1.05906758895890 -4.93505865066507  1.26111209970997
 7 -4.94267281828183  2.59151938863886  1.47225391199120
 6 -3.90451453865387  2.42175019101910  2.39824505030503
 6 -3.57618815601560  3.69009909240924  3.05641458585859
 6 -4.42694845054505  4.62060052555255  2.48317420162016
 6 -5.21743110551055  3.98342301880188  1.41172632453245
 6 -2.63097172207221  3.91527861156116  4.15057892839284
 6 -4.65956865686569  6.04647468166817  2.87275271207121
 8 -4.05329781708171  6.62383721392139  3.79594356685669
 7 -6.97148879847985  2.59759769226923 -0.63540620832083
 6 -6.92665486328633  3.92199260476048 -0.33985218831883
 6 -7.88155329552955  4.57491854865487 -1.13468627772777
 6 -8.41170420322032  3.67182631273127 -2.04509906230623
 6 -7.81080489198920  2.34559273337334 -1.62457622742274
 6 -8.32890516921692  5.97738910861086 -1.07210834543454
 6 -9.48596507490749  3.86547748604860 -3.03763631223122
 6 -8.93211219191919  3.88509987308731 -4.51072431913191
 7 -6.38922468976898 -0.07168234843484 -1.09629064946495
 6 -7.34583819051905 -0.09863076867687 -2.04717063966397
 6 -7.57723083968397 -1.35579073177318 -2.72941596619662
 6 -6.67123260696070 -2.16545031833183 -2.11182039193919
 6 -6.05749367286729 -1.41021505100510 -1.09780764546455
 6 -8.51257663236324 -1.54945473407341 -3.89421034043404
 6 -6.20566419351935 -3.56724583058306 -2.05914130803080
 8 -6.43642688328833 -4.61968693879388 -2.64639488518852
 6 -5.02637289078908 -3.54304607130713 -0.89695631643164
 6 -5.36132325992599 -4.61573677527753  0.10804795579558
 8 -5.70662484508451 -4.50810674407441  1.27948506880688
 8 -5.13962392559256 -5.89228311241124 -0.42861703310331
 6 -5.36501985118512 -6.99725331643164  0.47554508930893
 6  2.28030471207121 -5.21462772297230  0.65367334863486
 6  3.35213852395240 -4.29697119641964  0.95533681948195
 6  4.04277338103810 -3.32423224412441  0.16576895189519
 6  3.70447534483448 -3.27868105650565 -1.35513318211821
 6  5.03961816781678 -2.42488675687569  0.71895374627463
 6  6.42562816751675 -2.67781273427343  0.02947327322732
 6  7.50532965966597 -1.81703334913491  0.73130696529653
 6  8.85562417091709 -1.93634961696170  0.01769505630563
 6  9.53932101220122 -3.30929083158316  0.23247637263726
 6  9.93975941154116 -0.87147776867687  0.43805176857686
 6  11.31507466476648 -0.81021381648165 -0.29385469606961
 6  12.16860448104810  0.38151734223422  0.25741652985299
 6  13.55680507460746  0.42663235013501 -0.49104886208621
 6  14.32038021102110 -0.67843857385739 -0.16791347654765
 6  14.15432537073707  1.83196796899690 -0.12112975537554
 6  15.40007928882888  2.19406134143414 -0.97437454515452
 6  16.00857047674767  3.73770628062806 -0.59828092109211
 6  17.39876427112711  3.78578749424943 -1.44839588738874
 6  17.06992597469747  4.01193675637564 -2.85121744174417
 6  18.18267168636864  5.06112423842384 -0.94682563956396
 1 -2.46942244814481  1.34835169876988  3.47985559675968
 1 -6.36451733463346  5.65779198139814  0.59845960866087
 1 -8.76908210731073  1.28735299679968 -3.19023440434043
 1 -3.74386145134513 -3.13607672437244  1.90277601970197
 1 -1.74502558855886 -1.26948455665567  2.78393055905591
 1 -2.89862918811881 -2.78886546744674  4.05803574947495
 1 -3.02467906800680 -1.05808792649265  4.92613874977498
 1 -4.23601527732773 -1.83621153915391  4.00726394899490
 1 -2.17807497309731 -2.86756980198020 -0.54233196779678
 1 -1.21012171187119 -1.75567419481948  0.19334017531753
 1 -0.69295368546855 -2.85548552085209  2.23775831693169
 1 -1.57027650625062 -4.31935877217722  1.58197723442344
 1 -1.74946359845985  3.73336802350235  3.68509089018902
 1 -2.80978863286329  4.84289392849285  4.51084674757476
 1 -2.92178211071107  3.30110330443044  5.10720769756976
 1 -5.29313317261726  6.54537251975198  2.10142225802580
 1 -10.31247523002300  2.92808996089609 -3.00232138673867
 1 -10.18125560846085  4.85518305280528 -3.13312630523052
 1 -9.80586634753475  4.15250315031503 -5.20450676127613
 1 -8.34163812981298  4.87208914951495 -4.43331301310131
 1 -8.34083435833583  3.21665597949795 -4.99580369506951
 1 -8.33768034963497 -0.70149340704070 -4.72805277427743
 1 -8.49421904980498 -2.64929198949895 -4.18439778367837
 1 -9.59327257635764 -1.51610824542454 -3.62195648074807
 1 -4.06063783978398 -3.74415023802380 -1.55247017711771
 1  2.63778172197220 -6.22682997609761  1.04719310721072
 1  2.05516884348435 -5.31418994539454 -0.50411584668467
 1  3.29459544194419 -4.35189531183118  1.96941530563056
 1  2.76198365026503 -3.51369292419242 -1.52575522562256
 1  3.79386672467247 -2.21755645624562 -1.69615783328333
 1  4.62077458485849 -3.37128898519852 -1.99469092639264
 1  4.64781865086509 -1.47151269586959  0.23754414551455
 1  5.26232859125913 -2.30826514371437  1.81144503080308
 1  6.58508772877288 -3.71944624412441  0.12328164986499
 1  6.46548538803880 -2.31199341534153 -1.11729141534153
 1  7.12926372797280 -0.75514206850685  0.60847960126013
 1  7.63561247144714 -2.22438068656866  1.80295776817682
 1  8.68609450905091 -1.80329837053705 -1.03132135083508
 1  8.94427659305931 -4.12411127102710 -0.10123259345935
 1  10.46440947034703 -3.43252660736074 -0.44096167806781
 1  9.86673342094209 -3.52172790139014  1.25447641064106
 1  9.57176823772377  0.22652106250625  0.08095727012701
 1  10.08625758435844 -1.27938625792579  1.53573451075107
 1  11.61036296739674 -1.87942526422642 -0.19504881268127
 1  11.11603754395439 -0.61577321282128 -1.35291613531353
 1  11.71188120622062  1.26685975777578  0.30791358095810
 1  12.67427818651865  0.34493577687769  1.30790996609661
 1  13.39203994629463  0.54023876667667 -1.59480568536854
 1  14.53369359655966 -0.76972999029903  1.02554765226523
 1  13.92250263676368 -1.61133431233123 -0.35085133923392
 1  15.35964582108211 -0.58609193689369 -0.49247165016502
 1  13.34920416601660  2.72874117331733 -0.00066994429443
 1  14.50850846304630  1.68455486998700  0.94805363266327
 1  16.07162588968897  1.36325178667867 -0.79573738873887
 1  15.17984277977798  2.29145739713971 -2.14299783068307
 1  15.30069153125312  4.41474468216822 -1.21148242824282
 1  16.20751038493849  3.75356131553155  0.32703516231623
 1  18.00808062486249  2.86699020752075 -1.24294868276828
 1  16.33514065086509  4.82452973187319 -3.01822610151015
 1  17.99694208410841  4.19041543474347 -3.37018445204520
 1  16.88725341064106  3.04880979217922 -3.50976152935293
 1  18.33685155915591  4.96047670067007  0.15732489818982
 1  19.17682529332933  5.48665489198920 -1.47716985808581
 1  17.51008357815781  5.82345675577558 -1.04398275037504
 1 -5.04658254285428 -7.79123022242224 -0.07076139213921
 1 -6.32301279257926 -7.19431881328133  0.62062190549055
 1 -5.00388260566057 -6.95126500270027  1.42970583898390
 8 -7.85370826612661  6.84570460186019 -0.38379180758076
 1 -9.20170355415542  6.24472188788879 -1.72626109360936

