%nproc=3
%Mem=2GB
# td=(NStates=1) iop(3/107=0140000000,3/108=0140000000) iop(3/107=0140000000,3/108=0140000000) CAM-B3LYP/6-31G(d,p) 

TD

0 1
12 -5.58778450965097  1.25955598329833  0.19362203100310
 6 -4.91528164996500 -2.07236120082008 -0.40962402750275
 6 -3.43935539543954  1.13217575907591  2.85507694589459
 6 -6.15416183848385  4.52992101520152  0.62343470467047
 6 -7.84707562556256  1.23417209960996 -2.49691378527853
 7 -4.38983606810681 -0.20554647774777  1.02502266926693
 6 -4.23643886428643 -1.51040222162216  0.65926964546455
 6 -3.15511691339134 -2.22016321492149  1.46968255685569
 6 -2.92273642904290 -1.29104977467747  2.67341412801280
 6 -3.64483128312831 -0.06785593819382  2.15149580818082
 6 -3.45396750475047 -1.68175486808681  4.01833969336934
 6 -1.87438228152815 -2.61213520672067  0.65787997409741
 6 -0.92744050695069 -3.48662375027503  1.48032190909091
 6  0.27500336773677 -3.96963183528353  0.60638879998000
 8  0.45182903680368 -3.50458014681468 -0.54175419081908
 8  1.14088577077708 -4.73570871567157  1.22783877237724
 7 -5.06796534753475  2.63621385808581  1.52271895849585
 6 -4.13176726392639  2.39241725772577  2.59226445224522
 6 -3.82065260246025  3.61772185468547  3.31406035043504
 6 -4.63071882758276  4.55533399889989  2.65008089228923
 6 -5.36037539993999  3.93891856835684  1.56196134803480
 6 -2.93493211811181  3.82574965866587  4.45915978647865
 6 -4.73075577557756  5.90654068826883  3.02957839463946
 8 -4.31549403670367  6.49277410761076  4.03008698119812
 7 -6.94599624922492  2.59781771427143 -0.75176784448445
 6 -6.93293549134914  3.89972037753775 -0.38327653075308
 6 -7.89752489268927  4.57310836763676 -1.28673148224823
 6 -8.45064809760976  3.78910804090409 -2.16361091349135
 6 -7.80712452395240  2.46127430153015 -1.83215698549855
 6 -8.27966024472447  6.06881825152515 -1.21465259985999
 6 -9.39949642804280  3.95377631593159 -3.30270281888189
 6 -8.65158413911391  4.02203356645665 -4.68028127482748
 7 -6.41509727702770 -0.14135931613161 -1.04750577097710
 6 -7.29088269496950  0.02476157055706 -2.09448537113711
 6 -7.44113723032303 -1.33874902760276 -2.70941396599660
 6 -6.66388187188719 -2.18342211551155 -2.04737394729473
 6 -5.98360628412841 -1.39651368086809 -1.03141100580058
 6 -8.46701207590759 -1.70257004560456 -3.81953287268727
 6 -6.15493912101210 -3.59605871187119 -1.91485687958796
 8 -6.35915915651565 -4.48595356545655 -2.62071231693169
 6 -4.92696294979498 -3.53229499619962 -0.84855147594759
 6 -5.18659578717872 -4.62706790839084  0.17490464146415
 8 -5.73959814241424 -4.44085001840184  1.21374849514951
 8 -4.78756872007201 -5.76679056315632 -0.32113628502850
 6 -5.04305765496550 -6.88541213231323  0.48374590939094
 6  2.33716039763976 -5.15815207540754  0.61998998029803
 6  3.49864317441744 -4.19989148844884  1.02439372517252
 6  4.05763486718672 -3.27006682758276  0.15772814781478
 6  3.62528742604260 -3.18082127052705 -1.22320998979898
 6  5.17184139013901 -2.41980624882488  0.67439929082908
 6  6.48818442314231 -2.76937189018902 -0.02957263136314
 6  7.60135926262626 -1.90440208600860  0.53983781838184
 6  8.99912852135214 -2.07892387438744 -0.01283799699970
 6  9.61500858095810 -3.38523842634263  0.27863098809881
 6  9.96389182478248 -0.86687730863086  0.37461542494249
 6  11.28362151945194 -0.77132992809281 -0.23853916451645
 6  12.15622324292429  0.32435162566257  0.13796458465847
 6  13.32278167226723  0.48244793169317 -0.60202996019602
 6  14.27492566556656 -0.78505923592359 -0.41340802600260
 6  14.15196513471347  1.73887866006601 -0.23448109050905
 6  15.36334561546155  2.16530846614662 -1.08447555525553
 6  15.97274689438944  3.47574008400840 -0.70730182318232
 6  17.24695909060906  3.88153706920692 -1.41629267706771
 6  17.07587656975698  3.97429299199920 -2.96982930293029
 6  17.95912933213321  5.11682980898090 -0.79915087208721
 1 -2.81711721762176  1.03408027162716  3.58675628682868
 1 -6.37239812271227  5.59518572077208  0.76219598229823
 1 -8.67773297239724  1.19947420892089 -3.31501688258826
 1 -3.43418048324832 -3.21066418311831  1.82669841194119
 1 -1.75597668366837 -1.17249485768577  2.72871503750375
 1 -2.98880820602060 -2.43323990489049  4.59944989088909
 1 -3.45328192829283 -0.86652877057706  4.72934907080708
 1 -4.35281695749575 -2.08665658365837  3.99437265986599
 1 -1.91846901250125 -2.97212025702570 -0.25068280288029
 1 -1.20932163186319 -1.62673130053005  0.39571041234123
 1 -0.45045943604360 -2.94648462076208  2.35420996209621
 1 -1.42375185378538 -4.46960379667967  1.74638367506751
 1 -2.11122977507751  3.42588727542754  4.08414079517952
 1 -2.86353400740074  4.80605024412441  4.85688135103510
 1 -3.10939087158716  3.10815400950095  5.33917089388939
 1 -5.41084494379438  6.46031401390139  2.31525364116412
 1 -10.03524750725073  3.10216736863686 -3.55689684428443
 1 -9.83890137303730  4.80630816531653 -3.12104509710971
 1 -9.35717147804781  4.12825072507251 -5.47403371397140
 1 -7.97027099309931  4.78973091369137 -4.67681736353635
 1 -8.09335961086109  3.23871818571857 -4.77365147984798
 1 -8.06118269986999 -1.41649490719072 -4.93227319631963
 1 -8.75752538043804 -2.77939499979998 -3.73257260116012
 1 -9.61290453955396 -1.38383501810181 -3.57249153425342
 1 -3.91867364336434 -3.69442526552655 -1.25765069516952
 1  2.55126307010701 -6.20254754785479  0.90530891879188
 1  2.21473480008001 -5.09815834223422 -0.48249368446845
 1  3.87166314871487 -4.38826894919492  1.98012637673767
 1  2.60548800070007 -3.54311586648665 -1.60862351245125
 1  3.84532187018702 -2.13523822442244 -1.69262748024803
 1  4.33816632403240 -3.62538439473947 -1.62682413971397
 1  4.88744261326133 -1.30076562116212  0.69823021412141
 1  5.37238959735974 -2.38710302750275  1.89366325262526
 1  6.85515473547355 -3.79172347184718  0.23964328602860
 1  6.53253209270927 -2.82276449244925 -1.11266095229523
 1  7.33940474207421 -0.91388794309431  0.51817057035704
 1  7.46826573677368 -1.98394664316432  1.65978345074507
 1  9.12825872547255 -2.11797983868387 -1.21564978367837
 1  9.01683384878488 -4.28543740364036  0.02379990979098
 1  10.57359038843884 -3.63822717741774 -0.09143672557256
 1  9.70809755735574 -3.63759948854886  1.37733869686969
 1  9.41485254615461  0.13076148654866  0.31675084948495
 1  10.02727168576858 -0.80161848114811  1.45787672497250
 1  11.81679361046105 -1.71621894359436 -0.05808511631163
 1  10.99275521572157 -0.91837347284728 -1.33201404510451
 1  11.35480549864986  1.10599367116712  0.10356314591459
 1  12.41965272397240  0.07833911721172  1.29502867796780
 1  13.21112185448545  0.59894463726373 -1.74799100390039
 1  14.33111333853385 -0.96097911521152  0.78311340884088
 1  13.81821220772077 -1.64079725862586 -0.68437469156916
 1  15.13532338883888 -0.71230455815582 -0.92549495249525
 1  13.39006825242524  2.73434173337334 -0.26526640394039
 1  14.58705631783178  1.61826824132413  0.59530835813581
 1  16.23895262236223  1.37340280178018 -1.01035885088509
 1  15.24203899939994  2.07484573597360 -2.24708823972397
 1  15.10868233033303  4.14746795449545 -1.09093037303730
 1  16.03337297119712  3.35496145554555  0.44370682948295
 1  18.05568538533853  3.04657816631663 -1.20953534143414
 1  16.21610874767477  4.78498577747775 -3.07966224512451
 1  17.99745213511351  4.37497389058906 -3.48713614721472
 1  16.76330101540154  3.01396630783078 -3.43500405360536
 1  17.94024189818982  5.08277893089309  0.38257742344234
 1  19.10653826462646  5.13271949844984 -1.10117225832583
 1  17.55766833663366  5.96388079817982 -1.15018337043704
 1 -4.95161304590459 -7.82600369976998 -0.08316263226323
 1 -6.05246573787379 -6.88026740814081  0.61075091839184
 1 -4.50007222462246 -6.70341021722172  1.39033190159016
 8 -7.80963385868587  6.88042807420742 -0.50946437483748
 1 -9.07200058385839  6.22342975867587 -2.00178864636464

