%nproc=3
%Mem=2GB
# td=(NStates=1) iop(3/107=0140000000,3/108=0140000000) iop(3/107=0140000000,3/108=0140000000) CAM-B3LYP/6-31G(d,p) 

TD

0 1
12 -5.64802053325333  1.23606363406341  0.17694036283628
 6 -5.00725084688469 -2.11833579827983 -0.34223728882888
 6 -3.37805926582658  1.17533007450745  2.78454989318932
 6 -6.13223964626463  4.60881890499050  0.59006136733673
 6 -7.93120403840384  1.18510719311931 -2.39683377727773
 7 -4.32695978047805 -0.29422534563456  0.96190635763576
 6 -4.28630385078508 -1.59672085348535  0.68501221972197
 6 -3.20844224592459 -2.39871106970697  1.50546613521352
 6 -2.82194635003500 -1.32918358805881  2.60286707330733
 6 -3.49347614761476 -0.05343449604960  2.14665532413241
 6 -3.45353746174617 -1.82776946954695  3.97120497989799
 6 -2.00461530483048 -2.59255324852485  0.72968715481548
 6 -0.94037180008001 -3.53901898979898  1.36547042394239
 6  0.25459132653265 -3.79120399249925  0.53084124522452
 8  0.47963181708171 -3.41334102290229 -0.62243225862586
 8  1.01119280148015 -4.66920206500650  1.19322531103110
 7 -4.91139969096910  2.75027526422642  1.44544123072307
 6 -4.00797488468847  2.39281729772977  2.43499872567257
 6 -3.74373491069107  3.65464554705471  3.17883682808281
 6 -4.47788354405441  4.61078954445444  2.56680256445645
 6 -5.25348471087109  4.06865154165417  1.49068422032203
 6 -2.89096772167217  3.70576766046605  4.31257512801280
 6 -4.67823052305231  6.09033906810681  2.96149158595860
 8 -4.05158764606461  6.52861769196920  3.95574954745475
 7 -6.77842949254925  2.66140407290729 -0.79283195089509
 6 -6.91503370117012  3.96694710021002 -0.36788499159916
 6 -7.95211035123512  4.61513257005701 -1.19944275337534
 6 -8.37826085888589  3.63796292639264 -2.07548210061006
 6 -7.69454326582658  2.36314448854885 -1.74042781258126
 6 -8.33600587928793  6.00998236793679 -1.18719985458546
 6 -9.33789026742674  3.83652459075908 -3.18355090369037
 6 -8.62880186088609  3.88082944604460 -4.63956720342034
 7 -6.36896266356636 -0.12402758295830 -1.12176319671967
 6 -7.27852145884588 -0.02022292789279 -2.08900482308231
 6 -7.51231434803480 -1.32519767246725 -2.69303232783278
 6 -6.62218770247025 -2.20513428672867 -2.09256846674667
 6 -5.89998792229223 -1.42791682118212 -1.10200806550655
 6 -8.63424879957996 -1.70901068966897 -3.65884680408041
 6 -6.29514314141414 -3.57796690269027 -1.94220961486149
 8 -6.55716895749575 -4.44478944904490 -2.66199644534453
 6 -5.17185743924392 -3.58260002670267 -0.75454207500750
 6 -5.36958408600860 -4.67967316891689  0.30289744074407
 8 -6.00893507610761 -4.54889082248225  1.35632275257526
 8 -5.02121208440844 -5.89178306240624 -0.18877304870487
 6 -5.20666401560156 -7.12333592469247  0.61012854765477
 6  2.21940862246225 -5.09587584778478  0.59300728202820
 6  3.32208551865186 -4.16811831113111  0.93173445924592
 6  4.07814691839184 -3.33797361826183  0.12001437643764
 6  3.74425932323232 -3.19477266566657 -1.40841851065107
 6  5.21354556055606 -2.43056732493249  0.67361921282128
 6  6.46116172087209 -2.63210816381638 -0.00051972607261
 6  7.54644377107711 -1.79385103090309  0.65029886448645
 6  8.94479308780878 -1.97263324532453 -0.10400711391139
 6  9.48067514761476 -3.37953785628563  0.11116424142414
 6  9.95023045864587 -0.91401202210221  0.45352331573157
 6  11.32232538983898 -0.78700149524952 -0.23941925252525
 6  12.14327194779478  0.38879807030703  0.21210199839984
 6  13.48042743684368  0.55197488438844 -0.64851460866087
 6  14.42475064806481 -0.75157588758876 -0.55528221342134
 6  14.27775771397140  1.87382215441544 -0.21230887328733
 6  15.44107338823882  2.24103603890389 -1.12452956065607
 6  16.18759837953795  3.42349485948595 -0.54804589758976
 6  17.39105350005001  3.90506942244224 -1.26510755855586
 6  17.10646962906291  3.99399496219622 -2.80974329432943
 6  18.00386380558056  5.15850397639764 -0.63085404240424
 1 -2.72038754465447  1.17322418601860  3.68768637983798
 1 -6.36623750665066  5.63834003620362  0.71847160986099
 1 -8.52086728582858  1.17354161566157 -3.43751913281328
 1 -3.79390645584558 -3.15362847954795  2.01898764086409
 1 -1.65867695369537 -1.19554716291629  2.55222738873887
 1 -3.01422074727473 -2.70269685058506  4.43532347824783
 1 -3.56077267736774 -1.13955607330733  4.78898503440344
 1 -4.52063373917392 -2.04559247724772  3.63008623122312
 1 -2.18544571017102 -3.21232427742774 -0.08671640624062
 1 -1.45338603830383 -1.77316594399440  0.08244908620862
 1 -0.55627001710171 -3.03769374167417  2.22117665876588
 1 -1.43361283988399 -4.51278811511151  1.69766880358036
 1 -1.79550820292029  3.31949663636364  3.87910029112911
 1 -2.84485213921392  4.82301194029403  4.63947961086109
 1 -2.84432436493649  2.94398759285929  5.20388736553655
 1 -5.07813167246725  6.87404538703870  2.22113422922292
 1 -10.04484846734673  2.90226737863786 -3.11123227782778
 1 -9.91180866376638  4.76084361886189 -3.00908390099010
 1 -9.26834259515952  4.11366926692669 -5.35859216981698
 1 -7.82148611461146  4.70689262986299 -4.72789247104710
 1 -8.21470174507451  2.81327564146415 -4.93954806950695
 1 -8.33154973657366 -1.37222047974798 -4.66686665566557
 1 -8.82310193809381 -2.77845490579058 -3.75068441234123
 1 -9.55303855295529 -1.21812844744475 -3.37282156725673
 1 -4.20622239823982 -3.91514733773377 -1.28609353945394
 1  2.29314725852585 -6.18958625172517  0.88172656055606
 1  2.10274360096010 -5.06097462386239 -0.50668610371037
 1  3.72472845524552 -3.97525764806481  1.88789715381538
 1  2.76908436033603 -3.12159371427143 -1.35214786488649
 1  4.17368470647065 -2.06929162976298 -1.71477969546955
 1  4.23828633603360 -4.03282513881388 -1.93443490079008
 1  4.80636450545055 -1.36006155075508  0.70672106320632
 1  5.30042240064007 -2.48216253345335  1.84630851715171
 1  6.75644486448645 -3.66845114461446 -0.18262894119412
 1  6.50233907340734 -2.40297251325133 -1.06468615481548
 1  7.44437523912391 -0.72703925822582  0.57357611091109
 1  7.54905381558156 -1.89739798829883  1.71065853825383
 1  8.74911081068107 -1.67407544824482 -1.10095831453145
 1  8.66154832023202 -4.10315917581758 -0.05331780198020
 1  10.51407443684368 -3.65287864256426 -0.28367594949495
 1  9.84651139873987 -3.48014374297430  1.16413737673767
 1  9.53711477237724  0.12362077247725  0.53062223662366
 1  10.07615657425742 -1.18666698599860  1.56501743904390
 1  11.76369830093009 -1.82965028672867 -0.13362267006701
 1  11.26676261646165 -0.75553718921892 -1.37091793549355
 1  11.53692371047105  1.32370544234423  0.07963075267527
 1  12.39931068976898  0.45790707400740  1.18870804590459
 1  13.18207895019502  0.73585832863286 -1.64751095589559
 1  14.86581680888089 -0.84153717101710  0.42872797029703
 1  13.93087347384739 -1.70562374127413 -0.64820107420742
 1  15.33135299179918 -0.62086541424142 -1.32478488148815
 1  13.52058130373037  2.77940623982398 -0.21587146444644
 1  14.62793040524052  1.81730814531453  0.81811063836384
 1  16.19962868996900  1.36835229672967 -0.98741655665567
 1  15.16038083358336  2.29857810921092 -2.21786531743174
 1  15.42251371347135  4.27156036373637 -0.49717099709971
 1  16.38620825472547  3.38890484988499  0.52208466726673
 1  18.10020983778378  3.08448195669567 -1.10077446534653
 1  16.39372650945094  4.82013929282928 -3.06001027992799
 1  17.93720611051105  4.28198459165917 -3.56701413501350
 1  16.47617230253025  3.20099501070107 -3.29154970817082
 1  18.50957883188319  4.76642729572957  0.38151731743174
 1  18.80505811661166  5.60671689818982 -1.27538968006801
 1  17.35947851765177  5.90449485958596 -0.54734308640864
 1 -4.87263514811481 -7.99777087648765 -0.01554587058706
 1 -6.23969446074607 -7.03775315671567  0.88419826312631
 1 -4.48076029342934 -7.22746262246225  1.52986585498550
 8 -7.91013390869087  6.90859089048905 -0.47806123452345
 1 -9.15554893869387  6.18130554625463 -1.80285875337534

