%nproc=3
%Mem=2GB
# td=(NStates=1) iop(3/107=0140000000,3/108=0140000000) iop(3/107=0140000000,3/108=0140000000) CAM-B3LYP/6-31G(d,p) 

TD

0 1
12 -5.57178290949095  1.23902393009301  0.16577924672467
 6 -4.98098822062206 -2.17524148884889 -0.45288835393539
 6 -3.33146460636064  1.20445298679868  2.70390182838284
 6 -6.23808023032303  4.57122514561456  0.70249261046105
 6 -8.06796771477148  1.13641232363236 -2.43149724362436
 7 -4.37086417091709 -0.27336325942594  1.04707487448745
 6 -4.21288650905090 -1.56788797019702  0.66306002450245
 6 -3.16318772047205 -2.25163636223622  1.48553414201420
 6 -2.96341049644964 -1.34038470817082  2.64823160976098
 6 -3.56996379637964  0.03181402880288  2.15760641924192
 6 -3.55707781578158 -1.79412610521052  3.90258811821182
 6 -1.87400224352435 -2.60816480968097  0.71407559365937
 6 -0.99811757465747 -3.58978406630663  1.50745462236224
 6  0.18952481988199 -3.93662853495350  0.72242040314031
 8  0.46308016191619 -3.48707839663966 -0.36414643004300
 8  0.98194987718772 -4.83941908670867  1.47017300580058
 7 -4.89797834883488  2.58479871657166  1.51278796539654
 6 -3.93845793299330  2.46855487148715  2.51369659545955
 6 -3.66630716791679  3.70744082658266  3.16800574497450
 6 -4.55929168486849  4.64434289978998  2.57407329152915
 6 -5.30116947934794  3.99210388688869  1.52131728362836
 6 -2.65392401730173  3.82121920562056  4.22661653215322
 6 -4.78876157615762  6.06991702590259  3.01969740654065
 8 -4.18077056435644  6.59193402360236  3.95708968146815
 7 -6.96091774137414  2.56239417191719 -0.60787345504550
 6 -7.00345254305430  3.88874928042804 -0.30717892099210
 6 -7.96694183438344  4.54683574037404 -1.18176098519852
 6 -8.53495652845285  3.56071520162016 -2.04255880828083
 6 -7.88696250775078  2.37804597869787 -1.66238000780078
 6 -8.30145242394240  6.06300767046705 -1.21185231983198
 6 -9.47931440984098  3.78036897519752 -3.21055360396040
 6 -8.74251323202320  3.84580594369437 -4.54555780248025
 7 -6.39383515081508 -0.13747892809281 -1.09466048644865
 6 -7.29103270997100 -0.00085099069907 -2.05760168276828
 6 -7.48312142874287 -1.29420457315732 -2.79457248184818
 6 -6.61879736343634 -2.18104187748775 -2.13763297319732
 6 -5.94778270177018 -1.39571360086009 -1.20277814251425
 6 -8.43703907860786 -1.66898668726873 -3.93970488988899
 6 -6.05890951805181 -3.55893499949995 -2.07233262716272
 8 -6.44510775137514 -4.50837580768077 -2.77283752945295
 6 -4.98743899739974 -3.54682644934493 -0.91489811061106
 6 -5.36657378497850 -4.56852205380538  0.11512866386639
 8 -5.80585476807681 -4.45060099349935  1.25704282458246
 8 -4.99558952215222 -5.83749763386339 -0.38032220362036
 6 -5.30287363656366 -6.85971956305630  0.46342387718772
 6  2.29044572617262 -5.06206246644664  0.76693467476748
 6  3.27903121322132 -4.05092659195920  1.12879416521652
 6  4.10200930463046 -3.39603942484248  0.17428980398040
 6  3.80493539083908 -3.25658884728473 -1.30990865966597
 6  5.08655286128613 -2.32955722392239  0.71468331923192
 6  6.54450005470547 -2.61151610461046  0.11018134403440
 6  7.60402952965297 -1.64675632143214  0.50783461806181
 6  8.97622623112311 -1.98754473647365 -0.05464217741774
 6  9.45203228332833 -3.40874077657766  0.19423254825483
 6  10.03456889248925 -0.75896651755176  0.33017098049805
 6  11.36008916621662 -0.80288308340834 -0.42902821342134
 6  12.22392001260126  0.39079827032703  0.06659744794479
 6  13.63328272237224  0.48151783868387 -0.70667042424242
 6  14.48041621462146 -0.85246597659766 -0.53864054925493
 6  14.35504544274427  1.68002277447745 -0.14963260566057
 6  15.55451473237324  2.08768070337034 -1.03839094679468
 6  16.17245686538654  3.37888039803980 -0.69477057005701
 6  17.34400879557956  3.78237715321532 -1.35719676747675
 6  17.09416839893990  4.11002656535654 -2.85082740274027
 6  17.85786920612061  5.15854398039804 -0.70684164116412
 1 -2.81165667156716  1.13614047764776  3.59221683288329
 1 -6.31603248614861  5.75195139733973  0.61205096779678
 1 -8.76277147624762  0.91613587508751 -3.14320970187019
 1 -3.51143820902090 -3.24584770147015  1.83150889298930
 1 -1.86492757875788 -1.08481608980898  2.76613877987799
 1 -3.05640496569657 -2.81450803170317  4.25551549744975
 1 -3.53412001210121 -1.13617573527353  4.72679881578158
 1 -4.64958663446345 -1.99020693869387  3.69188241084108
 1 -2.17933509910991 -2.96247929292929 -0.41427916251625
 1 -1.38433913361336 -1.68627725512551  0.53247408870887
 1 -0.81533592369237 -2.90395036733673  2.31032557365737
 1 -1.69065854445445 -4.32054889118912  1.82446148284828
 1 -1.72651130323032  3.45862054875488  3.86731911301130
 1 -2.65006266026603  4.98067770687069  4.73665932883288
 1 -2.92278221072107  3.02250544464446  4.79880685748575
 1 -5.46380023932393  6.55081306380638  2.37574969076908
 1 -10.07367134963496  2.87763491539154 -3.17122827742774
 1 -10.17458494139414  4.71189872437244 -3.01861485408541
 1 -9.33783954485449  4.49766766676668 -5.52043835443544
 1 -8.05365933193319  4.57933987458746 -4.37591727352735
 1 -8.15098537343735  2.79998431233123 -4.81531564626463
 1 -8.33271985358536 -0.92293555125513 -4.79869983898390
 1 -8.35640526842684 -2.65312237253725 -4.24942428632863
 1 -9.50601385048505 -1.44567120172017 -3.54891917701770
 1 -4.13040481648165 -3.97528335133513 -1.37706263636364
 1  2.56923486728673 -5.93599089218922  1.06193458135814
 1  2.14726805340534 -5.35002352875288 -0.40390582568257
 1  3.51495747814781 -3.96175629792979  2.23476184028403
 1  2.75910336223622 -3.35983753865387 -1.47291994209421
 1  4.05078241624162 -2.30320502110211 -1.60628884638464
 1  4.21223373077308 -4.12891474777478 -1.90701215851585
 1  4.59722359135914 -1.50919646424642  0.47090748184819
 1  5.38535089348935 -2.15357967516752  1.71519540584058
 1  7.09833905390539 -3.57931223072307  0.26411573327333
 1  6.32243108260826 -2.59168138413841 -1.09477916411641
 1  7.28042884448445 -0.62189874417442  0.27860661396140
 1  7.93729263946395 -1.80035828432843  1.77768524092409
 1  8.66641254085409 -1.89922796349635 -1.19131735043504
 1  8.55834800020002 -4.25212407230723  0.03605113491349
 1  10.37341037043704 -3.80611396609661 -0.33313089498950
 1  9.89046579417942 -3.41436716531653  1.27335829882988
 1  9.60560162106210  0.33982239263926  0.17803697809781
 1  10.38916787538754 -0.88210652995300  1.40953189048905
 1  11.81085301640164 -1.71735905760576 -0.15898520632063
 1  11.17396333653365 -0.93050468596860 -1.45489633333333
 1  11.62683270137014  1.29719279107911 -0.00726793719372
 1  12.58683944264427  0.25987727102710  1.14002317741774
 1  13.45154589688969  0.71236597939794 -1.68990519531953
 1  14.66056628382838 -1.15810882818282  0.64373947144714
 1  13.98150853735374 -1.73018619751975 -1.18808506260626
 1  15.44615447194719 -0.54156748444845 -0.88074047704770
 1  13.56323556915692  2.50109840904090 -0.19111898919892
 1  14.29517712991299  1.47602401690169  0.85375420272027
 1  16.11671039813981  1.16131159265927 -1.07727554255425
 1  15.13919871537154  2.18052630403040 -2.13781731263126
 1  15.28883034513451  4.10344355205521 -0.63990527052705
 1  16.22222185608561  3.40856681608161  0.43415587438744
 1  18.23912372917292  3.21096460496050 -1.23615800370037
 1  16.28052518931893  4.52055933483348 -2.80637491639164
 1  18.08919130903090  4.46393278647865 -3.32825025862586
 1  16.95960064536454  3.27428233943394 -3.58179873307331
 1  18.21255912991299  5.07997865086509  0.44016318201820
 1  18.91810942174217  5.69342556905691 -0.99868200930093
 1  17.36229879967997  6.12378678877888 -0.68433678577858
 1 -4.78740662526253 -7.65820692009201 -0.09594391039104
 1 -6.34369486078608 -7.19994937633763  0.68453829712971
 1 -4.91387360476048 -6.80370024622462  1.49568243664366
 8 -7.92092498779878  6.91557158855886 -0.35909933833383
 1 -8.99548293209321  6.43010042574257 -1.92484095159516

