%nproc=3
%Mem=2GB
# td=(NStates=1) iop(3/107=0140000000,3/108=0140000000) iop(3/107=0140000000,3/108=0140000000) CAM-B3LYP/6-31G(d,p) 

TD

0 1
12 -5.62316804800480  1.21833186088609  0.19235190399040
 6 -4.98879900170017 -2.07395135983598 -0.39298236333633
 6 -3.41500296019602  1.16659920142014  2.73402484068407
 6 -6.05015143744374  4.60032805590559  0.62555491669167
 6 -8.14504542254226  1.19065774817482 -2.35783987788779
 7 -4.29526661116112 -0.22416833993399  0.97572773977398
 6 -4.19810503090309 -1.61918309970997  0.59928364686469
 6 -3.25955735743574 -2.35725692429243  1.51928751735173
 6 -2.85924007940794 -1.29805047474747  2.57129391599160
 6 -3.55331213121312 -0.00849000160016  2.08650930953095
 6 -3.39441154915492 -1.76329302190219  3.97629548894889
 6 -1.90311515481548 -2.65546954015402  0.74724891099110
 6 -0.94506226912691 -3.50535562346235  1.46721059795980
 6  0.31841770917092 -3.91487635973597  0.69329749084909
 8  0.49418327222722 -3.64496418521852 -0.49561957735774
 8  1.10882256445645 -4.65879102390239  1.36607259575958
 7 -4.90825937693769  2.72083231993199  1.46676336293629
 6 -3.95282937013701  2.43372138813881  2.44665989178918
 6 -3.75470600780078  3.62332241474147  3.14197314171417
 6 -4.50366612231223  4.67056552205220  2.57863374757476
 6 -5.24749411181118  3.95246992349235  1.48951410331033
 6 -2.87727635253525  3.79172625632563  4.30068393889389
 6 -4.47901060106011  6.13062309650965  2.73483892069207
 8 -3.97090957825783  6.68514334453445  3.62261623412341
 7 -6.97619926952695  2.59829776227623 -0.58492115981598
 6 -6.95917811561156  3.94347475297530 -0.33502170527053
 6 -7.89940508070807  4.67189824662466 -1.28940174927493
 6 -8.42310534333433  3.60805993609361 -2.01589614201420
 6 -7.77425123662366  2.35419359345935 -1.59468323812381
 6 -8.25898817751775  5.98199956965697 -1.15884701930193
 6 -9.50079655805581  3.73571450975097 -3.11023357195720
 6 -8.73871285198520  3.88249961306131 -4.42467571427143
 7 -6.37642340964096 -0.08159333953395 -1.04631565196520
 6 -7.46787039373937 -0.01424232983298 -1.98272419501950
 6 -7.58040115671567 -1.34694984768477 -2.72291531613161
 6 -6.62550803450345 -2.15694946824682 -2.11898110801080
 6 -5.97118504200420 -1.33687771727173 -1.13744160886089
 6 -8.65468084278428 -1.64053384198420 -3.75054597399740
 6 -6.30337396449645 -3.55003410941094 -2.00195558945895
 8 -6.54097733833383 -4.47777274737474 -2.66675692139214
 6 -5.13306355985599 -3.60361212791279 -0.90564718551855
 6 -5.39178630623062 -4.64910011161116  0.12430958195820
 8 -5.66802098469847 -4.55709164256426  1.28887600790079
 8 -5.22929289248925 -5.87952183628363 -0.34227839923992
 6 -5.43394674387439 -7.00771436253625  0.47612514731473
 6  2.35574225582558 -5.09223548374837  0.77242522382238
 6  3.47572088218822 -4.11801330063006  0.97919920572057
 6  4.06012511621162 -3.32977279817982  0.08514088908891
 6  3.67334223152315 -3.28316150455045 -1.32987065586559
 6  5.12326653265327 -2.43310757895790  0.48732058295830
 6  6.52070767546755 -2.73775872887289 -0.05062473657366
 6  7.64200332703270 -1.82510415621562  0.39751358595860
 6  8.95036364486449 -2.02355833783378 -0.24868158135814
 6  9.64341142124212 -3.43137303980398  0.05268839383938
 6  9.90588602420242 -0.86178679957996  0.31276924032403
 6  11.33098625592559 -0.79504229932993 -0.34759006960696
 6  12.16237385798580  0.25796498699870  0.26570735893589
 6  13.55267466156616  0.40092977987799 -0.45970572777278
 6  14.48948712171217 -0.76491722172217 -0.27797448264826
 6  14.26740667886789  1.84531930413041 -0.14562220462046
 6  15.45365464636464  2.26306824212421 -0.84784189188919
 6  16.04504412411241  3.63121563156316 -0.50091118411841
 6  17.34476887158716  4.00289920542054 -1.30049109690969
 6  17.14262324442445  4.12109767246725 -2.85858817881788
 6  17.90557397659766  5.16163428942894 -0.69712066906691
 1 -2.55548105400540  1.38074493809381  3.57588519971997
 1 -6.50978186108611  5.64128033023302  0.53172293499350
 1 -8.96193139223922  1.20583484498450 -3.10159554045405
 1 -3.82569963516352 -3.22606572327233  2.06281202330233
 1 -1.74628571457146 -1.04274188238824  2.57573973997400
 1 -2.94356368156816 -2.62265884678468  4.20106005190519
 1 -3.26317291739174 -0.93882600030003  4.67549368526853
 1 -4.52993466926693 -1.95260317831783  3.84762798539854
 1 -2.32523968956896 -3.18684172917292 -0.24401213581358
 1 -1.38174887458746 -1.78931755915592  0.38550939223922
 1 -0.57248163826383 -3.15651562386239  2.56154069516952
 1 -1.45631511011101 -4.56228306460646  1.64297333403340
 1 -1.87097574967497  3.45232991969197  4.16862924402440
 1 -2.93021067506751  4.90797043614361  4.50708637153715
 1 -3.31275120762076  3.51242443654365  5.12753973077308
 1 -4.88265212451245  6.80414839733973  1.85684780058006
 1 -10.13600758325832  2.81307845974597 -2.98968012261226
 1 -10.08539602250225  4.60798833333333 -3.09145213781378
 1 -9.53020878177818  3.65720362036204 -5.17587389798980
 1 -8.29002296829683  4.90783272387239 -4.30446012781278
 1 -7.86405668056806  3.18060237413741 -4.50966508120812
 1 -8.50865744734473 -1.16593985168517 -4.81991196019602
 1 -8.70994062196220 -2.64588164846485 -3.82405174907491
 1 -9.65098834793479 -1.31996863146315 -3.33770805590559
 1 -4.31671344734473 -3.91151697469747 -1.53449837993799
 1  2.54009195299530 -6.15264255735574  1.09250763866387
 1  2.06061938853885 -5.21305983238324 -0.29586502160216
 1  3.67825380778078 -4.10252037433743  1.98293665776578
 1  2.59170662256226 -3.80033158805881 -1.62872552265227
 1  4.03910124812481 -2.41709641024102 -1.72322053955396
 1  4.28826133353335 -3.88646050235024 -1.98989044634463
 1  4.85417928692869 -1.40934647924792  0.20163055415542
 1  5.34170652905291 -2.53014733193319  1.61216510281028
 1  6.68816803680368 -3.84977927742774  0.23127244894489
 1  6.53349218871887 -2.68974119011901 -1.21233091929193
 1  7.59362016361636 -0.67907446174618  0.11356010931093
 1  7.61829073927393 -1.84263251175118  1.59403687608761
 1  8.83315921552155 -1.93302134283428 -1.42555077377738
 1  9.07281944734473 -4.36669552945295 -0.22277474767477
 1  10.55671870127013 -3.60471382608261 -0.51549913181318
 1  9.80132688028803 -3.59403513211321  1.13521448444845
 1  9.44079514041404  0.05571398179818 -0.11280210581058
 1  10.21974093269327 -0.95859417871787  1.27416835413541
 1  11.80963289438944 -1.82743006470647 -0.06370567836784
 1  11.36868280848085 -0.56813844934494 -1.35762660636064
 1  11.61068108620862  1.32648572037204  0.10128291789179
 1  12.08992975167517 -0.09359807650765  1.37569674477448
 1  13.31294203650365  0.48334307710771 -1.64424062886289
 1  14.72770299749975 -1.19188220552055  0.79164426192619
 1  14.30462084858486 -1.62936611551155 -0.86138239233923
 1  15.60149000550055 -0.30008333603360 -0.60770317331733
 1  13.57777702330233  2.73159145834583  0.08901902460246
 1  14.64038165036504  1.87807422192219  0.97057588488849
 1  16.29294802190219  1.58966442794279 -0.68823663866387
 1  15.26913170867087  2.19422767416742 -1.84147767866787
 1  15.29469093119312  4.34524773247325 -0.75447672767277
 1  16.37243687758776  3.49988594799480  0.43445590439044
 1  17.93264308110811  2.96853036153615 -1.19662405030503
 1  16.15945308210821  4.90468774767477 -3.13519779867987
 1  17.96908929882988  4.44754114731473 -3.27192462606261
 1  16.84783946924692  3.01869678087809 -3.19712026522652
 1  17.99583745774577  5.01184183718372  0.41156032173217
 1  18.92190980178018  5.37298352485249 -1.08489063016302
 1  17.36030860066007  5.94082849294930 -1.01475982808281
 1 -4.99703758835884 -7.93190428982898  0.14814049804981
 1 -6.64498498979898 -7.21769115051505  0.41151099439944
 1 -4.99199141654165 -6.83486336253625  1.43735660406041
 8 -7.77819071437144  6.79027905930593 -0.39288271667167
 1 -9.02616600040004  6.30834825052505 -1.91760022752275

