%nproc=3
%Mem=2GB
# td=(NStates=1) iop(3/107=0140000000,3/108=0140000000) iop(3/107=0140000000,3/108=0140000000) CAM-B3LYP/6-31G(d,p) 

TD

0 1
12 -5.64313004420442  1.26808683638364  0.21397406620662
 6 -5.01254137593759 -2.19059302400240 -0.37580064516452
 6 -3.24892635253525  1.14900744224422  2.68588002620262
 6 -6.15189161146115  4.49450747384738  0.62058441964196
 6 -8.04698561656166  1.18783746614661 -2.36178027192719
 7 -4.43162024652465 -0.28132405550555  1.07591775877588
 6 -4.31560678107811 -1.62184336573657  0.61473519201920
 6 -3.19405080678068 -2.30864206280628  1.37016260486049
 6 -2.89990414581458 -1.32851352105211  2.50522730933093
 6 -3.53896069606961 -0.04040319291929  2.08076873547355
 6 -3.48112022002200 -1.89318601120112  3.87447530693069
 6 -1.94558940224022 -2.76445043824382  0.56843102920292
 6 -0.94743250615062 -3.57548263616362  1.39500337723772
 6  0.35231109850985 -3.91237610971097  0.60607876897690
 8  0.64543839773977 -3.46732642144214 -0.51448146354635
 8  1.13619530173017 -4.74002914771477  1.21908789728973
 7 -4.77978652965296  2.56987722442244  1.37092377897790
 6 -3.94961904910491  2.40447846384638  2.44812003780378
 6 -3.67548808600860  3.65064514701470  3.12680162456246
 6 -4.44248000370037  4.60156862236224  2.54654053825383
 6 -5.24033339573957  3.90915559205921  1.53669882178218
 6 -2.71770039493949  3.82572965666567  4.30560443094309
 6 -4.59902260226023  6.01014104830483  2.96906234303430
 8 -4.07614010131013  6.53980881108111  3.95948992149215
 7 -6.84377602720272  2.60367830033003 -0.77511017871787
 6 -6.84955715351535  3.91230163566357 -0.41373957705771
 6 -7.79311445164516  4.60295135193519 -1.21191400050005
 6 -8.32822585538554  3.65893502360236 -2.14162871527153
 6 -7.75626943844385  2.40336851095110 -1.70749451925193
 6 -8.34044632333233  6.00720208990899 -1.15575671027103
 6 -9.39492597099710  3.92473341164116 -3.17505005360536
 6 -8.67807678837884  4.09523088618862 -4.48950219691969
 7 -6.42434820212021 -0.11690687088709 -1.06888790919092
 6 -7.39081268796880 -0.04426533213321 -2.12311823442344
 6 -7.50948406500650 -1.31870702340234 -2.76787981258126
 6 -6.70923640734073 -2.20184395769577 -2.09289849974997
 6 -6.01039896339634 -1.44046807630763 -1.15367323202320
 6 -8.53425880058006 -1.62125191379138 -3.83047396679668
 6 -6.23139676677668 -3.56079518551855 -2.01003639753975
 8 -6.63367660826083 -4.54131910201020 -2.56773701940194
 6 -5.07647790129013 -3.56027779447945 -0.89970659145915
 6 -5.37854498209821 -4.61524672627263  0.16051320232023
 8 -5.73691787438744 -4.36137207060706  1.28478559885989
 8 -5.17519748294830 -5.84632851695170 -0.29678384978498
 6 -5.62121547074707 -6.92614620572057  0.58597613241324
 6  2.41673835543554 -5.17835409560956  0.69319730103010
 6  3.46610992109211 -4.17973947324732  1.07879916571657
 6  4.03787289098910 -3.31175099599960  0.19815219021902
 6  3.73111800910091 -3.15507869626963 -1.20736840564056
 6  5.11150535653565 -2.47601186938694  0.88370022092209
 6  6.47162276697670 -2.76127108010801  0.27250757665767
 6  7.56268539523952 -1.72714436023602  0.77615144974497
 6  8.92508111661166 -1.91015699769977  0.03409669646965
 6  9.54753183328333 -3.30203010551055 -0.08334520952095
 6  9.97392282788279 -0.90110073097310  0.58837680108011
 6  11.23642679998000 -0.72161495659566 -0.25876118671867
 6  12.22369999059906  0.39319851035104  0.28704949314931
 6  13.41755114921492  0.55653534043404 -0.51711146834683
 6  14.25587376037604 -0.75898662866287 -0.46648333353335
 6  14.28094803300330  1.90639541174117 -0.10431807420742
 6  15.41350063096310  2.11646358165817 -1.09774688238824
 6  16.03901352105211  3.54303681368137 -0.64406549954995
 6  17.43123751845184  3.91824073957396 -1.49811085888589
 6  16.99943892599260  4.10604616731673 -2.96309862986299
 6  18.10732415161516  5.15107323332333 -0.84603556055606
 1 -2.34806031193119  1.04585144874487  3.23220083128313
 1 -6.19193007590759  5.65892209440944  0.49985974867487
 1 -8.92884808390839  0.99266352785279 -3.30459584048405
 1 -3.79383644884488 -3.39856297299730  1.79819556165617
 1 -1.79120020602060 -0.97852546074607  2.85918808480848
 1 -2.85332465766577 -2.86487306820682  4.13297324322432
 1 -3.12817941804180 -1.20989310701070  4.62145828172817
 1 -4.55466714251425 -1.81175909390939  3.75822904550455
 1 -2.35090225582558 -3.40000304530453 -0.33952168676868
 1 -1.38880958065807 -1.90305893329333  0.15256609790979
 1 -0.65277966806681 -2.80274024632463  2.13668820992099
 1 -1.20409988858886 -4.58833566986699  1.86912594929493
 1 -1.67064571667167  3.59281396809681  4.01253363446345
 1 -2.81198885288529  4.74613425252525  4.66187185008501
 1 -3.00230016251625  3.27822101620162  5.18533551035104
 1 -5.49833369266927  6.62575055755576  2.61395351115112
 1 -9.89241322382238  3.07613476537654 -3.15072622722272
 1 -10.22392987588759  4.57783531803180 -2.72751574417442
 1 -9.30330609150915  3.98508640864086 -5.38310462106211
 1 -8.08421238723872  4.89829176977698 -4.52530221202120
 1 -7.97628790369037  3.31113542744274 -4.77272138683868
 1 -8.70433701530153 -0.96494975267527 -4.72426239523952
 1 -8.32324195209521 -2.62428948924892 -3.97709705360536
 1 -9.50013326242624 -1.55341197579758 -3.48671295639564
 1 -4.27215899189919 -3.91472729572957 -1.33053798389839
 1  2.47500544434443 -6.23188048114812  1.02520090799080
 1  2.37832115871587 -5.15964449084909 -0.45693112821282
 1  3.59546552895289 -4.36022614491449  2.05622398649865
 1  2.62821027292729 -3.32022357725773 -1.38075072517252
 1  3.83473081108111 -2.01370607120712 -1.56500471797180
 1  4.49162166956696 -3.87503936023602 -1.65424688198820
 1  4.88852272127213 -1.36360190479048  0.67274766586659
 1  5.03845620402040 -2.56354067126713  1.94000788708871
 1  6.76581580158016 -3.93897819731973  0.39326864856486
 1  6.36275511501150 -2.69018123412341 -0.93058274447445
 1  7.32634343594359 -0.75226178047805  0.70625937923792
 1  7.82349125932593 -2.03893214171417  1.87534500690069
 1  8.74438033763376 -1.40881892259226 -1.00827904660466
 1  8.83134529992999 -4.18865772567257 -0.58223069326933
 1  10.62616564596460 -3.30466382108211 -0.56380396229623
 1  9.87453420102010 -3.84071980058006  1.00958192119212
 1  9.50470153105310  0.12850126052605  0.76876605100510
 1  10.54353331193119 -1.25549386868687  1.70536147344734
 1  11.66598852995300 -1.67034435613561 -0.18859816761676
 1  10.81188712891289 -0.63112474797480 -1.17896874057406
 1  11.49015903400340  1.19306237803780  0.23407619721972
 1  12.64042480118012  0.02674395769577  1.27570674577458
 1  13.07169791209121  0.90069481228123 -1.61400760556056
 1  14.59181940914091 -0.99436245354536  0.47916301380138
 1  13.52645303180318 -1.52894607350735 -0.95004125822582
 1  15.16724658115811 -0.76441976967697 -1.11273367636764
 1  13.61160040564056  2.74780307950795 -0.26363624092409
 1  14.71057867006701  1.91450786528653  0.88172700000000
 1  16.17649637673767  1.56120158165817 -1.21632944794480
 1  15.06731152665266  2.29397764916492 -2.08498202910291
 1  15.19735119721972  4.43089629732973 -0.75397667766777
 1  16.30540017391739  3.54805076447645  0.38377083588359
 1  18.05555537233723  2.93490699919992 -1.45548993689369
 1  16.11474861166116  4.66234351325132 -2.96999127802780
 1  17.96401879177918  4.34643103630363 -3.42612004560456
 1  16.64072875817581  3.27331224242424 -3.47235778897890
 1  18.42137001100110  4.89029968296830  0.16469563526353
 1  18.89099671047105  5.49907613411341 -1.28887102820282
 1  17.24009657945795  5.97177158725873 -0.87606595869587
 1 -5.33901178577858 -7.90199129852985 -0.01877619361936
 1 -6.63902439373937 -6.97849723112311  0.80788063136314
 1 -5.08729094649465 -6.96810668686869  1.62973584198420
 8 -7.90099299459946  6.85841587298730 -0.41973540194019
 1 -9.06353973777378  6.32658007370737 -1.87825629312931

