%nproc=3
%Mem=2GB
# td=(NStates=1) iop(3/107=0140000000,3/108=0140000000) iop(3/107=0140000000,3/108=0140000000) CAM-B3LYP/6-31G(d,p) 

TD

0 1
12 -5.72447817901790  1.25037506520652  0.31942461126113
 6 -4.97849797159716 -2.17056102080208 -0.40641370647065
 6 -3.50242170207021  1.13302584408441  2.81382282048205
 6 -6.15335175747575  4.53101112421242  0.59364172537254
 6 -7.89763068106811  1.13732241464146 -2.37809190309031
 7 -4.47840492499250 -0.29925584868487  1.08737890489049
 6 -4.35235045544554 -1.60883206460646  0.73776749524953
 6 -3.21217261896190 -2.29080027862786  1.51049663826383
 6 -2.93591774717472 -1.29354002370237  2.66855364196420
 6 -3.65219201920192 -0.04133328592859  2.19509016761676
 6 -3.45256736473647 -1.86486317891789  4.03072093149315
 6 -1.90613545684568 -2.61605559875988  0.64064825092509
 6 -0.95571333423342 -3.55174026192619  1.45735961286129
 6  0.17126299369937 -3.87982285438544  0.71282944404440
 8  0.39445329922992 -3.48959864866487 -0.40579059445945
 8  1.11137281948195 -4.62693783858386  1.46535252375238
 7 -4.99803835483548  2.64847508420842  1.51894858145815
 6 -4.09689377657766  2.39740775677568  2.45541076687669
 6 -3.74040457765777  3.58985906840684  3.09219816421642
 6 -4.48714447014701  4.56234469997000  2.56649253345335
 6 -5.25885524792479  3.87210188668867  1.51832698459846
 6 -2.76697532243224  3.72278936263626  4.27904177467747
 6 -4.58354105410541  5.98292832703270  2.99612504930493
 8 -3.87589007630763  6.54776960716072  3.86440041254125
 7 -6.84593624322432  2.56700463296330 -0.70229289698970
 6 -6.97275947374737  3.94332473797380 -0.37566576967697
 6 -7.83666880708071  4.62905396219622 -1.22546535563556
 6 -8.36185921872187  3.65735486558656 -2.15703025542554
 6 -7.69666347784779  2.40990916501650 -1.77776154595460
 6 -8.13734601330133  6.05038640834083 -1.28684981958196
 6 -9.34561103950395  3.90306124442444 -3.25440798939894
 6 -8.64202318301830  4.02195355845585 -4.64184743144314
 7 -6.41472724002400 -0.19119429962996 -1.11322234263426
 6 -7.30303391009101 -0.08095900150015 -2.03835975857586
 6 -7.61565468206821 -1.28157331003100 -2.71202422702270
 6 -6.56926240994100 -2.21239501280128 -2.16584579447945
 6 -5.95720364386439 -1.45682971247125 -1.13168103280328
 6 -8.55936131083108 -1.61806159475948 -3.78746966636664
 6 -6.13395702280228 -3.59952905890589 -2.09381477537754
 8 -6.43920716131613 -4.49636460656066 -2.80568081378138
 6 -4.91613186668667 -3.63487525422542 -0.90919754055406
 6 -5.37616474407441 -4.57064226582658  0.24611176217622
 8 -5.78707288988899 -4.36193212661266  1.33311043134313
 8 -5.00806076927693 -5.80988487258726 -0.37627179857986
 6 -5.46035938513851 -7.02000559165917  0.48805634043404
 6  2.31216789838984 -5.05359161936194  0.80655863716372
 6  3.38263157325733 -4.12267376667667  1.13177446324632
 6  4.08149725342534 -3.24050387128713  0.28801117611761
 6  3.70438533583358 -3.08079126752675 -1.17970563936394
 6  5.17142134813481 -2.21894616281628  0.78793064396440
 6  6.47135273997400 -2.59964491749175  0.03104343024302
 6  7.57679680638064 -1.74655630143014  0.51985582018202
 6  8.98967757625763 -2.04688067006701 -0.24388110131013
 6  9.58446552665266 -3.37280718321832 -0.09412628762876
 6  10.00783621922192 -0.96214683558356  0.20913887728773
 6  11.35063822112211 -1.04000679577958 -0.37522283288329
 6  12.28673629422942  0.09142833333333  0.10704149234923
 6  13.53366276037604  0.43869355625563 -0.68862862006201
 6  14.46188436143614 -0.76064679467947 -0.51034771997200
 6  14.27859779797980  1.74360913311331 -0.14383202560256
 6  15.47614689558956  2.20866280158016 -1.03095020272027
 6  15.95067468716872  3.53539604960496 -0.58693978697870
 6  17.20469486418642  4.00338925442544 -1.29687073487349
 6  17.04492347444745  4.11221678437844 -2.82179449944994
 6  17.71208462766277  5.31961008700870 -0.74906586358636
 1 -2.81420692659266  1.20912777637764  3.57006461766177
 1 -6.36476735963596  5.57623382558256  0.77705746844684
 1 -8.75785098419842  1.34742900440044 -3.02276765766577
 1 -3.80770783598360 -3.26573969066907  1.90040578267827
 1 -1.78840992699270 -0.85676328452845  2.53390555655566
 1 -2.84200352555256 -2.63211979287929  4.50223016891689
 1 -3.34078067816782 -1.16481859955996  4.75436157205721
 1 -4.45957763356336 -2.05247316531653  3.87552077467747
 1 -2.37505467106711 -3.17106015101510 -0.20157789238924
 1 -1.58061876157616 -1.66108473587359  0.23633447474747
 1 -0.56770116021602 -2.75867583988399  2.24123866496650
 1 -1.67893737233723 -4.37772460876088  1.78060709740974
 1 -1.83924257635764  3.26830151685169  4.06117849894990
 1 -2.91316897089709  4.59461910101010  4.77432309520952
 1 -3.05923585608561  3.00539373347335  5.01308828562856
 1 -5.22245610491049  6.71007899039904  2.48733084888489
 1 -10.04503848634863  3.01884903680368 -3.22755390999100
 1 -10.02993047594760  4.72258979347935 -3.03862685528553
 1 -9.52550831173117  3.85562346234623 -5.42409872047205
 1 -8.19496346234623  5.08900084068407 -4.89290897269727
 1 -7.81094136903690  3.47006132003200 -4.63789790449045
 1 -8.45706228782878 -1.03051630933093 -4.66125609460946
 1 -8.45464509240924 -2.73088014831483 -4.11939128302830
 1 -9.63240648974898 -1.40019665426543 -3.35810009510951
 1 -4.20620239623963 -4.17650347334733 -1.60344527462746
 1  2.63359130293029 -5.97015430853085  1.17619600750075
 1  2.18703202980298 -5.09149767616762 -0.28287372247225
 1  3.65268125052505 -4.08936905920592  2.17995635973597
 1  2.61498895079508 -3.04232578747875 -1.12250490059006
 1  4.07644498249825 -2.09911461206121 -1.55401361886189
 1  4.12292479987999 -3.84295615191519 -1.90494195149515
 1  4.80971484048405 -1.15451099569957  0.63566395749575
 1  5.51838419681968 -2.35056937413741  1.92328621492149
 1  6.69462868286829 -3.65969026852685  0.30168949064906
 1  6.33047188668867 -2.50785300130013 -1.09293898009801
 1  7.61735253685369 -0.71942849714971  0.35364411771177
 1  7.64736364656466 -1.87838608710871  1.63282075447545
 1  8.83211911151115 -1.85965400610061 -1.31121934063406
 1  8.60408257365737 -4.14266312621262 -0.13899636983698
 1  10.17066009540954 -3.70693404810481 -0.97562514441444
 1  10.15771251885188 -3.55309103770377  1.07640860386039
 1  9.72770383128313  0.01269968036804 -0.10436126172617
 1  10.11255021362136 -0.91377969726973  1.22086302360236
 1  11.75918784988499 -2.01128845054505 -0.19080838863886
 1  11.27701364156416 -0.94635627112711 -1.42292313601360
 1  11.58842886098610  1.03913698549855  0.23155594519452
 1  12.59849060776078 -0.22950166686669  1.22587176227623
 1  13.06355709800980  0.62503724652465 -1.67088329312931
 1  15.04383461066107 -0.88210122742274  0.53438853635364
 1  14.13011339783978 -1.83270644954495 -0.51227748184818
 1  15.25610546704671 -0.77555088278828 -1.14334673767377
 1  13.56670591619162  2.65139343854386 -0.07480735803580
 1  14.77549516171617  1.24786120062006  0.94309313661366
 1  16.31308003510351  1.36027148864886 -1.00696851185119
 1  15.16600139563957  2.43853210461046 -2.07954148504851
 1  14.99976143824382  4.21102431013101 -0.71563284328433
 1  16.19462909680968  3.64590054945495  0.58713117191719
 1  17.98257807460746  3.26865037353735 -0.92156654455446
 1  16.16653379017902  4.89951723062306 -2.97033131203120
 1  17.99292168206821  4.40310670387039 -3.26660409400940
 1  16.56238092339234  3.28513342454245 -3.21606215941594
 1  17.65782365636564  5.32810346334633  0.31612077777778
 1  18.89197680848085  5.58774500100010 -0.94631677277728
 1  17.08864143394339  6.21222563266327 -1.01427978007801
 1 -5.06417430203020 -7.85230633003300  0.05861154515452
 1 -6.53546403770377 -7.04642402380238  0.57137698099810
 1 -5.12435465286529 -6.99269914611461  1.49111197959796
 8 -7.79500239553955  6.88291832323232 -0.48800222862286
 1 -8.84715809960996  6.25729314501450 -2.12787125462546

