%nproc=3
%Mem=2GB
# td=(NStates=1) iop(3/107=0140000000,3/108=0140000000) iop(3/107=0140000000,3/108=0140000000) CAM-B3LYP/6-31G(d,p) 

TD

0 1
12 -5.62449818101810  1.22151217891789  0.13098576737674
 6 -4.96831695349535 -2.11401536623662 -0.39445251035104
 6 -3.33407486738674  1.15065760726073  2.82713415161516
 6 -6.22651907420742  4.51676970007001  0.63943630483048
 6 -8.00123104110411  1.13005168756876 -2.41285537943794
 7 -4.38073515801580 -0.19048497159716  1.07881804880488
 6 -4.30736595699570 -1.56204738613861  0.73463718221822
 6 -3.25950735243524 -2.32939413801380  1.46992258085809
 6 -3.02734689008901 -1.44669533923392  2.63947073367337
 6 -3.60903770377038 -0.07280643324332  2.13162382098210
 6 -3.63319542754275 -1.79387608020802  4.02578043744374
 6 -1.93659850315032 -2.64296829002900  0.61493567966797
 6 -0.96800456335634 -3.55089017691769  1.37463134003400
 6  0.32046791419142 -3.90142501460146  0.59377753885389
 8  0.52094594849485 -3.45158484728473 -0.51769178457846
 8  1.21651333353335 -4.60587573237324  1.31586757525753
 7 -4.85867441844184  2.61243147984798  1.46348303490349
 6 -3.85863995119512  2.45937395339534  2.45451067686769
 6 -3.78169870707071  3.63195327782778  3.09090803520352
 6 -4.57215297099710  4.59585805130513  2.57974385858586
 6 -5.18157752015202  3.82820749724972  1.41217636953695
 6 -2.82330095499550  3.85963304700470  4.30035390589059
 6 -4.81063376337634  5.95127516171617  2.99824526132613
 8 -4.07671015831583  6.47887271747175  3.84974894739474
 7 -6.93966561616162  2.62424035653565 -0.64996766446645
 6 -7.03375557335734  3.93084348984898 -0.30265846894689
 6 -7.98403354355436  4.53576463326333 -1.19966277537754
 6 -8.51178421122112  3.56190532063206 -2.00881543394339
 6 -7.75187899939994  2.38196637073707 -1.74243801360136
 6 -8.19563184188419  6.02173354305430 -1.18590972557256
 6 -9.44984146254625  3.77062800110011 -3.17335988458846
 6 -8.67605658635864  3.84267563066307 -4.47653089978998
 7 -6.36087185448545 -0.21073625382538 -1.04629564996500
 6 -7.43341694839484 -0.00884178977898 -2.08609453205321
 6 -7.65345846244624 -1.32992814551455 -2.59580260486049
 6 -6.70950643434344 -2.18485225852585 -2.07524673457346
 6 -5.93241116461646 -1.45487951745175 -1.16197406210621
 6 -8.55968134283428 -1.59022881148115 -3.79755067446745
 6 -6.20700432753275 -3.49618872487249 -2.04278967286729
 8 -6.63635687628763 -4.54656962706271 -2.63165341104110
 6 -5.02632288578858 -3.49322108880888 -0.89805642644264
 6 -5.38877600520052 -4.67783298489849  0.07737488848885
 8 -5.76959114171417 -4.44588052145215  1.22953007330733
 8 -5.13245320852085 -5.87167105120512 -0.38805297669767
 6 -5.41101445064506 -6.97514110521052  0.47068460326033
 6  2.41155783738374 -5.00640690089009  0.65864384568457
 6  3.51608491859186 -4.03876537583758  1.11084237003700
 6  4.04828393209321 -3.08594841574157  0.22704507950795
 6  3.64200909820982 -2.96947013541354 -1.26873454225423
 6  5.13695790179018 -2.23989825802580  0.75100695159516
 6  6.49228483318332 -2.48185313831383 -0.03140281438144
 6  7.60985011171117 -1.74956660246025  0.61855569016902
 6  9.02031063956396 -1.84254023602360 -0.10048676187619
 6  9.42606968706871 -3.28769867236724  0.14304742974297
 6  10.03672910851085 -0.86942756365637  0.39284724812481
 6  11.30204336163616 -0.77036983208321 -0.39965527612761
 6  12.24666228682868  0.32507169766977  0.05832662086209
 6  13.63383277737774  0.45813550045004 -0.63334309150915
 6  14.42264043704371 -0.81671240124012 -0.30509719491949
 6  14.29996993519352  1.75665043724372 -0.18053569596960
 6  15.46875615651565  2.07955989128913 -1.04610171787179
 6  16.02358197789779  3.56539904990499 -0.70393148614861
 6  17.41416581128113  3.81031994749475 -1.31480252805281
 6  17.41930091219122  3.72622818551855 -2.78553087308731
 6  17.98707212641264  5.19150727672767 -0.76536749374938
 1 -2.74011951785178  1.14911177477748  3.83630124132413
 1 -6.25153603650365  5.53629983218322  0.95594535723572
 1 -8.67364256335633  1.02934719621962 -3.10529591049105
 1 -3.75228229342934 -3.26889000570057  1.77247298939894
 1 -1.89701078707871 -1.32184979317932  2.82923508950895
 1 -3.10834015921592 -2.56321290219022  4.42684263016302
 1 -3.81812841294129 -1.09793191089109  4.96004214011401
 1 -4.74629630543054 -2.00820873887389  3.91165438803880
 1 -2.19390655625563 -3.31485453045305 -0.25900363496350
 1 -1.31203190289029 -1.80772940034003  0.35513635493549
 1 -0.51227561766177 -3.16701667396740  2.29820436153615
 1 -1.42761223982398 -4.77226406270627  1.49604864156416
 1 -1.77018567066707  3.46729141584158  4.15277765886589
 1 -2.70738839283928  4.94670430953095  4.25858152105210
 1 -3.14134406690669  3.36303949804981  5.31213819061906
 1 -5.61994585388539  6.69415739823982  2.48765088088809
 1 -10.17352133463346  2.94194134603460 -3.16808796339634
 1 -9.96252373527353  4.86829436393639 -3.15599859245925
 1 -9.37560332123212  3.79264716471647 -5.25895220582058
 1 -8.17932189818982  4.70745268586859 -4.69796947874787
 1 -7.85319559445945  2.99813412731273 -4.49013312801280
 1 -8.59462604420442 -0.62506576427643 -4.58469843884388
 1 -8.21642127002700 -2.67087414771477 -4.35760510441044
 1 -9.61158440754075 -1.71462809740974 -3.16734101920192
 1 -4.00131190719072 -3.81919774277428 -1.28468339843984
 1  2.56479442324232 -6.06141343444344  0.92843123102310
 1  2.25283861046105 -4.98049657605761 -0.37486292139214
 1  3.56410239263926 -3.74591471377138  2.16909527362736
 1  2.54020147204721 -3.07742929782978 -1.35688833893389
 1  4.05821315931593 -1.93997869846985 -1.56788500600060
 1  4.26731923932393 -3.53880573687369 -1.82343380068007
 1  4.69005287428743 -1.15942148674867  1.01668205930593
 1  5.18899125752575 -2.69518383558356  1.83638752505251
 1  6.64642386238624 -3.62602690219022 -0.02750342864286
 1  6.31238007750775 -2.29213142914291 -1.03608329452945
 1  7.49081988358836 -0.66984353865387  0.77093584688469
 1  7.80001891209121 -2.20278852735274  1.57888536093609
 1  8.94785068466847 -1.66749479017902 -1.04398261696170
 1  8.57337950335033 -4.12274113401340 -0.08106057625763
 1  10.15238826822682 -3.65482883758376 -0.55434301620162
 1  9.66420316791679 -3.35681140974097  1.22170313331333
 1  9.47002806370637  0.08534694509451  0.65733490789079
 1  10.37059601820182 -1.00328864816482  1.47380831813181
 1  11.63583551465146 -1.89843716541654 -0.59887919571957
 1  11.09001494169417 -0.38716035153515 -1.44282512621262
 1  11.86171618971897  1.19237230903090 -0.16291350175018
 1  12.61586234493449  0.20288157145715  1.01631080618062
 1  13.36643738603860  0.64301904470447 -1.54455065986599
 1  14.65493572077208 -1.13664668196820  0.70646574407441
 1  14.10403078957896 -1.52528570747075 -1.13769002310231
 1  15.57858771527153 -0.51907523522352 -0.67592999599960
 1  13.55876512211221  2.53958225742574 -0.05289516681668
 1  14.68054566676668  1.63777019151915  0.86645547284728
 1  16.25830455755575  1.27668312981298 -0.96964477947795
 1  15.28924371987199  2.08872712411241 -2.04413794469447
 1  15.33408487058706  4.48272147984798 -0.91164244424442
 1  16.08045767966797  3.60554651405141  0.30996345514551
 1  18.13037285408541  3.06332984148415 -0.99887427532753
 1  16.79680681748175  4.50047732663266 -3.03793807270727
 1  18.38998138803880  3.91243763696370 -3.25410284388439
 1  17.06358104340434  2.77347225842584 -3.12599315251525
 1  17.95371324532453  5.25728638163816  0.41122028772877
 1  19.09937754855486  5.11079730623062 -1.21433357445745
 1  17.35476804660466  6.06763117321732 -1.24822317441744
 1 -5.55409329392939 -7.86762786218622 -0.09310362636264
 1 -6.50613110441044 -6.94829421082108  0.70013985728573
 1 -4.66788900630063 -6.97894777097710  1.21925479387939
 8 -7.70235313061306  6.83303333473347 -0.46077950635063
 1 -8.98014139793979  6.32552996869687 -1.98161662916292

