%nproc=3
%Mem=2GB
# td=(NStates=1) iop(3/107=0140000000,3/108=0140000000) iop(3/107=0140000000,3/108=0140000000) CAM-B3LYP/6-31G(d,p) 

TD

0 1
12 -5.68427415861586  1.18901892959296  0.37502017081708
 6 -5.03831395319532 -2.01902586728673 -0.33578664376438
 6 -3.36878833873387  1.16970951245125  2.85747718591859
 6 -6.26557297959796  4.55588361146115  0.73568592979298
 6 -8.04618553655366  1.12396107850785 -2.32572666656666
 7 -4.46404348884889 -0.27821374447445  1.18645881288129
 6 -4.26890211061106 -1.60785196659666  0.72426614511451
 6 -3.17482888458846 -2.29582078067807  1.53463905250525
 6 -2.86391054645465 -1.23770444014401  2.79328611521152
 6 -3.64958175817582 -0.07010616321632  2.29608026662666
 6 -3.50106221422142 -1.90618731133113  4.09219707910791
 6 -1.93073791709171 -2.58453244644464  0.69157334343434
 6 -0.85905366826683 -3.38815390329033  1.60076395329533
 6  0.33544941234123 -3.92510738283828  0.64664282538254
 8  0.37379123302330 -3.52639232803280 -0.59483949934993
 8  1.11298298049805 -4.85146029082908  1.18212420092009
 7 -4.92396094709471  2.60290052675268  1.48481516811681
 6 -3.95534962216222  2.40955897189719  2.47551277707771
 6 -3.70089062626263  3.66194627712771  3.16083502790279
 6 -4.58253400910091  4.58867733323332  2.59785566976698
 6 -5.31373073547355  3.98884356085609  1.53065821772177
 6 -2.79892851775177  3.77798488218822  4.30253412391239
 6 -4.62340504050405  6.03603363756376  2.92466790359036
 8 -3.99922240954095  6.69893472367237  3.60520449294930
 7 -6.98840048964896  2.64699263176318 -0.71730439813981
 6 -6.96196839463946  3.94706511201120 -0.33569177227723
 6 -7.92071721192119  4.63782483928393 -1.30606341544154
 6 -8.44165719851985  3.68961809190919 -2.01952650505050
 6 -7.86880069156916  2.35359353345335 -1.72726649644964
 6 -8.23452573127313  6.01897326702670 -1.26300743534353
 6 -9.48715519391939  3.75110604890489 -3.14077662626263
 6 -8.82687166786679  3.97923928702870 -4.54458770547055
 7 -6.41471723902390 -0.05891107130713 -1.08406942734273
 6 -7.28496210291029 -0.04658556415642 -2.16783270587059
 6 -7.49698281488149 -1.27004215691569 -2.80329335393539
 6 -6.59996548024803 -2.20412418571857 -2.18249745964596
 6 -6.00049797329733 -1.38835286478648 -1.05577344204420
 6 -8.34206958165817 -1.69957974657466 -3.91585250465047
 6 -6.08930255735574 -3.60492959895990 -1.96085147904790
 8 -6.41515475607561 -4.57619258935894 -2.69785003070307
 6 -5.03312356585659 -3.50851261796180 -0.86797341814181
 6 -5.28141526912691 -4.59776497809781  0.22303945494549
 8 -5.70743492609261 -4.41956789018902  1.24518163846385
 8 -5.10096005920592 -5.79220310441044 -0.41728589999000
 6 -5.45299864906491 -6.92722631373137  0.30268780358036
 6  2.42437911951195 -5.11628788898890  0.45689367066707
 6  3.38469177927793 -4.12151365066507  0.91233251905191
 6  4.15716482018202 -3.26741656255626  0.12872524752475
 6  3.65407030433043 -3.03417660606061 -1.28809647844784
 6  5.18746295229523 -2.33766803500350  0.70068191909191
 6  6.53013861856186 -2.68677363036304  0.14412473837384
 6  7.73284241094109 -1.98467011281128  0.80997483208321
 6  9.04143275177518 -2.05897187918792 -0.08499521272127
 6  9.69865694579458 -3.40020992349235  0.06421954695470
 6  9.97413284888489 -0.85301592249225  0.42396035943594
 6  11.31625478277828 -0.83695649074907 -0.32592790339034
 6  12.33589120972097  0.18714790529053  0.27263805200520
 6  13.61328072217222  0.39422910981098 -0.59834959215922
 6  14.42236040904090 -0.81024175417542 -0.27606429162916
 6  14.18163810201020  1.81813658585859 -0.25319296169617
 6  15.41581086198620  2.05903783908391 -1.05860296799680
 6  15.88775839553955  3.51540405040504 -0.71877297029703
 6  17.12036643134313  3.92466138163816 -1.39918096589659
 6  17.14419340144014  4.10258582128213 -2.88209052905291
 6  17.74947836703670  5.20358848484849 -0.70427138413841
 1 -2.70878638453845  1.25839270287029  3.71704931613161
 1 -6.32538342124212  5.67009321152115  0.59797956065607
 1 -8.64121932103210  1.17515177667767 -3.19947532843284
 1 -3.52403946914691 -3.30210332703270  2.03456919901990
 1 -1.75166625262526 -1.11435904410441  2.77908007400740
 1 -2.83338266346635 -2.65524210511051  4.53461340724072
 1 -3.56808340844084 -1.13430554825482  4.95713184908491
 1 -4.51602327812781 -2.31322924092409  3.81678490109011
 1 -2.10441760736074 -3.49068211321132 -0.01087882248225
 1 -1.37946864656466 -1.80864949234923  0.10518135943594
 1 -0.44023841394139 -2.67713768606861  2.37405194629463
 1 -1.73890336893689 -4.22434927122712  2.23570260696070
 1 -1.75898455055506  3.59529421612161  4.17051943304330
 1 -2.52028968296830  4.87477711681168  4.75988165106511
 1 -3.06600653315332  3.25108830293029  5.14524150095010
 1 -5.34189804910491  6.63759174167417  2.08034014981498
 1 -10.20532451495150  2.76888404030403 -3.25127628222822
 1 -10.14004148704871  4.39175671017102 -2.93288628122812
 1 -9.33536929782978  3.71004890489049 -5.52899921052105
 1 -8.34806877287729  4.81716365696570 -4.68083776557656
 1 -8.21963223812381  3.29138345224522 -4.63350746544655
 1 -8.11077765936594 -1.23856711441144 -4.88039800880088
 1 -8.46702633053305 -2.79902696299630 -4.16450579447945
 1 -9.45504875397540 -1.42094872947295 -3.78122240734073
 1 -3.91009278527853 -3.59346516951695 -1.38147307740774
 1  2.67164510831083 -6.27472476557656  0.52535092299230
 1  2.12959628622862 -5.11847037343734 -0.60873630873087
 1  3.92836881928193 -3.99216933923392  1.85733409750975
 1  2.57559501140114 -3.02225378027803 -1.44086673677368
 1  3.69105644364436 -1.99458415901590 -1.57177539503950
 1  4.37717022442244 -3.53167502380238 -2.03262471977198
 1  5.01710557955796 -1.35302084668467  0.14826521762176
 1  5.25067742614262 -2.29235355255526  1.73731761806181
 1  6.66246546654665 -3.74773907340734  0.36331565326533
 1  6.58534737423742 -2.64763697969797 -1.01117080328033
 1  7.44079488108811 -0.73741029532953  0.90120887418742
 1  8.21466037623762 -2.23244149264926  1.83503097549755
 1  8.64734063366337 -1.95343338403840 -1.16239445814581
 1  9.10185235063506 -4.23809266916692 -0.45628809900990
 1  10.60476350575057 -3.67441079577958 -0.56851443334333
 1  9.81653840144014 -3.79241497009701  1.12989395239524
 1  9.47830889178918  0.09642805320532  0.36032520692069
 1  10.26982594119412 -0.94855317461746  1.65629656695670
 1  11.96023795489549 -1.74812213391339 -0.53849315711571
 1  11.28844478467847 -0.54779641514151 -1.44237508120812
 1  11.71940195829583  1.21575464726473  0.18674146374637
 1  12.50384114281428  0.06116740004000  1.33767294239424
 1  13.14756549884988  0.26382112491249 -1.57301350615062
 1  14.62089231643164 -0.95338835613561  0.75074017151715
 1  14.08756914341434 -1.63984716361636 -0.55655190929093
 1  15.33971382788279 -0.69587291499150 -0.83612601560156
 1  13.33970321592159  2.56106440564056 -0.34864474177418
 1  14.45576318851885  1.58773518801880  0.74792361966197
 1  16.26114484158416  1.27795325682568 -0.70892870787079
 1  15.35723051855186  2.16476472787279 -2.14479801070107
 1  15.08257972007201  4.13268647634763 -1.12990427042704
 1  15.89411904580458  3.72041800120012  0.44538699749975
 1  17.77307712451245  3.08528203670367 -1.01690607850785
 1  16.55354249104910  5.06799407830783 -3.24534881378138
 1  18.05706809670967  4.26251264446445 -3.55965339893989
 1  16.59580426572657  3.34169908110811 -3.32643319651965
 1  17.87816569056906  4.93340399339934  0.43727289298930
 1  18.79251686248625  5.42196842334233 -1.22821496259626
 1  17.02907547734774  6.12673708380838 -0.79756810891089
 1 -4.90016790139014 -7.75183628302830 -0.24839915591559
 1 -6.52761325262526 -7.12374175557556  0.30245008830883
 1 -4.94864708210821 -6.93931380758076  1.34151702010201
 8 -7.85522841814181  6.93038306970697 -0.54573800220022
 1 -9.11877526132613  6.42808022372237 -2.05720418791879

