%nproc=3
%Mem=2GB
# td=(NStates=1) iop(3/107=0140000000,3/108=0140000000) iop(3/107=0140000000,3/108=0140000000) CAM-B3LYP/6-31G(d,p) 

TD

0 1
12 -5.62898863006301  1.26542657035704  0.15789845864586
 6 -5.01073119491949 -2.18932289698970 -0.39191225632563
 6 -3.32799425932593  1.05226776827683  2.78654009220922
 6 -6.16910333263326  4.41168919201920  0.64922728392839
 6 -7.97649856785679  1.17295597799780 -2.31618571247125
 7 -4.36297338183818 -0.30234615771577  0.96879704670467
 6 -4.27349256965697 -1.62344352575258  0.64592831133113
 6 -3.22712411411141 -2.29694089268927  1.50921651025103
 6 -2.97490164556456 -1.32724339403940  2.67859464606461
 6 -3.61707850785078 -0.15948510111011  2.12987364596460
 6 -3.61155326332633 -1.78194488708871  3.98733659305931
 6 -2.04683952725273 -2.79851384458446  0.63204739083908
 6 -0.94040180308031 -3.59257434533453  1.41470534743474
 6  0.27552341974197 -3.82564743684368  0.50961912301230
 8  0.44140799469947 -3.42009169796980 -0.55582559795980
 8  1.12137381958196 -4.70125527032703  1.28556454495450
 7 -4.84438298929893  2.55739597629763  1.42974966156616
 6 -3.94988907610761  2.37480549654966  2.50438566436644
 6 -3.71334187138714  3.61338142064206  3.22792173657366
 6 -4.53960971667167  4.52254071957196  2.58023390759076
 6 -5.24203356575658  3.85824050055006  1.53029818171817
 6 -2.87784640954095  3.79998708240824  4.47870174067407
 6 -4.76531923192319  5.95120515471547  3.01579701650165
 8 -3.96974946224623  6.61866669686969  3.73850782328233
 7 -6.79714136373637  2.66093402590259 -0.80565323302330
 6 -6.90334253205321  3.90945135063506 -0.34451265436544
 6 -8.00553569376938  4.61655271207121 -1.16236904600460
 6 -8.39995302810281  3.64284341444144 -2.02660721312131
 6 -7.78876268776878  2.42186036013601 -1.71583535333533
 6 -8.33630590929093  5.97016838653865 -1.25061619621962
 6 -9.50052653105311  3.91705264356436 -3.15020756935694
 6 -8.75701468216822  4.01965332843284 -4.61323457015702
 7 -6.37813358065807 -0.14491967216722 -1.05641666206621
 6 -7.33026663336334  0.02458155255526 -2.06512243484348
 6 -7.45621873847385 -1.27924307700770 -2.67936096069607
 6 -6.62929841354135 -2.16824059735974 -2.10038924882488
 6 -5.94008193169317 -1.40006403590359 -1.14946281098110
 6 -8.44428980368037 -1.63936372497250 -3.78683960336034
 6 -6.23548717581758 -3.55511461746175 -1.96774216811681
 8 -6.64777801840184 -4.52855782588259 -2.64833507920792
 6 -5.09755000850085 -3.55675744244424 -0.93326994779478
 6 -5.39398652625263 -4.59611481308131  0.19082623362336
 8 -5.78805298789879 -4.44533046644664  1.34701182148215
 8 -5.21373133633363 -5.81219510361036 -0.33821799319932
 6 -5.64089743894389 -6.99169276037604  0.37608514331433
 6  2.40615729732973 -5.05296155635564  0.75032301360136
 6  3.47556086618662 -4.03236473577358  0.97064835063506
 6  4.19389849354936 -3.28399822072207  0.06204857985799
 6  3.78908380568057 -3.03250643904390 -1.37798546734673
 6  5.20054426042604 -2.36654092229223  0.73587543844384
 6  6.57788339303930 -2.61970692369237  0.01897222312231
 6  7.71996112281228 -1.80789243504350  0.56451028562856
 6  9.11385999449945 -1.95891187318732  0.03239652645265
 6  9.55017209730973 -3.40594049654965  0.31065419041904
 6  10.03270870647065 -0.79870049094910  0.47679564296430
 6  11.34313747104710 -0.84631742684268 -0.19435474607461
 6  12.20975859645965  0.33556274677468  0.28473926212621
 6  13.50103949804980  0.52727241414141 -0.54553431063106
 6  14.43960213321332 -0.68067879787979 -0.36737342254225
 6  14.23956389458946  1.87117188938894 -0.11779942234223
 6  15.54026330723072  2.15529746504650 -1.03052015971597
 6  16.09503912361236  3.55614812481248 -0.75505659865987
 6  17.35328972367237  3.84356327182718 -1.42676372417242
 6  17.18143712581258  3.83922948564856 -2.95239755975598
 6  18.01874529372937  5.15279340534053 -0.96700765776578
 1 -2.66774228012801  1.12799966356636  3.70403801500150
 1 -6.27228811171117  5.57949415161516  0.70373013571357
 1 -8.90671587068707  1.19757401890189 -2.85568094899490
 1 -3.77815488068807 -3.18509162586259  2.08098384048405
 1 -1.73846493249325 -1.19993760196020  2.68304047004700
 1 -3.38283760896090 -2.77726430733073  4.13427337323732
 1 -3.18190479057906 -1.06086820452045  4.86064220012001
 1 -4.70790246604660 -1.59456737473747  3.90733395599560
 1 -2.53002016761676 -3.24573761876188 -0.23111084568457
 1 -1.69232993269327 -1.70355898329833  0.21546238753875
 1 -0.56756114621462 -3.21075104740474  2.44352889398940
 1 -1.21324080268027 -4.58426526282628  1.82096113281328
 1 -1.78788744084408  3.67110179687969  4.10198257935793
 1 -3.11594924892489  4.90068970807081  4.96524218711871
 1 -3.00505043754375  2.92698589268927  5.18542551935194
 1 -5.67416127542754  6.47482546504650  2.67829994579458
 1 -10.14632861536154  2.99639679157916 -3.07056821142114
 1 -9.93116059895990  4.80803833833383 -2.93222621522152
 1 -9.33555931683168  3.76082398239824 -5.40733704430443
 1 -8.31283524952495  5.01711365196520 -4.68162784458446
 1 -7.86363663856386  3.22907722162216 -4.72989710441044
 1 -8.01220780238024 -1.39480273797380 -4.72659262826283
 1 -8.60712033993399 -2.97442450275028 -3.68476782068207
 1 -9.44755800490049 -1.40542717731773 -3.72273655875588
 1 -4.13155493149315 -3.88872469546955 -1.38789371947195
 1  2.71369931373137 -6.06429372247225  0.91597998589859
 1  2.56675000160016 -5.09678820522052 -0.34514995009501
 1  3.71998798119812 -4.07514763706371  2.04022238633863
 1  2.76067351925193 -3.41467302220222 -1.70245289538954
 1  3.75047238523852 -1.92384708530853 -1.43900211771177
 1  4.47567007440744 -3.57538939523952 -1.80062151945195
 1  4.80752462146215 -1.33179872447245  0.48346873797380
 1  5.53929628802880 -2.47461177837784  1.79765365166517
 1  6.65355457545755 -3.72290659015902  0.35180450215021
 1  6.53698253775377 -2.52634485048505 -1.07277696389639
 1  7.59575037663766 -0.83512006630663  0.45805455875588
 1  7.63312222242224 -2.10464871337134  1.71919939233923
 1  9.03559945954595 -2.06151419211921 -1.11435965466547
 1  9.05778794419442 -4.30209906980698  0.00154768456846
 1  10.55458848824882 -3.51668502320232 -0.22867044894490
 1  9.83409015661566 -3.23990971957196  1.54120508350835
 1  9.39593065396540  0.12389079947995  0.41007018141814
 1  10.30488944754475 -1.04328264756476  1.50410134743474
 1  11.85471740284028 -1.70032735443544  0.08123881608161
 1  11.23702964316432 -0.50110174567457 -1.43484432813281
 1  11.71634165226522  1.19087215901590 -0.04066127652765
 1  12.32231298999900  0.43180446374638  1.24229340444044
 1  13.26851759405941  0.51740648344834 -1.65673187798780
 1  14.56262648984899 -0.78555157245725  0.64098919641964
 1  13.81497188368837 -1.44419759865987 -0.70267652175217
 1  15.34449430593059 -0.67771109880988 -0.80729313231323
 1  13.65615486108611  2.83873217241724 -0.25492536983698
 1  14.58712632483248  1.70529694419442  1.04487331463146
 1  16.20152887998800  1.21793725522552 -1.01034884988499
 1  15.19218401390139  1.96792504390439 -2.05670920182018
 1  15.26505796789679  4.27840104780478 -0.93946522652265
 1  16.19412904680468  3.60876683608361  0.36028848764876
 1  18.06034585138514  3.15346885538554 -1.09738412631263
 1  16.35289242604260  4.67795507440744 -3.13470774967497
 1  17.95199758965897  4.40567696089609 -3.44981241484148
 1  16.71380606590659  2.93581849304930 -3.29996054925493
 1  17.95752362636264  5.17659831283128  0.24989415511551
 1  18.97880549134914  5.33948017451745 -1.34009615071507
 1  17.17921049084908  5.99225363546355 -1.05536388848885
 1 -5.81212909750975 -7.81255235463546 -0.28720303630363
 1 -6.62934342564256 -6.72243162456246  0.67891773507351
 1 -4.80687290469047 -7.27377725392539  1.20619348774877
 8 -7.86590948624862  6.87812784418442 -0.47029045744574
 1 -9.25178856265627  6.16993440914091 -1.86711517901790

