%nproc=3
%Mem=2GB
# td=(NStates=1) iop(3/107=0140000000,3/108=0140000000) iop(3/107=0140000000,3/108=0140000000) CAM-B3LYP/6-31G(d,p) 

TD

0 1
12 -5.55918164936494  1.25514554225423  0.21532420122012
 6 -5.08248837063706 -2.18950291499150 -0.33629669476948
 6 -3.30301176107611  1.09599214071407  2.72950438863886
 6 -6.23914033633363  4.48667669076908  0.69913227442744
 6 -7.94273519151915  1.09398808120812 -2.44160825472547
 7 -4.41348843334333 -0.32476839993999  1.04801496849685
 6 -4.30045526592659 -1.69027020842084  0.67512123062306
 6 -3.21364276597660 -2.41735293389339  1.42094768336834
 6 -2.88046220162016 -1.42164283398340  2.61602838943894
 6 -3.58576537653765 -0.06553570617062  2.13588424702470
 6 -3.41467357535754 -1.82354904750475  3.95255311471147
 6 -1.99204404770477 -2.70552454565457  0.60205439153915
 6 -0.89311707460746 -3.51135622352235  1.43787766466647
 6  0.19554542194219 -3.78002287438744  0.59827798889889
 8  0.40693454735474 -3.38364805360536 -0.55614562996300
 8  1.08053973617362 -4.63789893469347  1.31416740524052
 7 -4.91632018301830  2.57250748744874  1.45201188778878
 6 -3.94266835403540  2.33738175417542  2.48226345214521
 6 -3.72620315751575  3.55321540404040  3.15429437383738
 6 -4.56881263696370  4.58690715621562  2.56838272247225
 6 -5.28700806320632  3.89571424792479  1.47549270117012
 6 -2.76208483338334  3.77371445514551  4.25044891539154
 6 -4.67398009800980  5.98337837203720  2.91765720252025
 8 -3.94326681398140  6.37233206340634  3.85365933843384
 7 -6.89049069866987  2.59263719621962 -0.69629229692969
 6 -6.92815501330133  3.90900130563056 -0.33260146324632
 6 -7.94112925312531  4.58346940374037 -1.19838264736474
 6 -8.35139817261726  3.64832396249625 -2.12741729412941
 6 -7.75045885738574  2.46577475157516 -1.78459222902290
 6 -8.28634091279128  5.99011038073807 -1.03958509310931
 6 -9.35757223562356  3.86820775907591 -3.31857440604060
 6 -8.45979496019602  4.02648401150115 -4.54618786548655
 7 -6.43535930323032 -0.17056223642364 -1.01723274367437
 6 -7.37435104180418 -0.01930283588359 -2.16668259085909
 6 -7.56636975357536 -1.30225537823782 -2.82430545514551
 6 -6.77746323002300 -2.12448622192219 -2.02807201710171
 6 -6.00092801630163 -1.41185521502150 -1.12301016571657
 6 -8.55790116481648 -1.61019080768077 -3.94202512191219
 6 -6.32879650675067 -3.52304141014101 -1.95331072497250
 8 -6.62827606820682 -4.58444341444144 -2.52286253195320
 6 -5.19382963646365 -3.63821558825883 -0.84308092889289
 6 -5.55429255685569 -4.66608180978098  0.22070922192219
 8 -5.90524470707071 -4.45531146454645  1.34064118441844
 8 -5.15128509170917 -5.80100398449845 -0.32913708510851
 6 -5.58038138733873 -6.93358694979498  0.40941847664766
 6  2.29991667326733 -4.89396565676568  0.64610259155916
 6  3.38347165726573 -4.01121262056206  1.13407469326933
 6  4.04126323002300 -3.19547936883688  0.24642701770177
 6  3.83734863216322 -3.13114630303030 -1.22806047484748
 6  5.16984119011901 -2.35269953815382  0.79948179907991
 6  6.47851345604560 -2.60130508350835  0.05742606850685
 6  7.70102922962296 -1.84702634843484  0.62648648324832
 6  9.01285989448945 -1.95341132313231 -0.07350406360636
 6  9.65044212431243 -3.36042594509451  0.06631975697570
 6  9.96236167176718 -0.86167678857886  0.40518848224823
 6  11.32977613491349 -0.91550434553455 -0.29742505310531
 6  12.19937755835584  0.34200339083908  0.22793358155816
 6  13.56479587368737  0.52712239913991 -0.58546830403040
 6  14.41526969997000 -0.62696342634263 -0.34721140634063
 6  14.18347828602860  1.86603137533753 -0.24445208760876
 6  15.51129040994099  2.15268720402040 -0.98983609130913
 6  16.06415603530353  3.59803231323132 -0.69795088808881
 6  17.37828222292229  3.86960587608761 -1.39800084788479
 6  17.14534351645165  4.00267583028303 -2.92641496149615
 6  18.03992741194119  5.07698582458246 -0.84346530353035
 1 -2.68003350925092  1.06709357295730  3.67705531673167
 1 -6.36365724862486  5.62677888008801  0.94189395209521
 1 -8.87450264936494  1.07322158365837 -3.13203858475848
 1 -3.43180024522452 -3.26149926662666  1.88091383348335
 1 -1.70780186618662 -1.34863247144715  2.75178734473447
 1 -2.99527885308531 -2.84961154205421  4.43130307620762
 1 -3.18079467956796 -1.12235435313531  4.80042617851785
 1 -4.63768544434443 -1.83802172017202  3.95835905850585
 1 -2.15685285088509 -3.29352239723972 -0.28821655625563
 1 -1.32032273197320 -1.92633126052605 -0.01866102480248
 1 -0.81263565366537 -2.88949892219222  2.13193773487349
 1 -1.30695017361736 -4.55191202750275  1.71968100480048
 1 -1.77063571567157  3.23043773047305  4.03304568566857
 1 -2.50609826382638  5.01063070217022  4.56473213611361
 1 -3.23740367286729  3.21297449154916  5.14203117991799
 1 -5.47978183748375  6.48032601510151  2.33043515931593
 1 -10.04252823532353  3.02627977987799 -3.48058921352135
 1 -9.94510199309931  4.82752028652865 -3.36903989658966
 1 -9.04536029692969  4.19457735773577 -5.56500281088109
 1 -7.94642860886089  4.79923186378638 -4.49443912571257
 1 -7.99571984688469  3.17881219511951 -4.75041915661566
 1 -8.24242082368237 -1.11210446814681 -4.73744371337134
 1 -8.32090171807181 -2.62004906520652 -4.13257260116012
 1 -9.53774702380238 -1.38325496009601 -3.51880616571657
 1 -4.38823059905991 -4.05845166816682 -1.62123705380538
 1  2.42525046884689 -6.05020231333133  0.92075046294630
 1  2.31530485708571 -4.75731425782578 -0.41673710881088
 1  3.59300528292829 -4.00333045534553  2.13804216831683
 1  2.91521897379738 -3.31032258715872 -1.59144179427943
 1  3.87730506850685 -2.02368706930693 -1.44018223572357
 1  4.59529203660366 -3.64046590289029 -1.79563102040204
 1  4.84937880688069 -1.32146769136914  0.42258264936494
 1  5.34303666206621 -2.36000031723172  1.92733661996200
 1  6.76023524352435 -3.59188348784878  0.19109843154315
 1  6.44516335583558 -2.23867608360836 -0.84160384658466
 1  7.61580238183818 -0.65174172847285  0.84910366366637
 1  7.93015192539254 -1.99416766526653  1.85351282368237
 1  8.79245514511451 -1.61734977567757 -1.13345156385639
 1  9.04828699409941 -4.06712557245725 -0.36159863006301
 1  10.46432946234623 -3.27485083978398 -0.58204578647865
 1  9.84666141374137 -3.66652238083808  1.03597456045605
 1  9.35775683658366  0.05000341074107  0.30321949634963
 1  10.05537449604961 -0.95189350865086  1.59686062336234
 1  11.73644557565757 -1.81476879857986 -0.09357866566657
 1  11.45587152735274 -0.82792442794279 -1.42570341404140
 1  11.44256427452745  1.19611268306831  0.11895468506851
 1  12.41215197389739  0.27940922422242  1.27708688378838
 1  13.29157990029003  0.62542728552855 -1.76406261106111
 1  14.60160038723872 -0.68590160746075  0.78867396489649
 1  14.20415080158016 -1.61635481438144 -0.64009026312631
 1  15.35453531003100 -0.43957728542854 -0.81432383538354
 1  13.36504575017502  2.66709500870087 -0.26358623592359
 1  14.51140875307531  1.96152256675668  0.78831765906591
 1  16.24974370147014  1.45210067156716 -0.84995281028103
 1  15.36518131363136  2.20054830623062 -2.11083461436144
 1  15.31328279037904  4.49848305600560 -0.80398167816782
 1  16.32549218311831  3.72596855625563  0.42680513931393
 1  18.10576039283928  2.92988649714972 -1.20634502240224
 1  16.29861699849985  4.95875315421542 -3.12233651255126
 1  18.14566695659566  4.46082247544754 -3.35784321792179
 1  16.87263194849485  3.05261017221722 -3.54247480068007
 1  18.16858473247325  5.18154880788079  0.21684084978498
 1  19.02141975277528  5.44950117661766 -1.19738187928793
 1  17.36135870567057  5.95884029412941 -1.03416176827683
 1 -5.13632151675167 -7.81166226562656 -0.04667898389839
 1 -6.59219971127113 -6.99133851525153  0.41168101140114
 1 -5.34381659905991 -6.77650752695270  1.56450931933193
 8 -7.65600849614961  6.85025505690569 -0.43803723212321
 1 -9.12500588438844  6.38476589228923 -1.59702817031703

