%nproc=3
%Mem=2GB
# td=(NStates=1) iop(3/107=0140000000,3/108=0140000000) iop(3/107=0140000000,3/108=0140000000) CAM-B3LYP/6-31G(d,p) 

TD

0 1
12 -5.64485021622162  1.19145917361736  0.11421409020902
 6 -4.99925004680468 -2.12145611031103 -0.36442950805081
 6 -3.38332979287929  1.13493603510351  2.72580401860186
 6 -6.16117253955396  4.50249827292729  0.63018537973797
 6 -7.96166708470847  1.18608729112911 -2.39914400830083
 7 -4.41090817531753 -0.23744966806681  1.02663283028303
 6 -4.17408262866287 -1.53878505990599  0.62068578707871
 6 -3.25405680738074 -2.30827202580258  1.48604419301930
 6 -2.92399655505551 -1.33572424212421  2.59924671127113
 6 -3.60273707370737 -0.07940709330933  2.09508016661666
 6 -3.45403751175118 -1.82615930853085  3.95760361976198
 6 -1.96707155045505 -2.61041503470347  0.70365455155516
 6 -1.00103786668667 -3.56198128602860  1.47441131803180
 6  0.14541040844084 -3.97931280338034  0.65363352445245
 8  0.44535838973897 -3.53341303010301 -0.43572358775878
 8  1.05486716891689 -4.66088123292329  1.42736872537254
 7 -5.03465201620162  2.54272450915091  1.52715940254025
 6 -4.06062014921492  2.40412842884288  2.51471669746975
 6 -3.68876941414141  3.61795187768777  3.23500244464446
 6 -4.51654741044104  4.53199166466647  2.61986787098710
 6 -5.33133249564957  3.87519219571957  1.58849400130013
 6 -2.73009163406341  3.72276936063606  4.29379324982498
 6 -4.59201190119012  5.98503853805381  2.90933637043704
 8 -3.88851133843384  6.58956378657866  3.73049702220222
 7 -6.95738738833883  2.58074600710071 -0.62351501920192
 6 -6.91593379117912  4.00513091859186 -0.34914311741174
 6 -7.94241938213821  4.65743680048005 -1.21269407850785
 6 -8.51206423922392  3.68736786688669 -2.03143769616962
 6 -7.81737554905491  2.50934910901090 -1.71372514231423
 6 -8.36710898959896  6.10793216291629 -1.22921405600560
 6 -9.45526200460046  3.88763970227023 -3.11839438803880
 6 -8.75304428512851  4.12232359545955 -4.54638788548855
 7 -6.45180094739474 -0.12632781298130 -1.02976399679968
 6 -7.37252085878588  0.00888998339834 -2.14872079467947
 6 -7.47792090869087 -1.28314346704671 -2.78542156675668
 6 -6.55975145884589 -2.12481625492549 -2.16175538543854
 6 -5.93697162066207 -1.39775380488049 -1.13610147484748
 6 -8.32806818151815 -1.64848463706371 -3.95762668206821
 6 -6.12222584968497 -3.55511461746175 -2.01678707260726
 8 -6.61694493509351 -4.57178214831483 -2.49841008670867
 6 -5.06026628012801 -3.56620838753875 -0.92674929572957
 6 -5.32832996059606 -4.68622382398240  0.08070522152215
 8 -5.68941312391239 -4.44157009040904  1.21809893019302
 8 -4.94643460666067 -5.89605348944894 -0.38006217761776
 6 -5.23368671787179 -6.94810840194019  0.49723725852585
 6  2.28804548614862 -5.06308256845685  0.77019500080008
 6  3.40788409850985 -4.01583308260826  1.09652093789379
 6  3.96949605330533 -3.21932175307531  0.19658203320332
 6  3.78364326162616 -3.26755994439444 -1.36069373817382
 6  5.14417862386239 -2.36071033923392  0.64595644654465
 6  6.50030563526353 -2.74721967496750  0.07009733563356
 6  7.68325745244525 -1.85898754455446  0.60176401100110
 6  8.99786839533953 -2.09412539453945 -0.05670238343834
 6  9.47513459355936 -3.48885878837884  0.20757388238824
 6  10.06164159975998 -0.95676629752975  0.48075603900390
 6  11.34513767106711 -0.92815561066107 -0.23354866546655
 6  12.14740236083608  0.27962715321532  0.19604039223922
 6  13.44482387648765  0.48225791269127 -0.60393015021502
 6  14.49459763276328 -0.60809153915392 -0.55561224642464
 6  14.19233917211721  1.87641241344134 -0.22534017641764
 6  15.48359764066407  2.15607754305431 -1.01108821652165
 6  16.06127574727473  3.50403291329133 -0.60551164416442
 6  17.32464685938594  3.93687260276028 -1.44556560436044
 6  17.04312329442945  4.11250681338134 -2.97132945294529
 6  17.90032345154515  5.22647077307731 -0.74835579257926
 1 -2.61478698459846  1.06298316191619  3.56596420762076
 1 -6.36326720962096  5.50718692089209  0.64412417511751
 1 -8.57747294639464  1.20123438493849 -3.29017439833983
 1 -3.62236930213021 -3.18549166586659  1.88101384348435
 1 -1.86705779177918 -1.10097770597060  2.75999816581658
 1 -2.83545287048705 -2.56595317621762  4.33391333723372
 1 -3.25620222032203 -1.05666778447845  4.61254739063906
 1 -4.52303397919792 -2.05205312331233  4.00212343494349
 1 -2.08702586818682 -3.22167521252125 -0.12910064466447
 1 -1.25982668236824 -1.73005163256326  0.46934777607761
 1 -0.78852324242424 -3.15377534983498  2.46858139923992
 1 -1.51224070267027 -4.38912574887489  1.91010004670467
 1 -1.68937758985899  3.39585427212721  3.92262464356436
 1 -2.65965361936194  4.70453009210921  4.76729239213921
 1 -3.15147508000800  3.21300449454945  5.09754673147315
 1 -5.25920978027803  6.62818080058006  2.18932104790479
 1 -10.20221420392039  3.02983013491349 -3.09105025962596
 1 -10.14303178607861  4.76636417091709 -3.06360935353535
 1 -9.57227298819882  4.40399829982998 -5.15760207080708
 1 -8.01870583658366  5.04289623022302 -4.39852953475348
 1 -8.38808908380838  3.05861017491749 -4.91195531023102
 1 -8.16298287988799 -0.97860111781178 -4.89033900290029
 1 -8.09411903980398 -2.80609767006701 -4.14236358025803
 1 -9.53331658075808 -1.44360099469947 -3.80449473457346
 1 -4.01359313531353 -3.93216903990399 -1.38618354845485
 1  2.54989293309331 -5.99860715381538  1.26516490439044
 1  2.23000632723272 -5.15369389578958 -0.22255769086909
 1  3.65163114551455 -3.87340746304630  2.07433579767977
 1  2.65263271517152 -3.68702025692569 -1.75124777487749
 1  3.87280461846185 -2.37798249884989 -1.69331754925493
 1  4.47531003840384 -3.95832768906891 -1.79439089638964
 1  4.84132800180018 -1.43728927352735  0.21144153525352
 1  5.39036139453945 -2.25472979017902  1.89856374267427
 1  6.90577979797980 -3.73065736523652  0.28375769746975
 1  6.43685252475247 -2.90267248324832 -1.07955764196420
 1  7.25683648524852 -0.76912346664666  0.32561131443144
 1  7.55171408160816 -2.11639988848885  1.71230870327033
 1  8.87207310691069 -1.96935497619762 -1.18035625432543
 1  8.84823698909891 -4.23669252915292 -0.41865433563356
 1  10.57718074747475 -3.63072642734273 -0.10852843474347
 1  9.30933768136814 -3.82975870447045  1.27847881088109
 1  9.41991305220522  0.05519392979298  0.30421959635964
 1  10.42698165676568 -0.86385470477048  1.59282021932193
 1  11.98236016711671 -1.81285860756076  0.02473316551655
 1  11.35547148734874 -0.82852448794879 -1.37274811851185
 1  11.51170118821882  1.04800787258726  0.20608339793979
 1  12.40024078277828  0.05123640694069  1.31978115321532
 1  13.00375111741174  0.36435117791779 -1.63175938073807
 1  14.90240046724672 -0.83867688498850  0.56829192669267
 1  14.12446283278328 -1.45307848674867 -0.94734098819882
 1  15.39804966146615 -0.48241156885689 -0.93241564456446
 1  13.46413565916592  2.64510280948095 -0.37081695899590
 1  14.28065567776778  1.84583099759976  0.87074590189019
 1  16.22627135423542  1.37397285878588 -0.76375419041904
 1  15.14473926942694  2.05503375477548 -2.09724325522552
 1  15.29898136023602  4.28364157185719 -0.94491577157716
 1  16.28962859675968  3.73865982538254  0.50570302910291
 1  18.13453327012701  3.04697820632063 -1.23882827072707
 1  16.24638177497750  4.73401067996800 -3.15911018991899
 1  17.88945133503350  4.40802719591959 -3.59098653225323
 1  16.89999468476848  3.28221313251325 -3.31400195339534
 1  18.25144301830183  5.05603625662566  0.22431159685969
 1  18.80475808660866  5.69298552505251 -1.16969911101110
 1  17.13190576037604  5.98224263436344 -0.73377172927293
 1 -4.87870575517552 -7.73221432083208 -0.01417573357336
 1 -6.40174066536654 -6.89814919631963  0.53441328462846
 1 -4.59854207160716 -6.83991386758676  1.44239710811081
 8 -7.87938083338334  6.94986501790179 -0.47325075347535
 1 -9.01637502130213  6.35356277197720 -1.97103557105711

