%nproc=3
%Mem=2GB
# td=(NStates=1) iop(3/107=0140000000,3/108=0140000000) iop(3/107=0140000000,3/108=0140000000) CAM-B3LYP/6-31G(d,p) 

TD

0 1
12 -5.60355608680868  1.21665169286929  0.25644831363136
 6 -5.10029015081508 -2.15258922362236 -0.30845391049105
 6 -3.30805226512651  1.13286582808281  2.68977041524152
 6 -6.18731515381538  4.54217224032403  0.79755211641164
 6 -7.99999091709171  1.15968465086509 -2.42803689758976
 7 -4.36739382388239 -0.26669259235924  1.08274844184418
 6 -4.33762898329833 -1.60264144554455  0.67573129162916
 6 -3.17986938863886 -2.34341554015402  1.41117670627063
 6 -3.05252940834083 -1.40219088878888  2.65094188078808
 6 -3.58087488748875 -0.00756990959096  2.08602926152615
 6 -3.53939604760476 -1.77281397399740  4.02492035143514
 6 -1.98007285058506 -2.64229822302230  0.66278046414641
 6 -1.03213097599760 -3.62845793369337  1.42520639753975
 6  0.20571643904390 -3.99695456755676  0.53360152125213
 8  0.49125297919792 -3.45381507030703 -0.55361537693769
 8  1.02914459665967 -4.80992613741374  1.14632062056206
 7 -4.82776132713271  2.63994423112311  1.49129581618162
 6 -3.88869295649565  2.41362937893789  2.44363958975898
 6 -3.50354089128913  3.69938002050205  3.15338428282828
 6 -4.36032178787879  4.60899936543654  2.56006189038904
 6 -5.12499186158616  3.87561223772377  1.51560671257126
 6 -2.52838146304630  3.79238632233223  4.32459633013301
 6 -4.47585028502850  6.01000103430343  2.88386382318232
 8 -3.78355084238424  6.52008683888389  3.70707467996800
 7 -6.75152680228023  2.61725965846585 -0.74070673837384
 6 -6.87313951175117  3.89149955545555 -0.26398460156016
 6 -7.81917705790579  4.55354641144114 -1.23147595669567
 6 -8.34894792759276  3.55468459855986 -2.07514206660666
 6 -7.66666047754776  2.37130530463046 -1.75570934073407
 6 -8.24813709240924  5.98639000870087 -1.23569470407041
 6 -9.25163164156416  3.80429136743674 -3.16951950055005
 6 -8.54508348904890  3.95572693579358 -4.54360760746075
 7 -6.46846261356136 -0.12633781398140 -1.03573459385939
 6 -7.37859146584658 -0.05817672327233 -2.03122904550455
 6 -7.64551766836684 -1.33253840654065 -2.67387041164116
 6 -6.67905338903890 -2.15374914821482 -1.98924813471347
 6 -5.97711563506351 -1.40986501600160 -1.04311217591759
 6 -8.47776315101510 -1.69785957455746 -3.87331825122512
 6 -6.23491711881188 -3.53791289728973 -2.00458585248525
 8 -6.57094033463346 -4.48327329742974 -2.66121636733673
 6 -5.19550980448045 -3.60087185388539 -0.85138175897590
 6 -5.26059318691869 -4.60619582118212  0.19274642564256
 8 -5.69187336993699 -4.39960589398940  1.31804892519252
 8 -5.07698766196620 -5.82542642674267 -0.32417658905891
 6 -5.38676202540254 -6.96508009910991  0.45695323012301
 6  2.28175485708571 -5.08477473767377  0.56056403770377
 6  3.39074238433843 -4.05430692999300  0.85910719651965
 6  3.96672577627763 -3.19232905380538  0.11740411541154
 6  3.49789468676868 -3.13725691409141 -1.32013968276828
 6  5.10587479347935 -2.40582485068507  0.67885973687369
 6  6.48427403210321 -2.76988194119412  0.07697802370237
 6  7.50571969866987 -1.78587023282328  0.59558339293929
 6  8.91835044354436 -2.01668765076508 -0.01389810301030
 6  9.69669674977498 -3.35418532103210  0.39189231423142
 6  9.84996043164317 -0.85700632153215  0.47382534593459
 6  11.27131028832883 -0.87334012911291 -0.26327163776378
 6  12.12200982158216  0.32162135263526  0.32951373957396
 6  13.36759615371537  0.56216590349035 -0.61221097829783
 6  14.36987516051605 -0.65408613861386 -0.53591027622762
 6  13.98815875407541  1.84993976617662 -0.21646928932893
 6  15.41862114301430  2.16544848014802 -0.84072117981798
 6  15.89194881458146  3.57830034003400 -0.55703679667967
 6  17.16209060376038  3.97054597009701 -1.44114516231623
 6  16.93111209330933  4.09614517721772 -2.84843716371637
 6  17.90391381058106  5.24520264626463 -0.81491244824482
 1 -2.76284179007901  0.98758562216222  3.69057666886689
 1 -6.46969785268527  5.65269147134714  1.00852061476148
 1 -8.99841504060406  1.00478473997400 -3.11909729062906
 1 -3.55327239243924 -3.41528464516452  1.80488623072307
 1 -1.88065915191519 -0.98063567176718  2.58348051405141
 1 -2.82473179837984 -2.50256683758376  4.39586953285329
 1 -3.47221382148215 -1.03053517121712  4.78730486638664
 1 -4.53562523832383 -2.10707862586259  3.94386760936094
 1 -2.13171033663366 -3.17465051005100 -0.31366910151015
 1 -1.28212891259126 -1.79351797919792  0.29260010131013
 1 -0.90559494959496 -3.36566653895390  2.51512605370537
 1 -1.44942442104210 -4.61918875517552  1.43422245894589
 1 -1.65366401850185  3.36025071177118  4.04838721982198
 1 -2.59308696269627  4.73538317741774  4.63402906580658
 1 -2.95333526602660  3.24043723782378  5.22268924572457
 1 -4.84075793509351  6.82979096159616  2.10156227202720
 1 -10.00859484198420  3.04158131003100 -3.28415957055706
 1 -10.10676815971597  4.51517905240524 -2.95437843044304
 1 -9.51995775667567  4.07441534153415 -5.30725703630363
 1 -7.81166513251325  4.69539147974797 -4.65368505030503
 1 -8.13541381628163  2.98140245414542 -4.61495561026102
 1 -7.89766634823482 -1.32746600430043 -4.84674464346435
 1 -8.66329595749575 -2.76224328462846 -3.88311765566557
 1 -9.44563781288129 -0.97265389999000 -3.78554283938394
 1 -4.15034681068107 -3.72397822082208 -1.41652658275828
 1  2.72000994479448 -6.17611490459046  0.85414380228023
 1  2.18647197379738 -5.27929645604561 -0.48642407750775
 1  3.86068205060506 -4.45510563286329  1.84660302440244
 1  2.51312876477648 -3.21867342224222 -1.52370502060206
 1  3.75701303930393 -2.17783248384838 -1.71718993649365
 1  4.17153966136614 -3.62642449874987 -2.01715317261726
 1  5.09892376137614 -1.35563110771077  0.53437382848285
 1  5.14372673107311 -2.52439675687569  1.76619050535054
 1  6.75930515051505 -3.75641994149415  0.51401072277228
 1  6.40573941344134 -2.70553276927693 -1.14931461766177
 1  7.08855965756576 -0.78097465176518  0.31557031033103
 1  7.57420633083308 -1.74072232073207  1.58332580498050
 1  8.91004690429043 -1.96047408810881 -1.14850306900690
 1  9.14261642704270 -4.38248710861086 -0.02093456365637
 1  10.72099512891289 -3.35961931663166 -0.13799138103810
 1  9.61207795539554 -3.39486521512151  1.49916087908791
 1  9.31416247714771  0.06914532493249 -0.04064489008901
 1  9.88419737833783 -1.05463378267827  1.47845878317832
 1  11.74858678977898 -1.78137545924592 -0.03052236003600
 1  11.21117705790579 -0.62390402590259 -1.11321216491649
 1  11.45517553565356  1.33066613841384  0.18150093969397
 1  12.25866662536254  0.17555883918392  1.26105528062806
 1  12.91499224152415  0.73263800660066 -1.66019222402240
 1  14.88939916711671 -0.64039705700570  0.65952104960496
 1  13.93051343784379 -1.55469864876488 -0.60816707080708
 1  15.29513937043704 -0.75608893659366 -1.28852125512551
 1  13.33834307990799  2.77154545374537 -0.40623050035003
 1  14.05957356955695  1.88601501600160  0.89502833013301
 1  16.07620634773477  1.51405686718672 -0.48713652865286
 1  15.26103089858986  2.03895214661466 -1.85715924682468
 1  15.00237169926993  4.26824003170317 -0.92245352535254
 1  16.05122475637564  3.78670462986299  0.64949740854085
 1  17.82703252005201  3.10848435693569 -1.16130051795180
 1  16.11639877667767  4.92027930683068 -3.15549982888289
 1  17.88938132803280  4.50289668286829 -3.37310474407441
 1  16.60738542384238  3.15583049424942 -3.19825037823782
 1  18.41844971897190  5.11470212321232  0.22802196789679
 1  18.81783939473948  5.45863208970897 -1.65638777987799
 1  17.08900146994700  6.02258666876688 -0.75775412751275
 1 -4.61705959055906 -7.68792989238924 -0.11444576057606
 1 -6.43946443774377 -7.00688006940694  0.80034987828783
 1 -4.81616383378338 -6.85204508070807  1.35710857925793
 8 -7.68806170147015  6.91445147654766 -0.55788921732173
 1 -9.09838322212221  6.24302171787179 -1.92982144964496

