%nproc=3
%Mem=2GB
# td=(NStates=1) iop(3/107=0140000000,3/108=0140000000) iop(3/107=0140000000,3/108=0140000000) CAM-B3LYP/6-31G(d,p) 

TD

0 1
12 -5.72382811401140  1.24381440914091  0.22948561736174
 6 -4.93815393719372 -2.06281024572457 -0.45330839593959
 6 -3.48128958885889  1.19549209070907  2.82685412361236
 6 -6.29605602790279  4.52995101820182  0.74122648384838
 6 -8.04670558855886  1.18811749414942 -2.42525661956196
 7 -4.33164024852485 -0.24979090219022  1.07399756675668
 6 -4.18561378177818 -1.54579576097610  0.61553527202720
 6 -3.18396979867987 -2.33244444304430  1.46719230783078
 6 -2.97736189158916 -1.26958762846285  2.61626841344134
 6 -3.60805760576058  0.00210105750575  2.15661632023202
 6 -3.45093720172017 -1.65455214781478  3.97256511591159
 6 -1.89504434773477 -2.64829882308231  0.67949213531353
 6 -0.85610337323732 -3.37610269816982  1.47981185808581
 6  0.37528339573957 -3.73794866696670  0.74361252235224
 8  0.69125297919792 -3.36898658745875 -0.38279829522952
 8  1.12309399159916 -4.66375151995199  1.39595558405841
 7 -5.02042059305931  2.59507974467447  1.48898558515852
 6 -4.12317640484048  2.47671568756876  2.57083230903090
 6 -3.79032957015702  3.73387346984698  3.20074901930193
 6 -4.69031478717872  4.64895336083608  2.53312919711971
 6 -5.44818418081808  3.83689836633663  1.61479663156316
 6 -2.81595021992199  3.95800288398840  4.27996186668667
 6 -4.66401910191019  6.12781281548155  2.89952538933893
 8 -4.06600908820882  6.67349217941794  3.76247021952195
 7 -6.90038168776878  2.57816574907491 -0.80371303900390
 6 -7.06076827462746  3.90667107260726 -0.33766196929693
 6 -8.08989412961296  4.51315237203720 -1.16214902400240
 6 -8.58324135693569  3.62836196629663 -2.05779033143314
 6 -7.82103591509151  2.40765893999400 -1.85817958775878
 6 -8.48253053175318  5.93991536123612 -1.13974510911091
 6 -9.59395587398740  3.78745968426843 -3.16358890749075
 6 -8.89955893659366  3.90543190629063 -4.51869511621162
 7 -6.35524129142914 -0.07842302250225 -1.04976599699970
 6 -7.41006461316132 -0.03070397599760 -2.02399832243224
 6 -7.46125924252425 -1.33233838653865 -2.76895992059206
 6 -6.54474995869587 -2.13068684198420 -2.09339854975498
 6 -5.76661458495850 -1.37885191469147 -1.18871673637364
 6 -8.46770214491449 -1.63938372697270 -3.88591951135114
 6 -6.18802242934293 -3.54445355135514 -1.97790318421842
 8 -6.69135237583758 -4.55228019811981 -2.58029827552755
 6 -4.97265751925192 -3.55777754445445 -0.92992961376138
 6 -5.27998512611261 -4.68808401000100  0.15969312031203
 8 -5.83035721832183 -4.43082901630163  1.23426054635464
 8 -5.15370533373337 -5.86917080118012 -0.31359553095310
 6 -5.52159550875087 -7.01603519461946  0.53931146594659
 6  2.41536821842184 -5.02597885808581  0.70350833213321
 6  3.53352666276628 -4.09808130743074  0.94498578437844
 6  4.15391449514951 -3.36963678457846  0.08190056505651
 6  3.76093099039904 -3.12751593999400 -1.39769743854385
 6  5.24569877587759 -2.46161042924292  0.56461831273127
 6  6.66752235693569 -2.73918887188719 -0.01036071017102
 6  7.76457558425843 -1.85506715251525  0.48788262286229
 6  9.11558016651665 -2.06859284128413 -0.16095280848085
 6  9.66842392249225 -3.54470437293729  0.01932505750575
 6  10.11797723332333 -1.03331395229523  0.37151511491149
 6  11.39966312361236 -0.90356315141514 -0.45039034963496
 6  12.26280390099010  0.21412060256026  0.12841362956296
 6  13.60775016911691  0.49160884778478 -0.61092084928493
 6  14.50566873987399 -0.74256498649865 -0.54349103430343
 6  14.23221315951595  1.76025079727973 -0.18066570897090
 6  15.55147442834283  2.14027596289629 -0.94018112581258
 6  16.04901452115211  3.52905541554155 -0.44622571557156
 6  17.42228662336234  3.83357227272727 -1.13796484428443
 6  17.22230121222122  3.80487605030503 -2.76889920992099
 6  17.93308672787279  5.19207733373337 -0.72172312931293
 1 -2.84196970287029  1.16802366596660  3.72184979617962
 1 -6.79989087198720  5.52378858105811  0.91304106680668
 1 -8.97068226732673  1.16907116861686 -3.13064844574457
 1 -3.78409547474747 -3.20643376007601  1.80307604970497
 1 -1.80497158315832 -1.06117372557256  2.67137930393039
 1 -2.91777110231023 -2.48743532443244  4.13627357325733
 1 -3.16520312041204 -0.76423854155416  4.73762989888989
 1 -4.41607328312831 -1.82334025202520  3.94329755235524
 1 -2.19041620722072 -3.20712375737574 -0.07159489408941
 1 -1.44442514221422 -1.71557018441844  0.49974081538154
 1 -0.52141653175318 -2.97283725602560  2.47582212331233
 1 -1.38129760836084 -4.17488432473247  1.76157519421942
 1 -1.74295294739474  3.75282996969697  3.87802018311831
 1 -2.90552820682068  5.04352399149915  4.38278394129413
 1 -2.98971890439044  3.41312450655065  5.31365834263426
 1 -5.28464232353235  6.59872785528553  2.11882399819982
 1 -10.19538352085208  2.85407255915592 -3.15877703230323
 1 -10.23568105100510  4.62628016251625 -3.07027001960196
 1 -9.70686644754475  3.67645554555456 -5.35814212481248
 1 -8.40132409840984  4.88005994659466 -4.58079776157616
 1 -8.10085035993599  3.20573488738874 -4.75007912261226
 1 -8.24283086468647 -0.95379863756376 -4.84263423242324
 1 -8.41309093699370 -2.59739679998000 -4.24219356325633
 1 -9.49282253135313 -1.35217185178518 -3.74908919401940
 1 -4.19791156715672 -3.74609043204320 -1.53509843994399
 1  2.72448039183918 -5.90813810691069  1.22667105500550
 1  2.18961228782878 -5.26275480188019 -0.21671710681068
 1  3.83673965636564 -4.12388251055105  2.09829819391939
 1  2.75001245314531 -3.48880043494349 -1.48866151625162
 1  3.76019335733573 -2.00155485608561 -1.80610882838284
 1  4.42105461286129 -3.90710256655666 -2.11450290759076
 1  4.87312118111811 -1.37670321492149  0.50988137923792
 1  5.30182254065407 -2.57010132733273  1.66298018431843
 1  6.92848206820682 -3.87641194069407  0.04673399509951
 1  6.58609744924492 -2.56250846684669 -1.18782846904690
 1  7.52962376397640 -0.89917647194719  0.30617937123712
 1  7.82227113731373 -2.02833108160816  1.72074954735474
 1  8.86349224882488 -2.00234827552755 -1.41113933263326
 1  8.99546171157116 -4.50552941284128 -0.28217068726873
 1  10.63124615401540 -3.85296865156516 -0.49126670857086
 1  9.82730947854786 -3.66807253585359  1.11788275127513
 1  9.43211427232723 -0.05917750735073  0.16681585598560
 1  10.32644160276028 -1.41279959925993  1.42920385768577
 1  11.78884081518152 -1.78684600630063 -0.36822613041304
 1  11.21088702890289 -0.61224285978598 -1.46418726242624
 1  11.81232125022502  1.19461253305331  0.08239102870287
 1  12.41672243094309 -0.10934965166517  1.21884105920592
 1  13.13375411771177  0.72158690149015 -1.72104830963096
 1  14.76294652185219 -0.62089510681068  0.41000609810981
 1  13.90568095459546 -1.61232441134113 -0.88153440754075
 1  15.17917777427743 -0.83925725342534 -1.22453485648565
 1  13.62037128272827  2.53017131633163 -0.04987486478648
 1  14.38194580678068  1.59569598409841  0.87414624192419
 1  16.41252998009801  1.60534599609961 -0.80487830283028
 1  15.18380317581758  2.36417466886689 -2.04452798369837
 1  15.35074653675368  4.43443665136514 -0.60363164316432
 1  16.25124475837584  3.75201116051605  0.68969142794279
 1  18.09340915771577  3.02271578007801 -1.01093548144814
 1  16.39889702650265  4.43962124102410 -2.91966624552455
 1  18.26383877377738  4.08113450665067 -3.26806424002400
 1  16.84290897619762  2.86567147834783 -3.09431998519852
 1  18.14860273427343  5.19613026602660  0.39568873457346
 1  18.94665227602760  5.27138336483648 -1.28766090719072
 1  17.22688525832583  6.01776618671867 -0.77771612371237
 1 -5.11698958355836 -7.84842594199420  0.08083376737674
 1 -6.52626311761176 -7.15016439783979  0.46376621992199
 1 -5.08141035843584 -7.04092396859686  1.56560942934293
 8 -8.08073096839684  6.83570360176018 -0.33479690809081
 1 -9.15580896469647  6.28549596529653 -2.05250371787179

