%nproc=3
%Mem=2GB
# td=(NStates=1) iop(3/107=0140000000,3/108=0140000000) iop(3/107=0140000000,3/108=0140000000) CAM-B3LYP/6-31G(d,p) 

TD

0 1
12 -5.62160789198920  1.28741876957696  0.08040070887089
 6 -5.03259338113811 -2.04511847654766 -0.41236430153015
 6 -3.44452591249125  1.10964350585058  2.78665010321032
 6 -6.24340076237624  4.52295031813181  0.74789715091509
 6 -7.97254817281728  1.23773245564556 -2.49723381728173
 7 -4.26944402890289 -0.26701262436244  0.96575674267427
 6 -4.26124134453445 -1.61937311871187  0.55947966646665
 6 -3.21324272597260 -2.27437863646365  1.38724431303130
 6 -2.95601975737574 -1.35576624632463  2.52718950555056
 6 -3.47243404340434 -0.01285043764376  2.06506716531653
 6 -3.56109821782178 -1.66445313791379  3.90941880128013
 6 -1.90229507280728 -2.67023101630163  0.61418560466047
 6 -0.96900466336634 -3.55150023792379  1.47491136803680
 6  0.27584345174517 -3.94000887298730  0.77609577067707
 8  0.52905675957596 -3.62195188398840 -0.49430944634463
 8  1.01148283048305 -4.81989713451345  1.43831982048205
 7 -4.82650120112011  2.51083131983198  1.53626031263126
 6 -3.92619670687069  2.39439745574557  2.47987321312131
 6 -3.68061859905991  3.62084216671667  3.18009695409541
 6 -4.48842459815982  4.54562302780278  2.56113199739974
 6 -5.28553791619162  3.82421709820982  1.58382353425343
 6 -2.72589121402140  3.74401148484848  4.30658452895290
 6 -4.67135983598360  5.98944897909791  2.96950238703870
 8 -4.03006549384938  6.52619744994499  3.80428440094009
 7 -6.85587723732373  2.63943187568757 -0.82246491419142
 6 -6.90561275907591  3.93536394189419 -0.36045424852485
 6 -7.85859099929993  4.68492954975498 -1.25812862196220
 6 -8.40996402920292  3.68682781288129 -2.05570012241224
 6 -7.76580039153915  2.45184335843584 -1.80899466926693
 6 -8.30777305600560  6.05151652135214 -1.12624375897590
 6 -9.42731921032103  3.86156709500950 -3.18067061566157
 6 -8.74069305000500  4.10413177627763 -4.57910115681568
 7 -6.47942370967097 -0.08804398459846 -1.01007202760276
 6 -7.36623022972297  0.02301139553955 -2.03414933753375
 6 -7.53895701230123 -1.32321747444744 -2.74704772937294
 6 -6.66941242494249 -2.17778155145515 -2.04259346924692
 6 -6.03647157065707 -1.44408843834383 -1.03063092779278
 6 -8.49105448014802 -1.65683547214721 -3.80708162756276
 6 -6.15531915901590 -3.54225333133313 -1.92759815371537
 8 -6.65113835443544 -4.59805477557756 -2.56337658335834
 6 -5.04848510201020 -3.50437220392039 -0.91618823962396
 6 -5.28500562816282 -4.65933113471347  0.07701485248525
 8 -5.72537672027203 -4.54679061246125  1.17915503580358
 8 -4.99536950015001 -5.80368425252525 -0.37743191459146
 6 -5.25895924512451 -6.98141173227323  0.21708924372437
 6  2.35479216081608 -5.10680694089409  0.88596657795780
 6  3.31253456355636 -4.07127862716272  1.14548583438344
 6  3.99457856155616 -3.24820464136414  0.27412978797880
 6  3.71875677297730 -3.28168135653565 -1.21271894069407
 6  5.17567177317732 -2.34912918111811  0.62642449334933
 6  6.49554515921592 -2.67266221922192  0.15812613851385
 6  7.63764289098910 -1.73254490029003  0.74807864246425
 6  8.95695430393039 -1.96266224822482 -0.02186890009001
 6  9.51562864296430 -3.30298020052005  0.24408753375338
 6  10.07280271587159 -0.93002362326233  0.36600456385639
 6  11.30594375167517 -0.89803259835984 -0.33023833443344
 6  12.15533315391539  0.30489968046805  0.16278706690669
 6  13.55325471957196  0.46724641154115 -0.68580833803380
 6  14.40295846884688 -0.79247997799780 -0.47219390459046
 6  14.24843478167817  1.78461323352335 -0.24232187458746
 6  15.40506978787879  2.20284221952195 -1.12359946764676
 6  15.90922054175418  3.51547405740574 -0.69808090109011
 6  17.24310870557056  3.98826774227423 -1.32470351815181
 6  17.07594657675768  3.99894545724572 -2.87758007800780
 6  17.80045346454645  5.29793791979198 -0.87474843184318
 1 -2.54605011091109  1.25249211281128  3.66939455065507
 1 -6.37611849474948  5.51924812701270  0.88842860556056
 1 -8.61508670777078  1.50190445194519 -3.25097047794780
 1 -3.81764883008301 -3.17159027572757  1.66768251035103
 1 -1.83611469746975 -1.36951455965597  2.70592275827583
 1 -2.93602292749275 -2.67321390229023  4.13093303920392
 1 -3.23757035713571 -0.85158727642764  4.69139527542754
 1 -4.62440411621162 -1.85692361036104  3.86900012261226
 1 -2.11907907350735 -3.30309335433543 -0.10457819241924
 1 -1.38656935663566 -1.69239786718672  0.41770261156116
 1 -0.80939532963296 -3.22555252755275  2.56111065216522
 1 -1.71296077467747 -4.39349618591859  1.58407744444444
 1 -1.63347199929993  3.45651033773377  4.23723610471047
 1 -2.75123277727773  4.84467410651065  4.67965362826282
 1 -2.98926885938594  3.27659085318532  5.33483045984598
 1 -5.32579643894389  6.59281726422642  2.49695181098110
 1 -10.14589857235724  2.87988514041404 -3.10768192279228
 1 -10.23652113501350  4.64846238073807 -2.99279227182718
 1 -9.59314507540754  4.16418431843184 -5.22926923752375
 1 -8.10098406440644  5.13323526412641 -4.48518820062006
 1 -8.24181445634563  3.04475878977898 -4.58801291599160
 1 -8.42628921052105 -0.97685094279428 -4.69080904990499
 1 -8.36813644154415 -2.70952801310131 -4.02683202710271
 1 -9.75327857695770 -1.59426606120612 -3.50280456555656
 1 -4.09166094209421 -3.80621644464446 -1.30501543164316
 1  2.49743768756876 -5.88786607970797  1.50484887278728
 1  2.08069139573957 -5.46966549294930 -0.13737917301730
 1  3.70279626202620 -4.21894201650165  2.28809717381738
 1  2.61508896079608 -3.54972652755276 -1.49522217231723
 1  3.81531886988699 -2.26047074767477 -1.66313453095310
 1  4.52032453985399 -3.95662751905191 -1.62417387468747
 1  5.09861373037304 -1.30648619321932  0.40121051215122
 1  5.26006836523652 -2.40978529572957  1.66497038333833
 1  6.52755197519752 -3.78517281678168  0.07255657735774
 1  6.77737657715771 -2.57349956595660 -1.03236292249225
 1  7.29414021562156 -0.74113066736674  0.48538729202920
 1  7.60078898909891 -1.84331257975798  1.92795026742674
 1  8.54620051965197 -1.84622266296630 -1.15167338603860
 1  8.86406857225723 -3.85285414531453 -0.04536700690069
 1  10.42860588998900 -3.67891124582458 -0.38758634053405
 1  9.76464321192119 -3.55170089868987  1.32625358835884
 1  9.57085814671467  0.22305071547155  0.37021619601960
 1  10.19814877347735 -1.30621894119412  1.51055199249925
 1  11.78038997009701 -1.76393371507151 -0.01297060486049
 1  11.27166310651065 -0.69929156465647 -1.37308815251525
 1  11.68787880598060  1.21118419021902  0.33515630523052
 1  12.52021277997800  0.08300958425843  1.35379455455546
 1  13.07325806810681  0.47012175497550 -1.85762196699670
 1  14.78187841504150 -0.77838085538554  0.69047414491449
 1  14.03900428692869 -1.77180035893589 -0.54908116221622
 1  15.43081293779378 -0.66725005270527 -0.92718512151215
 1  13.57800704630463  2.64741304050405 -0.10540041734173
 1  14.67234484668467  1.57849426392639  0.76830565786579
 1  16.09480820792079  1.37357281878188 -0.82977079207921
 1  15.05324011951195  2.09087733913391 -2.26865039593959
 1  15.26737819991999  4.47304051175118 -1.14539581958196
 1  15.95992562646264  3.49884584398440  0.40025248404840
 1  18.02197201400140  3.19937344584458 -1.15748013591359
 1  16.34729186598660  4.77930520942094 -3.08793307220722
 1  18.17133952385239  4.22708910211021 -3.29704713831383
 1  16.68148283358336  3.29824473567357 -3.47792834603460
 1  18.07374524852485  5.14199485248525  0.32927209290929
 1  18.60815842664266  5.57315354185419 -1.28399054015402
 1  17.24419698949895  6.15133954405441 -1.01083943604360
 1 -4.86071395599560 -7.92790388978898 -0.10250456645665
 1 -6.31666215751575 -7.24333371477148  0.43545338863886
 1 -4.95713793119312 -6.85895577177718  1.29444231263126
 8 -7.62390528582858  6.87518755015502 -0.39992342074207
 1 -9.39968335213521  6.29641705740574 -1.56099456695669

