%nproc=3
%Mem=2GB
# td=(NStates=1) iop(3/107=0140000000,3/108=0140000000) iop(3/107=0140000000,3/108=0140000000) CAM-B3LYP/6-31G(d,p) 

TD

0 1
12 -5.66819255045505  1.22493252095210  0.27778044684468
 6 -5.11337145894589 -2.17488145284528 -0.27311037613761
 6 -3.47222868276828  1.18536107760776  2.78520995919592
 6 -6.22400882318232  4.63153117621762  0.62305466666667
 6 -8.06921783978398  1.17721640404040 -2.30374446834683
 7 -4.41652873737374 -0.28284420752075  1.04306447344734
 6 -4.32375759615962 -1.58406958835884  0.80075379387939
 6 -3.18014941664166 -2.35042624122412  1.52075766436644
 6 -3.01415557095710 -1.34539520922092  2.71719850645065
 6 -3.60245704570457 -0.06046519911991  2.12704336293629
 6 -3.56396850485049 -1.79340603320332  4.04867272667267
 6 -2.01218606190619 -2.61371536473647  0.67694188028803
 6 -1.04985274817482 -3.52993808170817  1.40454433133313
 6  0.21453732113211 -3.84479935203520  0.59978813991399
 8  0.50907476137614 -3.39554924372437 -0.48838885428543
 8  1.04915659785979 -4.69871501630163  1.26201218971897
 7 -4.86588513951395  2.66629686638664  1.39449613621362
 6 -4.05219930713071  2.49124714071407  2.43866909270927
 6 -3.80717125432543  3.71357143964396  3.14553349774978
 6 -4.51229698539854  4.65208367386739  2.48615449964996
 6 -5.26716607900790  4.02994767126713  1.39483463536354
 6 -2.80738936383638  3.81164824852485  4.26745061556156
 6 -4.56703940394039  6.10400043424342  2.83055849264926
 8 -4.11822430973097  6.56837166736674  3.86382035453545
 7 -6.94012566216622  2.56606453895390 -0.75113778147815
 6 -7.01384358215822  3.92023242874287 -0.38741694479448
 6 -7.94391953215322  4.55826688348835 -1.28697150625062
 6 -8.36263929672967  3.64054318441844 -2.05103965636564
 6 -7.69411322282228  2.40721889598960 -1.72112588238824
 6 -8.47820009870987  5.99348071777178 -1.06696783138314
 6 -9.45995247364736  3.74427536583658 -3.23062561116112
 6 -8.80196917761776  3.95957732083208 -4.60254350105010
 7 -6.38843461076108 -0.17168234843484 -1.00477149754976
 6 -7.42610621732173 -0.05628653425343 -1.96373229582958
 6 -7.52131524812481 -1.37260241294129 -2.69325234983498
 6 -6.61539702340234 -2.17951172447245 -2.12035124502450
 6 -6.01248917241724 -1.45634966446645 -1.06294415911591
 6 -8.38175355005501 -1.63679346794679 -3.85263618301830
 6 -6.16816044314431 -3.62781188718872 -2.00564595849585
 8 -6.49901314191419 -4.53858882898290 -2.62403264896490
 6 -5.10306055955596 -3.59943170987099 -0.70724734553455
 6 -5.35708283588359 -4.72733793539354  0.24149130013001
 8 -5.87872205480548 -4.50411634503450  1.28465558585859
 8 -5.09268923212321 -5.87566145024502 -0.34596876827683
 6 -5.34232758195820 -7.06251984308431  0.50860839563956
 6  2.33830051165116 -4.95391165136514  0.60509849114911
 6  3.35939925002500 -4.03508500780078  0.97047833363336
 6  3.97721682538254 -3.22436225712571  0.13665604060406
 6  3.69172406970697 -3.10583377177718 -1.30326799559956
 6  5.10856506250625 -2.39215348354836  0.61493334423442
 6  6.60111571627163 -2.62088704170417 -0.01557123122312
 6  7.69185831253125 -1.70812245804580  0.45750958555856
 6  9.06361496999700 -1.94268025002500 -0.16176288948895
 6  9.55062214231423 -3.41107100960096  0.09733285828583
 6  10.07785322092209 -0.93114373527353  0.25430339373937
 6  11.42317547484748 -0.86985978107811 -0.52340765136514
 6  12.24022164276428  0.28438762926293  0.02646343454345
 6  13.65569496359636  0.47130681758176 -0.62852260946095
 6  14.49594776777678 -0.73533426342634 -0.40136682188219
 6  14.20998093629363  1.80587535973597 -0.28409605200520
 6  15.62702198309831  2.08143007830783 -0.93393050075008
 6  16.19546916661666  3.51068357835784 -0.60087118011801
 6  17.55264965966597  3.80019893539354 -1.21333238103810
 6  17.38731771387139  4.06005156785679 -2.71525384538454
 6  18.24351777097710  5.10676880288029 -0.58006896389639
 1 -2.99287479337934  1.44226108970897  3.78528613981398
 1 -6.68154903780378  5.63279948214822  0.63976373907391
 1 -8.79345454455446  0.88415267676768 -3.01386676757676
 1 -3.54996206140614 -3.22881599829983  2.00949669176918
 1 -1.94950603660366 -1.20311791999200  2.90066223222322
 1 -3.31366069126913 -2.62542912381238  4.57342728862886
 1 -3.48909550965097 -1.04722684038404  4.78610474637464
 1 -4.64826650245024 -1.85443336133613  4.05113833643364
 1 -2.24904206980698 -3.07397044204420 -0.26237397199720
 1 -1.60497119681968 -1.67940656805681  0.50861170247025
 1 -0.54980937103710 -3.24325429772977  2.32975751685168
 1 -1.66431591019102 -4.44314115041504  1.69648868556856
 1 -1.77661631373137  3.58932361906191  4.01758413951395
 1 -2.73865151915192  4.88470810991099  4.56180184308431
 1 -2.94993492599260  3.19504269836984  5.10330730753075
 1 -5.03550741004100  6.85256323882388  1.75505762156216
 1 -9.86803078557856  2.79062621452145 -3.10162131673167
 1 -10.05016249914992  4.67492502700270 -3.10660365296530
 1 -9.45071083198320  3.84352225222522 -5.40976728732873
 1 -8.12858682468247  4.97628956955695 -4.64987466926693
 1 -8.07866814171417  3.17290160406041 -4.89751386608661
 1 -8.34249083068307 -0.76815007270727 -4.69623959295930
 1 -8.32461208910891 -2.51263832413241 -4.29285862976298
 1 -9.48602185128513 -1.66245287988799 -3.72455674077408
 1 -4.24321609760976 -3.86739256225623 -1.17849277937794
 1  2.43226116991699 -6.08073536663666  0.86593498139814
 1  2.22322564916492 -4.93975250165017 -0.39216465156516
 1  3.59987596999700 -4.08506862916292  2.11569993409341
 1  2.63075052695269 -3.49957151205121 -1.57963061316132
 1  3.64459179717972 -2.01675637623762 -1.70119833733373
 1  4.48792129952995 -3.78398025432543 -2.01357281458146
 1  4.93690755975598 -1.30506605120512  0.42254264536454
 1  5.19936229462946 -2.49816413361336  1.82898678497850
 1  6.78100732073207 -3.51394569406941  0.34746406810681
 1  6.35865470497050 -2.50394261026103 -1.18734842104210
 1  7.52210301190119 -0.62088864316432  0.45910466376638
 1  7.81306021622162 -1.89281753025303  1.53426089848985
 1  9.00081598119812 -1.90879892059206 -1.26642486118612
 1  8.93527569296930 -4.13711257115712 -0.33631610181018
 1  10.52615564496450 -3.59113246794680 -0.48045562746275
 1  9.87008375597560 -3.58654438303830  1.22259322232223
 1  9.48158921982198  0.03953236363636  0.26516569096910
 1  10.36140509910991 -1.17186550585059  1.43078401570157
 1  12.09930186128613 -1.81478880058006 -0.56262557035704
 1  11.28431437163716 -0.61073270877088 -1.42871371507151
 1  11.64602462056206  1.25527859965997 -0.08590580098010
 1  12.51809256795680  0.38979026232623  1.24914408950895
 1  13.40350109240924  0.72276701950195 -1.70619682448245
 1  14.59202943014301 -0.84845786308631  0.64344944244424
 1  13.80297068356836 -1.69879305820582 -0.71591784588459
 1  15.48724858135813 -0.75069839753975 -0.67285968896890
 1  13.59363860946095  2.67069536873687 -0.31610148744874
 1  14.59985759795980  1.88544495899590  0.75104393169317
 1  16.57123585068507  1.38388384988499 -0.58019583458346
 1  15.41274607010701  1.95143339473947 -2.08868239913991
 1  15.46951841394139  4.37756096379638 -1.12985426542654
 1  16.35860549444944  3.75492145154515  0.55908836763676
 1  18.28424824162416  3.15695920442044 -0.93542793069307
 1  16.89492662946294  5.03181045994599 -3.11550582948295
 1  18.35448783868387  4.02239863306331 -3.32022945654565
 1  16.73332801810181  3.30879579077908 -3.25413596679668
 1  18.43924179817981  4.77783843684368  0.49697886358636
 1  19.20991860266027  5.46128235473547 -0.90574271537154
 1  17.53664623442344  5.98596300640064 -0.42368072017202
 1 -5.04080196479648 -7.82838393779378 -0.43357767376738
 1 -6.36700719201920 -7.21772115351535  0.55117496079608
 1 -4.78906112351235 -7.23806368256826  1.45766863526353
 8 -8.07533042834283  6.84341437283728 -0.34424785318532
 1 -9.34139752355236  6.09061647734773 -1.89037750525052

