%nproc=3
%Mem=2GB
# td=(NStates=1) iop(3/107=0140000000,3/108=0140000000) iop(3/107=0140000000,3/108=0140000000) CAM-B3LYP/6-31G(d,p) 

TD

0 1
12 -5.56818254945495  1.16914694239424  0.17992066086609
 6 -5.07944806660666 -2.14733869856986 -0.41347441254125
 6 -3.30936239613961  1.19988252975298  2.59469090729073
 6 -6.08530495279528  4.51179920302030  0.63256561776178
 6 -8.02529344734474  1.20892957535754 -2.40932502640264
 7 -4.27249433393339 -0.30312623572357  0.89329949694969
 6 -4.26686190659066 -1.60266144754475  0.56644036253625
 6 -3.28454985668567 -2.38038923752375  1.46254184278428
 6 -2.91029518491849 -1.28331900160016  2.54924171077108
 6 -3.53673047304730 -0.03598275087509  2.06054671327133
 6 -3.22479458745875 -1.71273796639664  4.00790865026503
 6 -2.00793563686369 -2.87771176437644  0.70390457655766
 6 -1.00221798469847 -3.73107819571957  1.46076995389539
 6  0.19621548894889 -3.91741661376138  0.61770993209321
 8  0.44899875377538 -3.48614830363036 -0.41689170457046
 8  1.09626130833083 -4.69206435123512  1.38653464196420
 7 -4.85820437143714  2.67646788348835  1.41389807640764
 6 -4.00056414361436  2.42966098209821  2.46576180198020
 6 -3.71096163336334  3.59325940844084  3.18359730413041
 6 -4.57353310901090  4.57611607710771  2.62310819501950
 6 -5.25381474387439  3.92072674917492  1.47807295919592
 6 -2.82279090399040  3.79530661436144  4.36585045554556
 6 -4.70922362236224  6.00155018921892  2.89152458925893
 8 -4.05808829612961  6.52023685388539  3.84937891039104
 7 -6.79942159175918  2.58649658215822 -0.65891855955596
 6 -6.86144834263426  3.98246865236524 -0.33406160926093
 6 -7.81294643484348  4.63598465526553 -1.23593640274027
 6 -8.36203923672367  3.68130726082608 -2.02101665406541
 6 -7.66954076557656  2.47644581868187 -1.67211098089809
 6 -8.12704498319832  6.13135450515052 -1.19956109070907
 6 -9.46652313071307  3.92977391569157 -3.07408995759576
 6 -8.79657863856386  3.97694905800580 -4.55239848654865
 7 -6.34643041034103 -0.18824400460046 -1.04980600100010
 6 -7.28231183788379 -0.02090299589959 -2.02989891249125
 6 -7.54519763636364 -1.35588074077408 -2.74656768136814
 6 -6.69342482618262 -2.22948672197220 -2.12277148704871
 6 -5.96452437593759 -1.43731776127613 -1.08957682238224
 6 -8.40054542924292 -1.56621641024102 -3.94033495289529
 6 -6.32753638073807 -3.52030113611361 -1.99760515441544
 8 -6.53664690529053 -4.48604357445745 -2.71242148784878
 6 -5.20341059455946 -3.59214098079808 -0.92859948074807
 6 -5.40178730633063 -4.67827302890289  0.13352050305031
 8 -5.83202738533853 -4.40220615401540  1.30626774707471
 8 -5.16533649684968 -5.89769365346535 -0.42378655005501
 6 -5.52053540274027 -6.96607019811981  0.42785031983198
 6  2.35494217581758 -5.07885414561456  0.67723570487049
 6  3.50020333043304 -4.11487298659866  0.97739902570257
 6  4.08284738843884 -3.25971579247925  0.19319169416942
 6  3.83658855615562 -3.22994618301830 -1.28028569736974
 6  5.21316552255225 -2.43729799799980  0.68981083198320
 6  6.52402800750075 -2.72141709470947  0.12983330923092
 6  7.65253438013801 -1.88712035783578  0.74666850145014
 6  8.98824743324333 -1.99027500950095  0.13472675947595
 6  9.56612369246925 -3.45246514901490  0.24917804280428
 6  9.98129356495650 -0.87898851975198  0.54870283368337
 6  11.30438359565957 -0.84421721682168 -0.24199951055105
 6  12.19279690029003  0.31920111061106  0.21343213141314
 6  13.44543393749375  0.60155984288429 -0.59506926412641
 6  14.38265643864387 -0.57575830583058 -0.42047873307331
 6  14.05524546274627  1.86891166336634 -0.30771841424142
 6  15.25886516741674  2.22471440674067 -1.13089019671967
 6  16.00458007770777  3.58698120812081 -0.66373746674667
 6  17.31523591829183  3.89259817531753 -1.42227327512751
 6  17.07675665776578  4.02271783448345 -2.91600392039204
 6  17.85548896809681  5.13800192619262 -0.87745870287029
 1 -2.75750125602560  1.35413227682768  3.63090070127013
 1 -6.26347723062306  5.53794999719972  0.81595135783578
 1 -8.78464366346635  1.31453571507151 -3.13695907680768
 1 -3.69255632083208 -3.42704582128213  1.67362310441044
 1 -1.84338542454245 -1.07445505370537  2.42113427942794
 1 -2.91294061926193 -2.77462404330433  4.54702464836484
 1 -3.03468006810681 -0.88073019071907  4.79172530843084
 1 -4.30458213401340 -1.84012193019302  4.03493671627163
 1 -2.24359152475248 -3.38154119911991 -0.28048578317832
 1 -1.57067776747675 -2.07569619701970  0.19399024032403
 1 -0.66378076817682 -2.79940991329133  2.18835337643764
 1 -1.36291577017702 -4.56021285758576  2.18118715541554
 1 -1.84966361846185  3.08734342104210  4.36279866096610
 1 -2.52765041904190  4.83935357445745  4.54737039993999
 1 -3.41509144164416  3.50495368946895  5.27901487828783
 1 -5.30649450875088  6.59723770627063  2.22128424422442
 1 -10.08461244374437  2.97727487938794 -3.18654980958096
 1 -10.24649213211321  4.62120965546555 -2.97297028962896
 1 -9.49971573247325  4.00695859585959 -5.36942325292529
 1 -8.14575854185419  4.95189713031303 -4.47399708150815
 1 -7.99954022892289  3.13208752265227 -4.50947506220622
 1 -8.16544312591259 -0.99592284998500 -4.73942391139114
 1 -8.44560418831883 -2.69045610591059 -3.99507885178518
 1 -9.47876112521252 -1.30739737433743 -3.83634791989199
 1 -4.23977575357536 -3.97589341234123 -1.35518044814481
 1  2.67577552135214 -5.91473876697670  0.99377776567657
 1  2.08932225882588 -4.98433696009601 -0.35036047114711
 1  3.56971295369537 -4.18339846214621  2.08408677277728
 1  2.81443889578958 -3.64889644454445 -1.50329297939794
 1  4.14901223922392 -2.15209991059106 -1.52163038053805
 1  4.46236874427443 -3.88823067936794 -1.85935739303930
 1  4.82171604060406 -1.33963950855086  0.60082047314731
 1  5.16011837023702 -2.52933725092509  1.77437132343234
 1  6.78572779277928 -3.68570286978698  0.33330265196520
 1  6.65636447594759 -2.81421363736374 -0.84361404760476
 1  7.31847264886489 -0.79294584888489  0.70338909220922
 1  7.78209711991199 -2.08115636413641  1.81458893129313
 1  8.95342124172417 -1.72515055575558 -1.06546476517652
 1  8.73578574397440 -4.09986884678468 -0.00196266646665
 1  10.64373740314031 -3.51835519021902 -0.23513109500950
 1  9.79236598419842 -3.58603433203320  1.44420538353835
 1  9.44555561646164  0.28369678007801  0.48271744614461
 1  10.31787074567457 -0.62404072337234  1.67144808210821
 1  11.74604653575358 -1.89916723842384  0.23206389858986
 1  11.08203414361436 -0.94862649814981 -1.43157400110011
 1  11.64716473457346  1.34855792759276  0.08513130273027
 1  12.69768052675268  0.06630791409141  1.14701387648765
 1  12.92533327562756  0.30452519531953 -1.59661586638664
 1  14.78869909710971 -0.49509252655266  0.74431952945295
 1  14.09860024652465 -1.59634281318132 -0.82966922102210
 1  15.32866272277228 -0.28743207090709 -0.85997840084008
 1  13.29196844244424  2.71209950915092 -0.46403628092809
 1  14.20427804000400  1.79552596709671  0.63169199649965
 1  16.00027875497550  1.55522098359836 -0.84484229922992
 1  15.15109990549055  2.27882613401340 -2.21279481038104
 1  15.24843630573057  4.36466967466747 -0.98544982498250
 1  16.23875350925092  3.65767172657266  0.46732919171917
 1  17.89309912671267  3.09488299679968 -1.32846723462346
 1  16.51336847364736  5.07469474837484 -3.20790506940694
 1  18.05015740564056  4.20385677887789 -3.24763219681968
 1  16.73615830113011  3.18220313151315 -3.41969252245225
 1  17.89594746874687  5.10494114711471  0.09769893559356
 1  18.66480409120912  5.39006523302330 -1.35514765586559
 1  17.09078164796480  6.11215562566257 -1.27023537563756
 1 -5.27667555215521 -7.83707480688069 -0.05506982298230
 1 -6.52726321762176 -6.99443882528253  0.50368021132113
 1 -4.93660587798780 -6.91297117331733  1.39901276967697
 8 -7.73661655695569  6.92642267366737 -0.37266069446945
 1 -8.91782516631663  6.29274669036904 -1.85392385988599

