%nproc=3
%Mem=2GB
# td=(NStates=1) iop(3/107=0140000000,3/108=0140000000) iop(3/107=0140000000,3/108=0140000000) CAM-B3LYP/6-31G(d,p) 

TD

0 1
12 -5.71705743694369  1.16991701940194  0.21708437723772
 6 -5.05908603040304 -2.18570253495350 -0.26965003010301
 6 -3.40063152305231  1.16204874637464  2.84900633883388
 6 -6.17745416771677  4.58126614971497  0.53763612481248
 6 -7.99397031503150  1.12965164756476 -2.34381847574757
 7 -4.41211829632963 -0.26584250735074  1.08051821882188
 6 -4.35041026142614 -1.60171135253525  0.66585030353035
 6 -3.20012141384138 -2.23516471507151  1.36558214681468
 6 -2.93494765016502 -1.37063773347335  2.65791257785779
 6 -3.59272607260726 -0.07672682528253  2.23114377297730
 6 -3.52701480948095 -1.79106579917992  3.91440930033003
 6 -1.99044388768877 -2.62194618781878  0.62691687778778
 6 -0.94204196709671 -3.41514660256026  1.35946982388239
 6  0.32042791019102 -3.79040391249125  0.64170233133313
 8  0.58837269116912 -3.56262595139514 -0.57135715111511
 8  1.15993767596760 -4.56564170897090  1.38805479397940
 7 -5.01047959895990  2.63410364706471  1.46091277787779
 6 -4.00221430863086  2.40072808880888  2.49412463826383
 6 -3.78550908810881  3.65315539803980  3.15498444284428
 6 -4.48572432813281  4.64324278977898  2.58818470267027
 6 -5.32169153155316  3.97150182668267  1.50231538343834
 6 -2.83384200910091  3.76034311801180  4.25061893239324
 6 -4.61418411841184  6.03981401560156  2.93523896069607
 8 -3.91771425872587  6.61960679087909  3.78563253575357
 7 -6.83756540614061  2.66170410291029 -0.70451311901190
 6 -6.90697289508951  3.91437184268427 -0.43114131723172
 6 -7.82178731893189  4.59721077787779 -1.30781359045905
 6 -8.39198223102310  3.66472560266027 -2.13396794919492
 6 -7.70124393589359  2.46131430553055 -1.80512428222822
 6 -8.24581686038604  5.95938730843084 -1.12951408600860
 6 -9.48758523692369  3.84957589588959 -3.13966651525153
 6 -8.96541552225223  4.03470483358336 -4.55578882558256
 7 -6.32765853315331 -0.10770595079508 -1.12288330873087
 6 -7.33831743844384 -0.04112501810181 -2.05748167076708
 6 -7.56123924052405 -1.31535668836884 -2.74363738833883
 6 -6.67273275697570 -2.20359413271327 -2.02033124302430
 6 -5.99695761926193 -1.42299632913291 -1.09246711141114
 6 -8.44501987668767 -1.72660244884488 -3.82635355475548
 6 -6.11356498359836 -3.51357046304630 -2.01908730263026
 8 -6.54398763936394 -4.57263223332333 -2.57635788148815
 6 -5.09737999149915 -3.55319708640864 -0.87711433223322
 6 -5.32581970957096 -4.67705290689069  0.10526767776778
 8 -5.64830901350135 -4.46094202760276  1.33689080938094
 8 -5.02331229442944 -5.82143602770277 -0.33753792519252
 6 -5.27321067026703 -6.92497608870887  0.53416095089509
 6  2.34629131073107 -5.10240650085009  0.72723070437044
 6  3.36638994909491 -4.12047354665467  1.02755404120412
 6  3.95121422512251 -3.24132395329533  0.14169654465447
 6  3.67752264956496 -3.16467965636564 -1.31444911371137
 6  5.02681688768877 -2.28955322352235  0.61924377527753
 6  6.39700530523052 -2.66977193019302  0.01799212511251
 6  7.64799392609261 -1.86258790459046  0.54932876747675
 6  9.06613522202220 -2.10892687468747 -0.23061977517752
 6  9.51681876197620 -3.48770867336734  0.10843396839684
 6  10.09220465606561 -0.95579620052005  0.32109007240724
 6  11.48825198249825 -1.04906770187019 -0.45406071667167
 6  12.28629625022502  0.27739693019302  0.25677646584658
 6  13.62941233533353  0.47320700760076 -0.56272602980298
 6  14.62078025102510 -0.78952968296830 -0.40397708290829
 6  14.23176311451145  1.73505827802780 -0.09470711311131
 6  15.42905218611861  2.14506644194419 -0.92273938163816
 6  15.97249686938694  3.54031654165417 -0.61961305430543
 6  17.34018841354136  3.98294721022102 -1.34686573437344
 6  17.05122410451045  4.04568013071307 -2.77802012201220
 6  17.92832625182518  5.22881100710071 -0.74354531153115
 1 -2.83331883778378  1.15880274387439  3.72345995719572
 1 -6.44469535243524  5.56484268646865  0.60584034673467
 1 -8.75784098319832  1.19266352785279 -3.08832421332133
 1 -3.63024008920892 -3.08113122982298  1.79926566866687
 1 -1.88534962096210 -1.27461506970697  2.85614778077808
 1 -3.06390571577158 -2.71035761666167  4.22109205510551
 1 -3.52475907600760 -0.88505062276228  4.65000113601360
 1 -4.64197587338734 -1.82164008200820  3.69975319791979
 1 -2.21909907550755 -3.03968701370137 -0.32451018561856
 1 -1.59188988868887 -1.60654928232823  0.16665750705071
 1 -0.91384577467747 -2.90391036333633  2.38344288538854
 1 -1.24764424302430 -4.45908274457446  1.64728376507651
 1 -1.82888154025403  3.67347203390339  3.94040642174217
 1 -2.70836849084909  4.81175081418142  4.55645130803080
 1 -2.89906983948395  3.18951214531453  5.10967794459446
 1 -5.46240009930993  6.70147813031303  2.66881899769977
 1 -10.01464544704471  2.88798595049505 -2.91472262686269
 1 -10.30737822072207  4.59698723322332 -2.93332632523252
 1 -9.84157991889189  3.88356625662566 -5.20465677627763
 1 -8.40698466446645  5.15320726132613 -4.89280896269627
 1 -8.21979225412541  3.35948026192619 -4.68745285998600
 1 -8.24750133173317 -1.39197245494549 -4.57025699469947
 1 -8.68615824372437 -2.89460652095209 -3.90764010791079
 1 -9.55086833593359 -1.22078871347135 -3.45611989708971
 1 -4.19173094909491 -3.66219204220422 -1.37188211831183
 1  2.53223116691669 -5.95056234933493  1.19588797669767
 1  2.14106743334333 -5.10973950035004 -0.35859129422942
 1  3.66637261966197 -3.91279140144014  1.95700406450645
 1  2.71822927482748 -3.60870242514251 -1.62662531263126
 1  3.54467180518052 -2.23934863546355 -1.73149136663666
 1  4.49937244464446 -3.79656151245125 -1.94469592689269
 1  4.64601847084708 -1.32982852745275  0.33252364346435
 1  5.14883724212421 -2.16502081928193  1.79003288958896
 1  6.64424364436444 -3.81263556305631  0.31246056775678
 1  6.37052589208921 -2.35103731973197 -1.09773946014601
 1  7.27082788438844 -0.81789834413441  0.33606235953595
 1  7.74092300250025 -1.92323057155716  1.65360283268327
 1  8.89977587718772 -1.81992003270327 -1.41631985068507
 1  8.80369253465347 -4.34582344224422 -0.01414388458846
 1  10.33877690709071 -3.76883023772377 -0.58475605750575
 1  9.91439818741874 -3.64989071767177  1.23242420542054
 1  9.38222928382838 -0.14947653725373  0.40118929332933
 1  10.14094305290529 -1.23447176647665  1.36495743304330
 1  11.85278720982098 -2.00387770947095 -0.23967327512751
 1  11.34316025622562 -0.94936657215722 -1.52449329302930
 1  11.61897191529153  1.24417748954896  0.18292108170817
 1  12.59212997169717  0.15558684198420  1.35438461356136
 1  13.07539828212821  0.48388313111311 -1.63003920872087
 1  14.93989421662166 -0.78940195749575  0.54759985748575
 1  13.88704909140914 -1.57483066196620 -0.54811106520652
 1  15.60638049454945 -0.59505283298330 -1.04381678467847
 1  13.49625887148715  2.61764006320632 -0.06492636993699
 1  14.45914352655265  1.68145455995600  0.82335116241624
 1  16.11552027912791  1.29845530703070 -0.90819863486349
 1  15.39782457795780  2.25279353075308 -2.00841437233723
 1  15.28110957305731  4.38715192289229 -0.79643092309231
 1  16.36663629752975  3.51037699709971  0.39387184598460
 1  18.30422023882388  3.34357786628663 -1.08285267316732
 1  16.35176231303130  4.82324960386039 -2.83723800270027
 1  17.95320771067107  4.46649304250425 -3.54637207080708
 1  16.69888457375738  3.12329724092409 -3.28758931213121
 1  17.97877575157516  5.29966061906191  0.29908907460746
 1  18.88040565136514  5.53964019051905 -1.04036617771777
 1  17.34410698049805  6.14130854095410 -0.95077342944294
 1 -4.90921880648065 -7.81715281468147  0.06094177817782
 1 -6.35494598589859 -7.06397577897790  0.81785162846285
 1 -4.76177839523952 -6.72233210941094  1.39441230963096
 8 -7.95543843914391  6.86103613501350 -0.32970639903990
 1 -8.91025440924092  6.30031744744474 -1.84110257775778

