%nproc=3
%Mem=2GB
# td=(NStates=1) iop(3/107=0140000000,3/108=0140000000) iop(3/107=0140000000,3/108=0140000000) CAM-B3LYP/6-31G(d,p) 

TD

0 1
12 -5.66660239143914  1.20016004370437  0.17889055785579
 6 -5.08663878567857 -2.12352631733173 -0.37258032313231
 6 -3.40252171207121  1.20790333183318  2.82783422162216
 6 -6.21089751205121  4.55654367746775  0.71991435263526
 6 -8.03889480748075  1.19266794919492 -2.29613370727073
 7 -4.42424950945095 -0.25733165626563  1.08292845984598
 6 -4.24644986538654 -1.60690187158716  0.61210492899290
 6 -3.23714511621162 -2.24836603520352  1.37970355895590
 6 -2.92572672807281 -1.33502417211721  2.66077286388639
 6 -3.64030083008301  0.02194304170417  2.18244890349035
 6 -3.51266337433743 -1.92795948854886  3.88596645604560
 6 -1.86142098539854 -2.58120211341134  0.69111329742974
 6 -1.03212097499750 -3.44095918381838  1.50845472237224
 6  0.25210107750775 -3.84457933003300  0.73111127222722
 8  0.52882673657366 -3.55796548534853 -0.43999401480148
 8  1.09471115331533 -4.70944608940894  1.50368635713571
 7 -4.94275282628263  2.61170140684068  1.50190687728773
 6 -3.96657074427443  2.40284830083008  2.51447667346735
 6 -3.80124066126613  3.63292337483748  3.23947289168917
 6 -4.55580133583358  4.52855132063206  2.62490837503750
 6 -5.27332669506951  3.95375005150515  1.53071822372237
 6 -2.85141376627663  3.79320640434043  4.34301817231723
 6 -4.73409610961096  5.98511854605461  2.92447788458846
 8 -4.02150463776378  6.56800163036304  3.82105607810781
 7 -6.91122277187719  2.65104303680368 -0.66046871457146
 6 -6.91796399419942  3.96845725122512 -0.35107331043104
 6 -7.91910705090509  4.64197525432543 -1.21683449254925
 6 -8.46605963876388  3.64258338843884 -2.02242679507951
 6 -7.76887069856986  2.46928510261026 -1.67817158695870
 6 -8.22264454315432  6.08453982368237 -1.24935607020702
 6 -9.40460693909391  3.87184812311231 -3.21565411401140
 6 -8.56802578327833  3.77831919501950 -4.56197944464446
 7 -6.45000076737674 -0.14762994319432 -1.07778879927993
 6 -7.37604121082108  0.03390248464846 -2.01862778537854
 6 -7.56143926052605 -1.29847500020002 -2.78159118371837
 6 -6.66252173587359 -2.11767554085409 -2.17658686858686
 6 -5.91055897939794 -1.39460348984898 -1.22744060876088
 6 -8.53044841954195 -1.57219700830083 -3.84457537693769
 6 -6.18146177327733 -3.49516862286229 -2.00874626852685
 8 -6.45429867046705 -4.49307427752775 -2.69583982968297
 6 -4.96885713921392 -3.53502526922692 -0.98272489328933
 6 -5.21877900550055 -4.54768997059706  0.10244739573957
 8 -5.57734191679168 -4.39225515891589  1.22467958825883
 8 -4.99610957415742 -5.84727861196120 -0.51060523192319
 6 -5.24465781498150 -7.03399699079908  0.28768630343034
 6  2.28701538313831 -5.08929518971897  0.88759674097410
 6  3.44048735883588 -4.23704520382038  1.11830311611161
 6  4.05019412311231 -3.30248006890689  0.30285266026603
 6  3.76818171547155 -3.27885107350735 -1.31497916671667
 6  5.18299250525052 -2.44610887908791  0.82529438033803
 6  6.50393599829983 -2.87235218821882  0.19939026492649
 6  7.60912003870387 -1.80416206200620  0.61320515511551
 6  8.98699730823082 -1.92497847984798 -0.08433514671467
 6  9.55037211731173 -3.40900080258026  0.16631975697570
 6  9.90972640824083 -0.84529515041504  0.38885684908491
 6  11.27865102240224 -0.81528432353235 -0.39208451905191
 6  12.25898351895190  0.27031622212221  0.15234602280228
 6  13.43767316141614  0.41810149704970 -0.65715547274727
 6  14.44629280228023 -0.67674840484048 -0.49946663186319
 6  14.10951088928893  1.79957472967297 -0.29014665706571
 6  15.46078535943594  2.09660159545955 -0.98935604330433
 6  15.95976559625962  3.57516002600260 -0.77581867486749
 6  17.29289368406841  3.95866478197820 -1.41616266406641
 6  17.22313129522952  3.99373493619362 -2.89863218321832
 6  17.84032745194519  5.13044117011701 -0.80565152215222
 1 -2.83328883478348  1.15569243284328  3.80278788998900
 1 -6.36923780668067  5.55324152635264  0.85179494219422
 1 -8.79166436553655  1.35646990849085 -2.99550493139314
 1 -3.57777484268427 -3.12600571727173  1.84453019511951
 1 -1.81046213221322 -1.09766737493749  2.91333349934993
 1 -3.04971429662966 -2.75838241914191  4.21692163806381
 1 -3.29625622572257 -1.00630274797480  4.73728986488649
 1 -4.65650732653265 -2.09655757375738  3.85667889048905
 1 -2.09576674227423 -2.95625867086709 -0.33995172977298
 1 -1.52537323702370 -1.69124775217522  0.57629847114711
 1 -0.53984837493749 -3.05919589188919  2.43741828292829
 1 -1.55015449404941 -4.42831966826683  1.67714675137514
 1 -2.03454210631063  3.16719140584058  4.01648402950295
 1 -2.57482513651365  4.89555919501950  4.57195285818582
 1 -3.33055298779878  3.27211040514051  5.26039301610161
 1 -5.72206606590659  6.66897487998800  2.45252736853685
 1 -10.23892787528753  3.10682783468347 -3.14550570517052
 1 -9.73816129902990  4.98825636013601 -3.05485847844784
 1 -9.03410917181718  3.96163406340634 -5.52700901150115
 1 -7.85518948494849  4.66735867646765 -4.76997667946795
 1 -8.12803307820782  2.73983829772977 -4.65027914261426
 1 -8.49537611921192 -1.29012226992699 -5.20129009800980
 1 -8.91738136603660 -2.69499655995600 -3.91748109200920
 1 -9.51291454055406 -1.07692432703270 -3.67795208030803
 1 -4.13339511551155 -3.58554437743774 -1.65939086918692
 1  2.51135907970797 -6.06402369546955  1.29901828972897
 1  2.34233756035604 -5.34055258165817 -0.03839927502750
 1  3.71957794019402 -4.09957007930793  2.07436580068007
 1  2.72214966686669 -3.58082963786379 -1.61863451355135
 1  3.90610794879488 -2.30734543514351 -1.65592380988099
 1  4.72981548894890 -3.77163902020202 -1.78730018731873
 1  4.91544541354135 -1.44811035563556  0.54419481058106
 1  5.07316967536754 -2.41907622482248  1.86092997929793
 1  6.95255447544754 -3.93320762026203  0.34548387008701
 1  6.38853769326933 -2.69385160116012 -0.91723140934093
 1  7.35618642024203 -0.81585814011401  0.64451320462046
 1  7.98839774997500 -2.09902815131513  1.66893436583658
 1  8.74572047164717 -1.90650869156916 -1.27363558225823
 1  8.68715088048805 -4.12868172807281 -0.03684615481548
 1  10.55903893329333 -3.53090644534453 -0.49245682758276
 1  9.72001874947495 -3.67908363696370  1.21016197919792
 1  9.55712677357736  0.10503891429143  0.37005618001800
 1  10.22173113171317 -1.06006432573257  1.53760469776978
 1  11.64827675877588 -1.67596491819182 -0.15408471627163
 1  11.11633757395740 -0.72015365086509 -1.39823066676668
 1  11.61326134423442  1.29467253905391  0.40060284988499
 1  12.52027278597860  0.05647693099310  1.30235941104110
 1  13.17047779007901  0.69045378817882 -1.78414461926193
 1  14.82853308050805 -0.69717273457346  0.56875197269727
 1  14.07130751725173 -1.51825500440044 -0.72951920602060
 1  15.44523437993799 -0.44964829252925 -0.87929033203320
 1  13.39155840144014  2.64891319051905 -0.50428030533053
 1  14.47311492369237  1.86906332083208  0.77330615791579
 1  16.35672439953995  1.44231969346935 -0.90506832183218
 1  15.17767256275628  2.04566281768177 -2.04544807570757
 1  14.99885134723472  4.11139434713471 -1.25838711871187
 1  15.86679631353135  3.74055001440144  0.27408986778678
 1  17.99346916371637  3.01816532503250 -1.01742613051305
 1  16.44657179397940  4.90180745964596 -3.19664394329433
 1  18.11067345724572  4.28987538073807 -3.41070850445045
 1  16.83114780008001  3.18597350855085 -3.54083463666367
 1  18.10100797479748  5.07879853285328  0.14982414811481
 1  18.78817642844285  5.52311853835384 -1.40792293339334
 1  17.17271984178418  5.86562097219722 -0.87926627872787
 1 -5.32173005760576 -7.79090018941894 -0.54046836283628
 1 -6.08260875217522 -7.03467284868487  0.83317316061606
 1 -4.46828904630463 -7.02370224642464  0.94612748114812
 8 -7.80240313561356  6.87226725812581 -0.46240966936694
 1 -8.82912629642964  6.17305472117212 -2.03239170667067

