%nproc=3
%Mem=2GB
# td=(NStates=1) iop(3/107=0140000000,3/108=0140000000) iop(3/107=0140000000,3/108=0140000000) CAM-B3LYP/6-31G(d,p) 

TD

0 1
12 -5.65315104630463  1.18010803850385  0.20935360416042
 6 -5.01024114591459 -2.15215918061806 -0.33558662376238
 6 -3.29674113401340  1.20357289878988  2.64363580178018
 6 -6.13456987928793  4.55599362246225  0.69963232443244
 6 -8.07831874987499  1.21171985438544 -2.40365445934593
 7 -4.29458654315432 -0.31247717081708  0.98019818681868
 6 -4.19558477887789 -1.66292747414741  0.54321804030403
 6 -3.12319372107211 -2.36494769336934  1.49072466106611
 6 -2.95196935233523 -1.36445711541154  2.63132991959196
 6 -3.44576137613761 -0.07476662926293  2.06642730133013
 6 -3.69258136613661 -1.78497519011901  3.93290114951495
 6 -1.89559440274027 -2.70686467966797  0.64150833693369
 6 -1.02914067696770 -3.60009509740974  1.40873475037504
 6  0.26321218861886 -3.89216408850885  0.66013417451745
 8  0.44767862176218 -3.56023571237124 -0.52677269266927
 8  1.10523220542054 -4.73710885568557  1.31978796729673
 7 -4.83603215421542  2.67418765546555  1.38844553115312
 6 -3.85975006220622  2.40122813881388  2.41206643244324
 6 -3.64649518671867  3.69063914641464  3.11187013141314
 6 -4.43709946564656  4.62621108660866  2.52899878407841
 6 -5.21389075147515  3.99060373687369  1.50399555145515
 6 -2.59472809770977  3.75514259795980  4.25511938243824
 6 -4.51435413541354  6.01514154835484  2.95902133893389
 8 -3.93690617791779  6.52601743194319  3.90446441894189
 7 -6.76380803040304  2.61766969946995 -0.72692536023602
 6 -6.91347354515452  3.94280468596860 -0.34110231333133
 6 -7.78751389158916  4.63348440524052 -1.19766257535754
 6 -8.36021905470547  3.71505063516352 -2.09924447684769
 6 -7.70342415391539  2.40848902300230 -1.76256002580258
 6 -8.09603188188819  6.04704607430743 -1.10622175677568
 6 -9.28647512591259  3.77379831813181 -3.15690823942394
 6 -8.70609959065907  3.91557292039204 -4.60110335703570
 7 -6.45733150045004 -0.20620580078008 -1.12715373577358
 6 -7.42882648934893 -0.03230413601360 -2.08445436803680
 6 -7.68057117371737 -1.36075122782278 -2.70796382098210
 6 -6.73904938863886 -2.23136690999100 -2.11527073697370
 6 -6.05219314281428 -1.43159718921892 -1.19189705440544
 6 -8.54705007970797 -1.63777356595660 -3.86644756415642
 6 -6.29743337043704 -3.59759886588659 -2.05894128802880
 8 -6.65393863446345 -4.53676864696470 -2.69409965566557
 6 -5.14744499799980 -3.63297506420642 -0.86410303110311
 6 -5.43714084168417 -4.66716191779178  0.15892304330433
 8 -5.88968315091509 -4.45005093849385  1.24860198049805
 8 -5.27670763396340 -5.93132701680168 -0.24782895429543
 6 -5.51430477967797 -6.86242983408341  0.77066460126013
 6  2.31468815041504 -5.05164142434243  0.73298127942794
 6  3.34416772687269 -4.07493899319932  1.01486277207721
 6  3.98656776047605 -3.19746956785679  0.16749912491249
 6  3.78433333063306 -3.15740892929293 -1.24879254805481
 6  5.11342554855486 -2.31488575677568  0.63391524242424
 6  6.44448005270527 -2.75326027902790  0.07137746364636
 6  7.55498462516252 -1.80919256505651  0.42758659325933
 6  8.98561717021702 -2.10725670767077 -0.18664537773777
 6  9.55659273937394 -3.43359326182618  0.24656778177818
 6  9.95566100170017 -0.92502312321232  0.37074503790379
 6  11.45349850715071 -0.84494728982898 -0.27506281688169
 6  12.23020064066407  0.26381557205721  0.24934572277228
 6  13.62562195629563  0.48122780968097 -0.53378313551355
 6  14.53399157215722 -0.60232096209621 -0.33489017421742
 6  14.22209214741474  1.85999077127713 -0.23440108250825
 6  15.40895017591759  2.27680961626163 -1.06590369806981
 6  16.00539015871587  3.62310482048205 -0.57081817481748
 6  17.30269466416642  3.95789470497050 -1.32821386918692
 6  17.11657063916392  4.11215677837784 -2.88471079107911
 6  17.81013443264326  5.34787291329133 -0.71475243224322
 1 -2.61916742264226  1.29036590019002  3.34789240044004
 1 -6.39952083498350  5.51343754595460  1.01898166086609
 1 -9.03473867296730  1.22850711221122 -3.07293267416742
 1 -3.65819288448845 -3.42006512321232  1.80803654575458
 1 -1.87221830783078 -1.22775038323832  2.84986715271527
 1 -3.15545487068707 -2.63550013091309  4.19482942884288
 1 -3.60481708180818 -1.07164928262826  4.85925206110611
 1 -4.81053272907291 -1.89686760476048  3.81748497109711
 1 -2.25444260986099 -3.33418646364636 -0.14072180678068
 1 -1.54627532723272 -1.76295492289229  0.11324216551655
 1 -0.67313170327033 -3.20786075837584  2.39371391249125
 1 -1.44059353795379 -4.54151098739874  1.52644168086809
 1 -1.71256990909091  3.49208389508951  3.81133351445144
 1 -2.48739639363936  4.90951059015902  4.43206886978698
 1 -2.73497342984298  3.10194338843884  5.12361933873387
 1 -5.18993285258526  6.67221520402040  2.27642975877588
 1 -9.96701068356836  3.06592374427443 -3.00276143074307
 1 -9.96714419731973  4.60567810231023 -3.12763575617562
 1 -9.52169793069307  4.05944384438444 -5.33759006960696
 1 -8.09329329532953  4.79429136973697 -4.67287696949695
 1 -8.04991526642664  3.12092640654065 -4.84008812351235
 1 -8.26632321392139 -0.83023628132813 -4.65085505450545
 1 -8.26215584348435 -2.57374443474347 -4.33829317321732
 1 -9.65427867696770 -1.79512614721472 -3.46603088818882
 1 -4.20566234223422 -4.06167199019902 -1.20067499759976
 1  2.58048599239924 -6.07698499159916  1.22311069896990
 1  2.09029235583558 -5.05872439883988 -0.33505894099410
 1  3.45158114051405 -3.84043416571657  2.09767813191319
 1  2.70999845174517 -3.30425198009801 -1.32339498959896
 1  4.13772111011101 -2.08561326192619 -1.55749396689669
 1  4.46878938633863 -3.75864772107211 -1.95554701200120
 1  4.93497736673667 -1.39655520012001  0.40869126022602
 1  5.12919527792779 -2.48376269346935  1.83259714601460
 1  6.50993021302130 -3.89113341284128  0.10214953665367
 1  6.36934577407741 -2.85248746474648 -1.10435012121212
 1  7.22022282388239 -0.76550310461046  0.12405115841584
 1  7.58448735893589 -1.87817606610661  1.60966843924392
 1  8.97504340394040 -2.16374441514151 -1.41766998569857
 1  9.09248141354136 -4.33009186908691 -0.32160463066307
 1  10.70920394979498 -3.53819717441744  0.09751216931693
 1  9.46510325792579 -3.60285601420142  1.36949791279128
 1  9.40466152705270 -0.01317290689069  0.16143531793179
 1  10.01923088168817 -0.89008732803280  1.41345228252825
 1  11.86078800990099 -1.87321464316432 -0.07413672147215
 1  11.10636657685768 -0.58458009350935 -1.30848169186919
 1  11.93877389548955  1.28741181298130  0.15661845144514
 1  12.32320307900790  0.12521380468047  1.24687386248625
 1  13.18554929722972  0.57470221302130 -1.50391659645965
 1  15.04957518471847 -0.36116913421342  0.75029012651265
 1  14.30509089558956 -1.57154033293329 -0.55362161626163
 1  15.47650750725072 -0.34572790049005 -0.90023242624262
 1  13.33274251985198  2.57724602380238 -0.20824070137014
 1  14.55588320052005  1.95526194069407  0.95944477177718
 1  16.18046677377738  1.62397785928593 -0.94384219921992
 1  15.17655245074507  2.38789704110411 -2.31092462336234
 1  15.24266572867287  4.38456166386639 -0.79353063306331
 1  16.07540717461746  3.39482544194419  0.54085654445445
 1  18.06033585038504  3.18762227072707 -1.32791717961796
 1  16.22413955075508  4.71539881878188 -3.33853813271327
 1  18.15961835173517  4.34831122432243 -3.25366279987999
 1  16.91153583888389  3.10669558075808 -3.13420397359736
 1  17.94104197819782  5.18301895489549  0.42871203690369
 1  18.65976358715872  5.59205543204320 -1.20548268936894
 1  17.03003557335733  6.21975638573857 -0.93090144224422
 1 -5.06201408600860 -7.87407850725072  0.41886757075708
 1 -6.55452594389439 -6.94956433783378  0.94422426572657
 1 -5.19021123852385 -6.79060893709371  1.91181404980498
 8 -7.77108000330033  6.89368940034003 -0.20770419881988
 1 -8.73909729352935  6.56576399209921 -1.93608207570757

