%nproc=3
%Mem=2GB
# td=(NStates=1) iop(3/107=0140000000,3/108=0140000000) iop(3/107=0140000000,3/108=0140000000) CAM-B3LYP/6-31G(d,p) 

TD

0 1
12 -5.73841957315732  1.24770479817982  0.20705337413741
 6 -4.98264838663866 -2.10279424412441 -0.41867493259326
 6 -3.31578303820382  1.30550309180918  2.57112855105511
 6 -6.27996441874187  4.59914793789379  0.61306366756676
 6 -8.04328524652465  1.14037271967197 -2.36268036193619
 7 -4.45503258775878 -0.34587051015102  1.08595876287629
 6 -4.25223044344434 -1.64301548294830  0.68838255675568
 6 -3.18665006670667 -2.29385058365837  1.48377396599660
 6 -2.99064321972197 -1.27205787548755  2.58148493509351
 6 -3.56565336533653 -0.07862701530153  2.10269092769277
 6 -3.38706081408141 -1.75179187178718  4.00346820622062
 6 -1.95885072837284 -2.63528752195220  0.63651783788379
 6 -0.94676243914391 -3.53450853875388  1.37192106900690
 6  0.23396926432643 -3.93508838093809  0.55915407650765
 8  0.35611946584658 -3.55328501730173 -0.55686570197020
 8  1.04770645284528 -4.71731687648765  1.27608359685969
 7 -4.96574512551255  2.66496673337334  1.42116880348035
 6 -3.97740182738274  2.45230324632463  2.30570579637964
 6 -3.65212574977498  3.68975905840584  3.02775171957196
 6 -4.60412616831683  4.66075454095409  2.53405929012901
 6 -5.37900726312631  4.03265794229423  1.42145729762976
 6 -2.70553917881788  3.86148323202320  4.16924079457946
 6 -4.71673437343734  6.08158819301930  2.92328776557656
 8 -3.98804129142914  6.60326515671567  3.81541551405140
 7 -7.01593324292429  2.62936086858686 -0.65382805050505
 6 -7.07132933073307  3.95736614211421 -0.28618682178218
 6 -8.03659880008001  4.58293935073507 -1.14483729282928
 6 -8.61852488528853  3.63138226832683 -2.01366591899190
 6 -7.90395420692069  2.43802197629763 -1.65826959675968
 6 -8.34468674737474  5.95389675937594 -1.10116125072507
 6 -9.50300677907791  3.75225616391639 -3.17185973457346
 6 -8.84012299299930  3.93226458955896 -4.56134938163816
 7 -6.39417518481848 -0.07317249744974 -1.04771579197920
 6 -7.33960756745675 -0.07726863246325 -2.04193011561156
 6 -7.58150126672667 -1.32245739843984 -2.70189321392139
 6 -6.65779126282628 -2.16027980128013 -1.97649685958596
 6 -5.99945786928693 -1.30576460596060 -1.10352821752175
 6 -8.72172754745475 -1.56184597319732 -3.69302022142214
 6 -6.13509713681368 -3.53250235623562 -2.03266866076608
 8 -6.51869511011101 -4.49391436153615 -2.74190443614361
 6 -4.94234448794879 -3.48794056075608 -0.89202582338234
 6 -5.26054318191819 -4.62612781438144  0.14517166816682
 8 -5.48989317191719 -4.33252918631863  1.29221634193419
 8 -5.12086204940494 -5.81891577567757 -0.32889706110611
 6 -5.39217256645665 -6.83177676877688  0.72858039283928
 6  2.30827750935094 -5.05819207940794  0.59530751205121
 6  3.39548285838584 -4.19665116441644  0.89068035383538
 6  4.09246835053505 -3.41724154505451  0.05829820482048
 6  3.75076997429743 -3.24533772217222 -1.40661833063306
 6  5.28197240324032 -2.50371463966397  0.62985483638364
 6  6.59400500520052 -2.78285323832383 -0.14883455755576
 6  7.80311943864386 -2.06912855865587  0.67448128272827
 6  9.10562917141714 -2.17393337533753 -0.00600731393139
 6  9.80402748284829 -3.51630153265326  0.19386251125113
 6  10.06372180778078 -1.06537715861586  0.56237420082008
 6  11.34456761406141 -0.85600839593959 -0.17552286288629
 6  12.30363798439844  0.36290548104810  0.17657844604460
 6  13.60139953405340  0.52507219411941 -0.63484324152415
 6  14.49121729472947 -0.71775250525053 -0.29132581778178
 6  14.27647758595860  1.88104287648765 -0.32104974737474
 6  15.50171945284528  2.19203113841384 -1.10428753645365
 6  16.03025264496450  3.48411092109211 -0.54319541254125
 6  17.35290968566857  4.01467038253825 -1.19607065486549
 6  17.24119310141014  3.90932649534953 -2.69962228222822
 6  17.85644906410641  5.39112723872387 -0.75422637963796
 1 -2.72822832873287  0.96702356595660  3.55218282948295
 1 -6.64456533943394  5.52237844004400  0.63750351305131
 1 -8.92179737883788  1.16355061656166 -2.90809619051905
 1 -3.63395046024602 -3.30953407010701  1.98523426552655
 1 -1.90588167416742 -1.08959656785679  2.85695786178618
 1 -3.06025535073507 -2.65885246614661  4.31861180708071
 1 -3.19729632973297 -0.88666078377838  4.83500963686369
 1 -4.57931960776078 -1.84664258225823  3.84486770937094
 1 -2.32224939053905 -3.13462650765077 -0.15156289088909
 1 -1.46727742744274 -1.83496212361236  0.34759560086009
 1 -0.40127451755176 -3.05793576587659  2.32486702780278
 1 -1.35905538413841 -4.37832466876688  1.79082811951195
 1 -1.61840049214921  3.61044573127313  3.83995637673767
 1 -2.54252190619062  4.97776741584158  4.60437610051005
 1 -2.86926685918592  2.90433362746275  4.95592256905691
 1 -5.40607446674667  6.66981496399640  2.47003911971197
 1 -10.30213419591959  2.75336248814882 -3.16656781138114
 1 -10.15442292519252  4.65743327782778 -2.99050204280428
 1 -9.54704046494649  4.12952085208521 -5.24711102170217
 1 -7.99651361736174  4.67939988058806 -4.67021670347035
 1 -8.46637691259126  3.12922723662366 -4.92603671837184
 1 -8.50149673127313 -0.80515377307731 -4.65183515251525
 1 -9.13284291219122 -2.61340840114011 -3.85901524542454
 1 -9.61650489958996 -1.00198683328333 -3.24136842194219
 1 -3.98939071507151 -3.89644546754675 -1.38734366446645
 1  2.61686963076308 -6.05347264036404  0.99324771267127
 1  2.24484781138114 -5.10366889328933 -0.51524695979598
 1  3.64161014341434 -4.02932305460546  1.90674903900390
 1  2.89410686258626 -3.81650320522052 -1.72965561566157
 1  3.65191252925292 -2.06913161376138 -1.54642285978598
 1  4.49467197459746 -3.79571142744274 -2.13384484178418
 1  5.00905477447745 -1.40447599219922  0.53328371947195
 1  5.56818917731773 -2.71827614481448  1.62665655195519
 1  6.77313653365337 -3.91249554905491 -0.15840651895190
 1  6.79644848434843 -2.32968518451845 -1.26389607580758
 1  7.47380818241824 -1.03808036233623  0.64288304160416
 1  7.84018292849285 -2.37434568306831  1.85654312671267
 1  9.15446134573457 -1.89621766246625 -1.22973119181918
 1  9.21594375977598 -4.25058391829183 -0.23638610881088
 1  10.86900993039304 -3.39300265496550 -0.26351393329333
 1  10.04309105670567 -3.59580530913091  1.24432539553955
 1  9.58537959885988 -0.09677126672667  0.51525069946995
 1  10.09542850145014 -1.19039735903590  1.65367630493049
 1  12.20580251135114 -1.65675299699970 -0.14044335213521
 1  11.24538047824783 -0.78305994149415 -1.13930477417742
 1  11.75750576867687  1.34490756255626  0.17028981858186
 1  12.54141490019002  0.01548283158316  1.26019519461946
 1  13.41267200950095  0.34978972177218 -1.82200840564056
 1  14.55921614881488 -0.92817583488349  0.82735783328333
 1  14.10829121562156 -1.66361954085409 -0.79104535863586
 1  15.47131698819882 -0.77335066276628 -0.70908331133113
 1  13.59473871947195  2.71985028422842 -0.42359223652365
 1  14.80203781598160  1.63693010751075  0.72594142144214
 1  16.32653138023802  1.38689415091509 -1.17569538453845
 1  14.95152994849485  1.95712396379638 -2.14320785168517
 1  15.26873833593359  4.24285749344935 -0.72240352035204
 1  15.99628926282628  3.65215117451745  0.53091555035504
 1  18.00741055785578  3.11353486198620 -0.93360774867487
 1  16.28839597639764  4.54734201310131 -2.87626190509051
 1  18.08016040594059  4.27082347554755 -3.23311074467447
 1  17.18879356465646  2.80354526572657 -2.98898945214521
 1  18.04305217921792  5.47125777877788  0.47841700740074
 1  18.71452906370637  5.57797402390239 -1.14917705880588
 1  17.30937350715072  6.19955436553655 -1.11732008410841
 1 -5.10992887748775 -7.66274737413741  0.10275595959596
 1 -6.48085857715772 -6.95063444484448  1.12634247754775
 1 -4.61417363476348 -6.65128500470047  1.56975984438444
 8 -7.87930082538254  6.79513954535454 -0.34539796819682
 1 -9.17966134993499  6.03243065876588 -1.59218768626863

