%nproc=3
%Mem=2GB
# td=(NStates=1) iop(3/107=0140000000,3/108=0140000000) iop(3/107=0140000000,3/108=0140000000) CAM-B3LYP/6-31G(d,p) 

TD

0 1
12 -5.57716344754475  1.29564959265927  0.25606827562756
 6 -5.05755587738774 -2.09307327202720 -0.37181024612461
 6 -3.29587104700470  1.14661720322032  2.67918935713571
 6 -6.24937135943594  4.54059208230823  0.64504686588659
 6 -8.11569248724872  1.20022870527053 -2.31547564146415
 7 -4.26463354785479 -0.26917284038404  0.93499366636664
 6 -4.22795801620162 -1.55820700210021  0.54457817631763
 6 -3.16822822452245 -2.38756995559556  1.40505609420942
 6 -2.86418057345735 -1.34966563626363  2.57657444404440
 6 -3.50948774877488 -0.08355750835084  2.05964662326233
 6 -3.51276338433843 -1.76679337193719  3.87136499589959
 6 -2.00288513181318 -2.75016901010101  0.53881806790679
 6 -0.98270603350335 -3.61592668056806  1.33538741564156
 6  0.20819668706871 -3.94563943604360  0.45617377847785
 8  0.49612346624662 -3.59765945474547 -0.60717073247325
 8  1.03008469066907 -4.82077722252225  1.19423541204120
 7 -4.75310386138614  2.63411364806481  1.46477316391639
 6 -3.83547763496350  2.46516453245325  2.44098932473247
 6 -3.74401493869387  3.72646272877288  3.15302424682468
 6 -4.50217597329733  4.63115158065806  2.55582146634663
 6 -5.20986034843484  3.93551822832283  1.50710586248625
 6 -2.74986361126113  3.81692877657766  4.14481835233523
 6 -4.47588028802880  6.09517955215522  2.86475191199120
 8 -3.79006149344935  6.57345217541754  3.73798777127713
 7 -6.93396504610461  2.62924085658566 -0.63422609030903
 6 -7.00406260406041  3.94018442394239 -0.35205340844084
 6 -7.96532167236724  4.62919397619762 -1.20133294239424
 6 -8.47237026982698  3.69892902300230 -2.03548810121012
 6 -7.87401121262126  2.35868404250425 -1.60865463526353
 6 -8.36630890959096  5.96449781948195 -1.20437157175718
 6 -9.41468794719472  3.87355829412941 -3.14390693929393
 6 -8.64482346304630  4.04184554765477 -4.49903315001500
 7 -6.43250901820182 -0.13757893809381 -1.04522554295430
 6 -7.41657526422642 -0.05777668326833 -2.03414933753375
 6 -7.59589270587059 -1.34821997469747 -2.68406143074307
 6 -6.81081656535654 -2.21240501380138 -2.06283549344935
 6 -6.06691461496150 -1.43201723122312 -1.06011387608761
 6 -8.71310668536854 -1.56142593119312 -3.71646256565657
 6 -6.39210283738374 -3.61069017501750 -1.91255664956496
 8 -6.61586482708271 -4.60535550565057 -2.64370461616162
 6 -5.11668192169217 -3.55267703440344 -0.88076469726973
 6 -5.41273840144014 -4.63543874547455  0.11517866886689
 8 -5.76723090569057 -4.44512044544454  1.28809592989299
 8 -5.24963492669267 -5.87149103320332 -0.45279945134513
 6 -5.45458880808081 -6.88576216731673  0.63308084288429
 6  2.29403608520852 -5.18384464466447  0.62882086338634
 6  3.32887619771977 -4.15431693099310  1.01582286808681
 6  4.02327143084308 -3.32903272417242  0.20169254425443
 6  3.89467436473647 -3.12762595099510 -1.28193586238624
 6  5.26083028902890 -2.56973124132413  0.83035488638864
 6  6.54207981268127 -2.75005995899590  0.16244657055706
 6  7.68095722242224 -1.85497714351435  0.69541337593759
 6  9.08748735723572 -1.94566054805481 -0.03232994619462
 6  9.80925800590059 -3.31052095459546  0.36912003700370
 6  10.10345578117812 -0.90269088998900  0.50082804620462
 6  11.47018017531753 -0.91650444554455 -0.19650496109611
 6  12.29251687228723  0.28564775527553  0.21422221042104
 6  13.55101449554955  0.42431211811181 -0.54639439663966
 6  14.47983615661566 -0.79085981598160 -0.36747343254325
 6  14.31112105030503  1.82043681588159 -0.27305494789479
 6  15.47904718561856  2.28988092339234 -0.98809591729173
 6  15.91879149884988  3.70421293129313 -0.58326941994199
 6  17.29141353605360  4.00812972847285 -1.37102815061506
 6  16.93401238333833  4.17535309800980 -2.95658797879788
 6  17.91738515771577  5.24438256425643 -0.75030598759876
 1 -2.82289779567957  1.04702156575658  3.57633524472447
 1 -6.32170305320532  5.50052625482548  0.89619938263826
 1 -8.72229742884288  1.07122138363836 -3.00542592349235
 1 -3.81878894409441 -3.23159627632763  1.61636737883788
 1 -1.71167225322532 -1.21374898309831  2.71952411841184
 1 -2.73640296549655 -2.60031661256126  4.18987893379338
 1 -3.58701530163016 -1.12830494819482  4.70343647954795
 1 -4.65985766156616 -2.19139705770577  3.68701192379238
 1 -2.38697586318632 -3.57687073207321 -0.14513224782478
 1 -1.77952865256526 -1.67219584698470  0.11041188248825
 1 -0.68309269936994 -3.12498247054705  2.34128866996700
 1 -1.39633911251125 -4.51101793809381  1.61917095379538
 1 -1.62302095419542  3.31848653535353  3.99209159025903
 1 -2.60600825482548  4.88989862896290  4.34941060396040
 1 -3.10498043054305  3.37362055615562  5.10152712951295
 1 -5.19481334063406  6.84327230973097  2.28738085388539
 1 -10.25754973747375  3.06963411531153 -3.25977713231323
 1 -10.02077956085609  4.83765129962996 -3.04755774837484
 1 -9.12156791769177  4.41428932893289 -5.42059837043704
 1 -7.85711967796780  4.88854079467947 -4.27654733653365
 1 -8.06337661256126  3.13413772767277 -4.70259437413741
 1 -8.54822140374037 -1.00231348904890 -4.76208617761776
 1 -8.89912954085409 -2.68255531583158 -3.78873821772177
 1 -9.65729897899790 -1.18356499109911 -3.47392167726773
 1 -4.11761353735374 -3.89140496349635 -1.38679360946095
 1  2.58618656245625 -6.10752804590459  0.98300668856886
 1  2.28626195279528 -5.35282380878088 -0.43662909800980
 1  3.47922390479048 -4.28771889418942  1.97637600170017
 1  2.91058851075108 -3.27394894979498 -1.48972162226223
 1  4.26417375537554 -2.29274397499750 -1.80181839933993
 1  4.39949245664566 -4.00226208250825 -1.83151460876088
 1  5.00789465846585 -1.53070861546155  0.64853524462446
 1  5.41856421482148 -2.72323664086409  1.79823370967097
 1  6.81341056105610 -3.85493979347935  0.29144846654666
 1  6.43033187268727 -2.60984320032003 -0.86766645284528
 1  7.52215301690169 -0.71632818711871  0.56569532283228
 1  7.79037794799480 -2.04176242474247  1.75875334773477
 1  9.03057895749575 -1.89539758045805 -1.13946216491649
 1  8.92650481588159 -4.10348920882088  0.19749727952795
 1  10.75345837523752 -3.45112846754675 -0.37403498539854
 1  10.13087983558356 -3.33418914751475  1.26626758975898
 1  9.76162722362236 -0.00044163376338  0.51238041244124
 1  10.20488944754475 -1.15635395469547  1.63774471177118
 1  11.97040897199720 -1.81026834853485  0.02767345954595
 1  11.35956189638964 -0.77386902240224 -1.36264710841084
 1  11.78585860396040  1.23125619741974  0.04084687428743
 1  12.44726548524853  0.22072335563556  1.32369154425443
 1  13.23863460576058  0.70117486028603 -1.64197040184018
 1  14.71464169136914 -0.70748376567657  0.90719581708171
 1  14.08410879737974 -1.64277745664566 -0.47207346144614
 1  15.47188704520452 -0.90199352705271 -0.87200960396040
 1  13.59321856745674  2.61090939013901 -0.40462033933393
 1  14.44709232143214  1.93042945744574  0.76400522782278
 1  16.19283801090109  1.55106056755676 -0.95943375837584
 1  15.21073586908691  2.27618586998700 -2.01781531243124
 1  15.11159262136213  4.27546075377538 -0.93609488948895
 1  15.95795542944294  3.93552951235124  0.63484594339434
 1  18.00702051885188  3.12004551305131 -1.26899128702870
 1  16.30689782658266  5.05904318321832 -2.92658693759376
 1  17.84197658755875  4.26377277047705 -3.53266069966997
 1  16.28527321262126  3.33022793399340 -3.47264781798180
 1  17.95656353035303  4.97589824282428  0.31429059475948
 1  18.97515512631263  5.19395562206221 -1.06617875897590
 1  17.24643721352135  6.24936934703470 -0.91290964306431
 1 -5.50963884848485 -7.72220331973197  0.01471715571557
 1 -6.54972546384638 -6.65209459085909  1.19585942924292
 1 -4.68954117151715 -6.74439431563156  1.38041090949095
 8 -7.86878977427743  6.85580561196120 -0.47217064546455
 1 -9.20010339413941  6.24780219591959 -1.69492796029603

