%nproc=3
%Mem=2GB
# td=(NStates=1) iop(3/107=0140000000,3/108=0140000000) iop(3/107=0140000000,3/108=0140000000) CAM-B3LYP/6-31G(d,p) 

TD

0 1
12 -5.60106583778378  1.18038806650665  0.16289895869587
 6 -4.92920304210421 -2.13905787048705 -0.47853091819182
 6 -3.54510597049705  1.20134267576758  2.81628306650665
 6 -6.28420484278428  4.60240826392639  0.74571693289329
 6 -7.86559747774777  1.20970965336534 -2.45982007590759
 7 -4.42360944544454 -0.26639256235624  1.05934610161016
 6 -4.29709492989299 -1.56657783918392  0.70414413291329
 6 -3.32965436713671 -2.24840603920392  1.53928951755176
 6 -3.00971512691269 -1.38371904160416  2.73567035363536
 6 -3.60373717371737 -0.05232438503850  2.18816947554755
 6 -3.50937304530453 -1.81767846044604  4.04221208060806
 6 -2.07643248654866 -2.67651164436444  0.63462764886489
 6 -1.08271603450345 -3.43973906180618  1.46908078497850
 6  0.17146301370137 -3.83941881398140  0.70878904000400
 8  0.48519237313731 -3.37537722652265 -0.37953796919692
 8  1.02048373057306 -4.66736188098810  1.36894288278828
 7 -4.99051760276028  2.52617285398540  1.52438912551255
 6 -4.13601768896890  2.43298131413141  2.54493971977198
 6 -3.84852538973897  3.64810489298930  3.26159510391039
 6 -4.58050380608061  4.62344080958096  2.63592947714772
 6 -5.48491785418542  3.97266194269427  1.63175832773277
 6 -2.87731635653565  3.83109019271927  4.33931780228023
 6 -4.57707040704070  6.08063809800980  2.87784322112211
 8 -4.00193268056806  6.55581041124112  3.90676464896490
 7 -6.83160481008101  2.68042597509751 -0.70959362706271
 6 -6.91601379917992  3.98078848434843 -0.35837404050405
 6 -7.92495763596360  4.54730578737874 -1.25145795489549
 6 -8.37102013481348  3.65505463556356 -2.14156870927093
 6 -7.75234904640464  2.41676985108511 -1.80564433423342
 6 -8.38209048774878  5.96453782348235 -1.11536267086709
 6 -9.54118059645965  3.79872081038104 -3.15322787138714
 6 -8.90162914361436  3.81874323742374 -4.57967121382138
 7 -6.29972573987399 -0.14747992819282 -1.11876289668967
 6 -7.35010861756176 -0.07120802640264 -2.08159408200820
 6 -7.44660777737774 -1.32641779447945 -2.69058208280828
 6 -6.54461994569457 -2.19784355765577 -2.15063427332733
 6 -5.88227615111511 -1.40179420892089 -1.07665553025303
 6 -8.52087746244625 -1.64972476107611 -3.84011493089309
 6 -6.14240786788679 -3.66850595659566 -2.02248764266427
 8 -6.56527976857686 -4.63613858395840 -2.57881812751275
 6 -4.96106636013601 -3.56638840554055 -0.93802042284228
 6 -5.29786691429143 -4.58328352995300  0.07968511951195
 8 -5.76029021162116 -4.42487842124212  1.16666378667867
 8 -4.96184614781478 -5.83526741084108 -0.39315348674867
 6 -5.35209855905591 -6.89331292239224  0.49029656445645
 6  2.26678335993599 -5.02216847704770  0.67463544484448
 6  3.37368067816782 -4.03081458075807  0.97764905070507
 6  3.98751785548555 -3.23607342824282  0.12546492149215
 6  3.71935683298330 -3.18012120052005 -1.29914758355836
 6  5.24334854085409 -2.35211948014801  0.60976282718272
 6  6.49397500220022 -2.67585253825383 -0.06736641074107
 6  7.59420854755476 -1.78326997279728  0.50688452305231
 6  9.02432104060406 -1.97239322132213 -0.20208692189219
 6  9.60471755185518 -3.41456135863586 -0.25973284828483
 6  9.92462789838984 -0.92374299519952  0.35017298069807
 6  11.33257641494149 -0.78789158425843 -0.34974028462846
 6  12.22038965956596  0.31343053355336  0.22513330153015
 6  13.60545994009401  0.46357604450445 -0.46123588078808
 6  14.52382055505551 -0.67031776177618 -0.18810549574957
 6  14.26121605980598  1.85355012721272 -0.07620526292629
 6  15.47116639753975  2.23272520782078 -0.99916702440244
 6  16.13587320702070  3.54980749074908 -0.66871796479648
 6  17.52086648134813  3.82914182968297 -1.36506755455546
 6  17.44316329842984  3.71466702940294 -2.90348266826683
 6  18.04268768796880  5.10915904190419 -0.85609656665667
 1 -2.50283578947895  1.11992885648565  3.44112172337234
 1 -6.22772365526553  5.50719692189219  0.74387415011501
 1 -8.65252045114512  1.10977523902390 -3.24017939883989
 1 -3.75906297149715 -3.05526864356436  2.27509325142514
 1 -1.98434952095210 -1.31434904310431  2.92020418641864
 1 -3.16187551275127 -2.80715729662966  4.34597454335433
 1 -3.46909350945094 -0.85688780648065  4.75791192709271
 1 -4.74948662446245 -1.87218513651365  3.95246846944694
 1 -2.34892205780578 -3.43435648064806  0.01658392379238
 1 -1.67020772047205 -1.89705833323332  0.30228106940694
 1 -0.88538292839284 -2.77678765106511  2.23243778487849
 1 -1.20798027662766 -4.36686352265226  2.09874891159116
 1 -1.77623627572757  4.10807549424942  3.90392277337734
 1 -3.00381803580358  4.76431607070707  4.85019068196820
 1 -2.86313624612461  3.10347354145414  4.95086206300630
 1 -5.25847970727073  6.58359634213421  2.19063117891789
 1 -10.29924390689069  2.98773592549255 -3.17069822442244
 1 -10.22098958185819  4.60374790929093 -3.02374536713671
 1 -9.64560032093209  3.80780868086809 -5.39682599319932
 1 -8.08098206420642  4.56201814241424 -4.64219390119012
 1 -8.46897717261726  2.72969728362836 -4.64090820552055
 1 -8.07222380398040 -1.14429768746875 -4.94802477147715
 1 -8.40030965886589 -2.67479453975398 -3.85872521642164
 1 -9.53182643174318 -1.23027966256626 -3.46182046714671
 1 -4.06746852285228 -3.92820864386439 -1.41037596769677
 1  2.59105704950495 -6.08510580368037  0.92771115901590
 1  2.15567889448945 -4.80026855325533 -0.40762619771977
 1  3.87008299069907 -4.00696081838184  2.02932129622962
 1  2.73413086498650 -3.61092264716472 -1.62051470157016
 1  3.61069840784078 -2.11813651425142 -1.55262347984799
 1  4.41716422382238 -3.72046390269027 -1.83075453275328
 1  4.83535740474047 -1.34563010761076  0.48421881298130
 1  5.37743010141014 -2.45807012421242  1.64392827912791
 1  6.58566778677868 -3.80901520102010  0.05232455415542
 1  6.56803564306431 -2.57457967396740 -1.25112479867987
 1  7.38945974757476 -0.66608316261626  0.33882263556356
 1  7.53767267746775 -2.05297354585459  1.63456092849285
 1  8.70014591419142 -1.72346038673867 -1.18698691739174
 1  8.85997816321632 -4.12894175407541 -0.50421289148915
 1  10.65455848524852 -3.37838119281928 -0.71556913881388
 1  9.76784353195320 -3.42878860746075  0.94565552855286
 1  9.52130319121912  0.09194760516052  0.03820299469947
 1  10.04542350095009 -0.95415373467347  1.59582051935194
 1  11.80996292739274 -1.82911023272327 -0.11864117191719
 1  11.29655559575958 -0.67475911141114 -1.34046489018902
 1  11.72943296139614  1.28458152995300  0.21866465606561
 1  12.37479823852385  0.15146642994299  1.30517969306931
 1  13.58322906520652  0.62698744154415 -1.56984318911891
 1  14.67479770697070 -0.86168918621862  0.83226832433243
 1  13.96679706620662 -1.52501568046805 -0.37374362846285
 1  15.48340819731973 -0.52992632033203 -0.81888429142914
 1  13.69107835343534  2.70164846404640 -0.17799767706771
 1  14.60535814801480  1.83492990749075  0.97051587888789
 1  16.16979570667067  1.40602606410641 -0.90051786678668
 1  15.08678347384738  2.24793304470447 -2.02826635753575
 1  15.37283874597460  4.33144635233523 -0.70491177117712
 1  16.48927856175617  3.75947190659066  0.44688714751475
 1  18.37496731353135  2.96781028952895 -1.11111549944995
 1  16.53038017481748  4.27477475637564 -3.27623190209021
 1  18.37615000490049  3.98503489668967 -3.43774120772077
 1  16.95810049534953  2.78995390659066 -3.31469202240224
 1  18.43703157715771  5.09820047304730  0.18599776547655
 1  18.85641325212521  5.50775700220022 -1.54555669676968
 1  17.31670424022402  5.85417982808281 -1.09175752785279
 1 -5.10413829842984 -7.83243434283428  0.18757444144414
 1 -6.43873436473647 -6.92074145554555  0.62024186748675
 1 -4.75250746814682 -6.60145002120212  1.41940480888089
 8 -7.87918081338134  6.82393242464246 -0.38265169356936
 1 -9.16507989178918  6.35740315601560 -1.85059352685269

