%nproc=3
%Mem=2GB
# td=(NStates=1) iop(3/107=0140000000,3/108=0140000000) iop(3/107=0140000000,3/108=0140000000) CAM-B3LYP/6-31G(d,p) 

TD

0 1
12 -5.60580631183118  1.17477750545055  0.19256192499250
 6 -4.99721984378438 -2.18580254495450 -0.36808987408741
 6 -3.31530299019902  1.17619016051605  2.74822626082608
 6 -6.03005942824282  4.65198322142214  0.54549691089109
 6 -7.85696661466147  1.18724740714071 -2.30175426932693
 7 -4.35222230673067 -0.34200012311231  1.08117828482848
 6 -4.21402662306231 -1.61901308270827  0.67862158065807
 6 -3.24648605030503 -2.35550674927493  1.53185877447745
 6 -3.01809596499650 -1.36701737143714  2.68994578117812
 6 -3.58023482348235 -0.10999015161516  2.12979363796380
 6 -3.59932204020402 -1.83978067066707  3.92821068046805
 6 -2.01311615491549 -2.71692568576858  0.63949813591359
 6 -1.01108887178718 -3.69188427632763  1.37504138103810
 6  0.25781164856486 -4.07024189628963  0.55410357145715
 8  0.38354220812081 -3.75626531533153 -0.66825684108411
 8  1.12481416361636 -4.83399854465446  1.29766575507551
 7 -4.81657020802080  2.63903414011401  1.43168985558556
 6 -3.91358544574457  2.33263127912791  2.48379360516052
 6 -3.62902343954395  3.66570665316532  3.26947589198920
 6 -4.46593234893489  4.56738520402040  2.55375125932593
 6 -5.18311767416742  3.93524820132013  1.49824497639764
 6 -2.76423504840484  3.80505758945895  4.34855872637264
 6 -4.59269196919692  5.99369940414041  2.86571200800080
 8 -3.94758724602460  6.62156698689869  3.70548452095210
 7 -6.79084073367337  2.62003993649365 -0.66733940164016
 6 -6.87828002580258  4.01117152265227 -0.38307651075107
 6 -7.81801694189419  4.60342139893989 -1.20438324742474
 6 -8.33631666446645  3.63979310941094 -2.03583813621362
 6 -7.66984079557956  2.46215438953895 -1.65612938273827
 6 -8.24160643934393  6.08081945164516 -1.16054718931893
 6 -9.37562404080408  3.69866080438044 -3.08228077667767
 6 -8.72598157885789  3.94381574467447 -4.39195244194419
 7 -6.34772053935393 -0.10080526072607 -1.09945096549655
 6 -7.23676728342834 -0.03704461006101 -2.08700462306231
 6 -7.42408552515252 -1.32070722342234 -2.75057808240824
 6 -6.59770525422542 -2.15881965526553 -2.09725893579358
 6 -5.96966488998900 -1.35320935043504 -1.10869873457346
 6 -8.36640201490149 -1.69684947354735 -3.83840475987599
 6 -6.18501212831283 -3.52927203320332 -2.01078647254725
 8 -6.44849809040904 -4.41941691179118 -2.73961420712071
 6 -5.02147240074007 -3.59761152785279 -0.90969759055906
 6 -5.37213434103410 -4.59634483608361  0.16860401140114
 8 -5.80074425702570 -4.39844577797780  1.24670179047905
 8 -5.20480044324432 -5.78294217831783 -0.36784095549555
 6 -5.39585293449345 -6.89676326742674  0.50068760356036
 6  2.48101478307831 -5.05368162836284  0.67105508680868
 6  3.49207251735174 -4.13569506880688  1.17532881868187
 6  3.99473857755776 -3.28602842374237  0.28289066406641
 6  3.64494939223922 -3.16093928232823 -1.18772644144414
 6  5.03837804380438 -2.35032930113011  0.74995684658466
 6  6.40487609230923 -2.70965591859186  0.01717204310431
 6  7.52027115381538 -1.73192483828383  0.57733156775678
 6  8.93632224072407 -1.95297127912791 -0.02381909510951
 6  9.47994507460746 -3.39335923842384  0.22891601660166
 6  9.93929936553655 -0.89662028292829  0.37768573197320
 6  11.17978113541354 -0.82812560766077 -0.34860017061706
 6  12.04719233983398  0.44683387388739  0.21542233043304
 6  13.30986038013801  0.58265795269527 -0.62134189138914
 6  14.31846001900190 -0.62131286128613 -0.37507419261926
 6  14.05487542574257  1.87694246644664 -0.20786842924292
 6  15.36415569646965  2.21890382568257 -0.94588169586959
 6  15.94458407810781  3.53585609560956 -0.63079417241724
 6  17.29487388208821  3.85271418691869 -1.39085013281328
 6  17.13689267136714  3.95666122882288 -2.86714903490349
 6  17.91561498069807  5.20067819381938 -0.89385034203420
 1 -2.73390889678968  1.26106296989699  3.64469208040804
 1 -6.20407129002900  5.66835303750375  0.89811957465747
 1 -8.77778297739774  1.33963822532253 -2.85615099599960
 1 -3.82393945914591 -3.32483560026003  1.74964070617062
 1 -1.88765985198520 -1.23353096129613  2.96797896389639
 1 -3.16875620082008 -2.95178175907591  4.17768771467147
 1 -3.23691029112911 -1.03617573527353  4.72169830573057
 1 -4.62102377817782 -1.95176309430943  3.88320154275428
 1 -2.32339950555055 -3.05551859685969 -0.45060279487949
 1 -1.61044174387439 -1.69106773417342  0.34159500080008
 1 -0.59649403950395 -3.16575654795480  2.09551409250925
 1 -1.67789726832683 -4.61611844814481  1.74141317801780
 1 -1.85873452555256  3.43255794249425  3.91594397549755
 1 -2.58119577357736  4.72405204430443  4.52755841874187
 1 -3.21523145564557  3.42712590669067  5.29384636143614
 1 -5.31339519881988  6.38782676517652  2.00560267606761
 1 -10.02010599309931  2.81421857375738 -3.27245840044004
 1 -10.19423690659066  4.51529906440644 -2.78840183278328
 1 -9.41104686558656  3.80874877487749 -5.34042035263526
 1 -8.23121708770877  4.88405034563456 -4.50578025982598
 1 -7.99738001290129  3.09313362726273 -4.59587370207021
 1 -8.07483406500650 -1.31766502420242 -4.87029699869987
 1 -8.47653728162816 -2.81023808410841 -3.88130747464746
 1 -9.38296154525452 -1.28810544514451 -3.54401868696870
 1 -4.34077585358536 -3.92011783478348 -1.54065899599960
 1  2.68753669746975 -6.02747004010401  1.14102249014902
 1  2.19320264686469 -5.02996152255225 -0.36812224732473
 1  3.76334231663166 -4.22910303260326  2.18039640374037
 1  2.52351980388039 -3.25381693659366 -1.45016766686669
 1  3.66388372637264 -2.08631333193319 -1.62259047654765
 1  4.14218672607261 -3.93990584688469 -1.92224368166817
 1  5.10882475147515 -1.30534607920792  0.29373976507651
 1  5.24310666906691 -2.48683300050005  1.98324221052105
 1  6.52315153515351 -3.61254555405541  0.30773009470947
 1  6.10434927442744 -2.60193240924092 -1.08371805800580
 1  6.98297909950995 -0.67962451675168  0.31387014031403
 1  7.56287519771977 -1.57493574207421  1.70737821022102
 1  9.04603050265027 -1.84361240194019 -1.20130834953495
 1  8.72185435083508 -3.90410927082708 -0.21679414961496
 1  10.50163319271927 -3.65030838553855 -0.06574415631563
 1  9.65975272287229 -3.38365409400940  1.41489245224522
 1  9.42947400830083  0.02801121152115  0.13322249664967
 1  10.05879483808381 -0.86311463076308  1.50619155645565
 1  11.63956588768877 -1.80571789348935 -0.56123543134313
 1  10.98837477767777 -0.44092572807281 -1.26117696139614
 1  11.63538355645565  1.58372144394439  0.31163395299530
 1  12.32708346704671  0.13629491279128  1.31233040814081
 1  13.02741348364836  0.83776851965197 -1.75101130593059
 1  14.36109633683368 -0.47910092739274  0.60344544204420
 1  13.99119950645065 -1.73553673257326 -0.91627788188819
 1  15.34739459595959 -0.20137346504650 -0.89161156415642
 1  13.45201444704470  2.91570987018702 -0.39362924022402
 1  14.33499111131113  1.95321173567357  0.73646247354735
 1  16.17288601570157  1.44865032653265 -0.81871968696870
 1  15.39956475197520  2.22059031043104 -2.06058958985899
 1  15.31235269736974  4.44909811751175 -0.83490477047705
 1  16.29794942884288  3.64011997139714  0.45349780858086
 1  17.99423924072407  3.17354086258626 -1.15729011691169
 1  16.60473761056106  4.79813709260926 -3.09665394429443
 1  18.08047043694369  3.93539993319332 -3.56300373397340
 1  16.70778546384638  3.12443735493549 -3.33909446264626
 1  18.24086196019602  5.13250390339034  0.31939110481048
 1  18.79072668346835  5.57029325582558 -1.61210335143514
 1  16.93943651345134  5.92257666776678 -0.71873022512251
 1 -5.09345723032303 -7.72201330073007 -0.11821613761376
 1 -6.56167665896590 -7.01267064846485  0.54256409970997
 1 -4.87694991239124 -6.68270814701470  1.41547441584158
 8 -7.70432332763276  6.86475650705071 -0.43367679607961
 1 -8.98600198399840  6.53579099479948 -1.85617408490849

