%nproc=3
%Mem=2GB
# td=(NStates=1) iop(3/107=0140000000,3/108=0140000000) iop(3/107=0140000000,3/108=0140000000) CAM-B3LYP/6-31G(d,p) 

TD

0 1
12 -5.58853458465847  1.15918594629463  0.18499116791679
 6 -5.01014113591359 -2.18134209890989 -0.34030709580958
 6 -3.41164262416242  1.22669521102110  2.86035747394739
 6 -6.26310273257326  4.55104312741274  0.68399076027603
 6 -8.04100501850185  1.21860054245425 -2.29353344724472
 7 -4.33147023152315 -0.32492841594159  0.99831999899990
 6 -4.24170939133913 -1.58384956635664  0.67135085358536
 6 -3.23909531123112 -2.29770096869687  1.56024161276128
 6 -2.84095825122512 -1.21200186988699  2.69557634423442
 6 -3.60352715271527 -0.00868002060206  2.12845350395040
 6 -3.44003611161116 -1.55510220282028  4.01529938933893
 6 -1.98078292159216 -2.76058005120512  0.76066025212521
 6 -0.93745150805081 -3.56979206710671  1.45634951185119
 6  0.30837670507051 -3.87837270937094  0.53868202930293
 8  0.35158901280128 -3.42965265406541 -0.55070508590859
 8  1.08083976617662 -4.66769191399140  1.20553654215422
 7 -4.86489504050405  2.62641287798780  1.40186687328733
 6 -3.97640172737274  2.44904292029203  2.57317254305431
 6 -3.72803334053405  3.61454153665367  3.14889383378338
 6 -4.56017177287729  4.55344380988099  2.52601848604860
 6 -5.21865122752275  3.97775245174517  1.41023617551755
 6 -2.77907653255326  3.83847093079308  4.34044791529153
 6 -4.60858355835584  5.95047508170817  2.87225266206621
 8 -3.90179266656666  6.50552538273827  3.65058903140314
 7 -6.93387503710371  2.61810974347435 -0.65102777047705
 6 -7.01001319911991  4.00218062356236 -0.38508671177118
 6 -8.01416655685569  4.60317137393739 -1.16457926702670
 6 -8.49181221402140  3.60080921102110 -2.07273182558256
 6 -7.71187499899990  2.41863003710371 -1.68552232203220
 6 -8.24033631233123  6.03728509820982 -1.21055218981898
 6 -9.38733521192119  3.70824176247625 -3.22324487308731
 6 -8.74106308700870  4.00057142024202 -4.48013125982598
 7 -6.33040880818082 -0.14212939313931 -1.10382140254025
 6 -7.41242484918492 -0.02199310491049 -2.03525944854485
 6 -7.52718583518352 -1.27276242894289 -2.67169019361936
 6 -6.59298478217822 -2.17492126542654 -2.13779298919892
 6 -6.03038096159616 -1.40289431893189 -1.05370323502350
 6 -8.37256263096310 -1.52664245284528 -3.80531145054505
 6 -6.20504413151315 -3.53852295829583 -2.01862725662566
 8 -6.47692093269327 -4.49421439153915 -2.53547379307931
 6 -4.97986824032403 -3.60137190389039 -0.92998961976198
 6 -5.26148327592759 -4.61469667126713  0.11463861486149
 8 -5.81687587018702 -4.41212714611461  1.21605872617262
 8 -4.99173913711371 -5.87702158625863 -0.38266243764376
 6 -5.44167751695170 -7.01750534163416  0.47323485828583
 6  2.30663734533453 -5.03712997319732  0.47199518081808
 6  3.36436974707471 -4.21265276457646  0.91005229102910
 6  3.96239534323432 -3.26551637253725  0.19648202320232
 6  3.69566446374637 -2.92689587798780 -1.24772244104410
 6  5.11906611261126 -2.47426169436944  0.79881173207321
 6  6.56234183888389 -2.82113706670667  0.03665399129913
 6  7.69677880458046 -1.93576522232223  0.62306614121412
 6  9.11240984948495 -2.02079806180618 -0.07835454865487
 6  9.59290637073707 -3.49529943244324  0.02326545154515
 6  9.98724416001600 -0.91589221012101  0.32987095049505
 6  11.36913007030703 -0.92252504760476 -0.34291960256026
 6  12.20378799939994  0.22456164666467  0.25995678387839
 6  13.59438883298330  0.42160184708471 -0.35782553975398
 6  14.50363853685369 -0.83640437043704 -0.08528521372137
 6  14.25590552875287  1.79920469266927 -0.07071471387139
 6  15.40346962786279  2.22130406570657 -0.90085719341934
 6  15.86127574727473  3.62615512551255 -0.72001309430943
 6  17.18241263596359  4.01885080058006 -1.33859490729073
 6  16.81513049514952  3.95266082878288 -2.92516483648365
 6  17.88923234243424  5.28567669366937 -0.94995595259526
 1 -2.68146365226523  1.09677654125413  3.71755936713671
 1 -6.68404928782878  5.52978918111811  1.09196895959596
 1 -8.95104030313031  1.08550281178118 -2.93644902580258
 1 -3.55320238543854 -3.31917503420342  1.81263700580058
 1 -1.83086417241724 -1.06207381558156  2.78661082708271
 1 -3.09555888108811 -2.62352893379338  4.57468741464146
 1 -3.08327492759276 -0.78377049474947  4.63510964686469
 1 -4.52664434023402 -1.54912283028303  3.82274549714972
 1 -2.37385455105511 -3.11617466246625 -0.14957269186919
 1 -1.53663436313631 -1.66536516391639  0.31186202750275
 1 -0.41239562966297 -3.08623859615962  2.24255879697970
 1 -1.36632611121112 -4.46884372067207  1.74697373407341
 1 -1.82915156725673  3.63151783848385  4.05838821992199
 1 -3.07733538753875  4.82438207730773  4.72336799969997
 1 -3.18106803930393  3.34519771387139  5.30589756655666
 1 -5.39194305360536  6.63219120162016  2.50922303810381
 1 -9.94287827032703  2.72855000690069 -3.26224737933793
 1 -10.06736421932193  4.48424595909591 -2.86634962756276
 1 -9.63756951785179  3.99038693869387 -5.19951626222622
 1 -8.07516148214821  4.81752369296930 -4.58149783158316
 1 -7.84103437833783  3.19443375727573 -4.72808692339234
 1 -8.15171175277528 -0.97796105380538 -4.70966093509351
 1 -8.25423505140514 -2.56662372267227 -4.02539188308831
 1 -9.43742699179918 -1.36775340994099 -3.54890917601760
 1 -4.06121789778978 -3.74702052505251 -1.56147107720772
 1  2.54021196499650 -6.14360165326533  0.74986337423742
 1  2.10439376597660 -4.86838536493649 -0.64408984408441
 1  3.80391637403740 -4.23478360066007  1.92788115221522
 1  2.79856730863086 -3.23133468836884 -1.73738638873887
 1  3.87382472047205 -1.79513421402140 -1.39446766426643
 1  4.34707721512151 -3.52526438273827 -2.02395385268527
 1  4.93539740874087 -1.37594313891389  0.73361375247525
 1  5.13520587898790 -2.66268058525853  1.91397528382838
 1  6.55886510651065 -3.84032833233323  0.11239056075608
 1  6.27294613411341 -2.42744496049605 -1.05826551275128
 1  7.54327512911291 -0.83558011231123  0.61395014831483
 1  7.99947885808581 -2.22138038653865  1.57996546894689
 1  8.74659055865587 -1.77814585528553 -1.14540275897590
 1  9.08112027742774 -4.27810667056706 -0.53294576477648
 1  10.55640867026703 -3.40149350405040 -0.34901248314832
 1  9.69847659525953 -3.78640436903690  0.94695565856586
 1  9.46702776367637  0.07672608300830  0.39944911931193
 1  10.14197315591559 -1.16736505580558  1.44436537383738
 1  11.83132506360636 -1.73767108880888 -0.18038734653465
 1  11.30532647284728 -0.67226886238624 -1.51984282798280
 1  11.56851686978698  1.15901897369737  0.45022781238124
 1  12.18608936763676  0.00952223552355  1.36528570367037
 1  13.45346608890889  0.65388013081308 -1.55468167296730
 1  14.82226245344535 -1.05160817811781  0.87971306880688
 1  14.05525591209121 -1.75222840174017 -0.47748400250025
 1  15.35171502800280 -0.53299662736274 -0.64790719371937
 1  13.41411065666567  2.58893719291929 -0.39524940224022
 1  14.46286389858986  1.98605502000200  1.02768159545955
 1  16.54280300740074  1.69563502500250 -0.82809062406241
 1  15.02324712021202  1.95242349374938 -1.87699123002300
 1  15.09854131623162  4.39490269796980 -1.04402568256826
 1  16.24996463036303  3.87408336773677  0.36780923972397
 1  18.09058887568757  3.28107161566157 -1.27075146304630
 1  16.00936807360736  4.60936821572157 -3.39701398029803
 1  17.66487887778778  4.39174556775677 -3.46876431003100
 1  16.59974465976597  2.86030094129413 -3.29526007920792
 1  18.06883475747575  5.26086673967397  0.06903606930693
 1  18.87814542534253  5.41837806430643 -1.30362250335034
 1  17.09516208600860  6.04222863296330 -1.58650700280028
 1 -4.96411429602960 -7.86444754415442 -0.04005832183218
 1 -6.61548203950395 -7.26299568096810  0.37848769206921
 1 -5.05135735313531 -6.79015889208921  1.50488335673567
 8 -7.78366126142614  6.88303833523352 -0.47563099149915
 1 -8.97415079887989  6.22153956965697 -1.94379284678468

