%nproc=3
%Mem=2GB
# td=(NStates=1) iop(3/107=0140000000,3/108=0140000000) iop(3/107=0140000000,3/108=0140000000) CAM-B3LYP/6-31G(d,p) 

TD

0 1
12 -5.64779051025103  1.35032506020602  0.18018068686869
 6 -5.07934805660566 -2.16732069676968 -0.31611467656766
 6 -3.33890535043504  1.14027656915692  2.75140657885789
 6 -6.18328475077508  4.63618164126413  0.67043940514051
 6 -8.04612553055306  1.25339402180218 -2.38142223612361
 7 -4.35572265676568 -0.24936085918592  1.02062222922292
 6 -4.26644186458646 -1.60724190559056  0.65845956445645
 6 -3.24325572727273 -2.34003520212021  1.61397698629863
 6 -3.01635579097910 -1.27081775147515  2.66623340994099
 6 -3.48345514551455 -0.06406555915592  2.12430308890889
 6 -3.51058316631663 -1.87584427702770  3.97151501090109
 6 -2.00563540684068 -2.79073306650665  0.81200538663866
 6 -0.92368013091309 -3.46536162406241  1.57317119401940
 6  0.30821668906891 -3.98708358045805  0.58292645374537
 8  0.56389024292429 -3.57189687848785 -0.46369638503850
 8  1.07927961016102 -4.88167331213121  1.23272926142614
 7 -4.96464501550155  2.66338657535754  1.43185987258726
 6 -3.98846293349335  2.39607762376238  2.46044126992699
 6 -3.60120065726573  3.65993607610761  3.13227217161716
 6 -4.54447020272027  4.67597606310631  2.67403328752875
 6 -5.33871323372337  3.97302197869787  1.54120927282728
 6 -2.76534515941594  3.92159924362436  4.28857272777278
 6 -4.72440514051405  6.07386742094209  2.94413985078508
 8 -4.10673316061606  6.62042687288729  3.77226119861986
 7 -6.87162881248125  2.71033896639664 -0.76377904560456
 6 -6.97888008580858  3.93884428992899 -0.32437064016402
 6 -7.96984212441244  4.66709776657666 -1.19743255235524
 6 -8.42870590339034  3.65898502860286 -2.00372492489249
 6 -7.77342115361536  2.47165533963396 -1.76724049384939
 6 -8.21676395509551  6.07503887358736 -1.24671580618062
 6 -9.26122260066007  3.93922486078608 -3.18380092869287
 6 -8.60100908160816  4.05783714681468 -4.63090633733373
 7 -6.52520828812881 -0.10561574177418 -1.00655167556756
 6 -7.33170677737774  0.02872196659666 -2.05139106170617
 6 -7.57534065066507 -1.26905205790579 -2.71174419901990
 6 -6.67393287698770 -2.15676945024502 -2.08716792669267
 6 -6.03248117161716 -1.34062809230923 -1.08833669836984
 6 -8.44237961266127 -1.54974476307631 -3.83620453985399
 6 -6.12474610171017 -3.51068017401740 -2.02596799069907
 8 -6.46588982958296 -4.47576254635464 -2.64068431413141
 6 -4.96056631013101 -3.57889965666567 -0.94817143794379
 6 -5.23384051165116 -4.70138534013401  0.07596474747475
 8 -5.58276245884588 -4.45574150755075  1.21190831113111
 8 -4.79252921612161 -5.92231611571157 -0.45605977737774
 6 -5.18817216641664 -7.06955054615462  0.35832336713671
 6  2.33594027562756 -5.27033329352935  0.63352133343334
 6  3.41582489258926 -4.32107360666067  1.02721400720072
 6  3.95362446614661 -3.44453427432743  0.23289566456646
 6  3.63717861516152 -3.37173036143614 -1.22040970977098
 6  5.07110131613161 -2.49725399359936  0.65606745764576
 6  6.55453105780578 -2.89554450745075  0.26160648654865
 6  7.58856798349835 -1.91942358815882  0.49370320492049
 6  9.06386499499950 -2.10130611261126 -0.00762747594759
 6  9.67816489658966 -3.43949385188519  0.37779090409041
 6  9.89908534413441 -0.93963458435844  0.33817178057806
 6  11.39815297259726 -0.93952674777478 -0.34687999859986
 6  12.16428404900490  0.37755694619462  0.07036782498250
 6  13.45308470257026  0.49907959485949 -0.59729948714871
 6  14.45783395639564 -0.67253798379838 -0.10089677487749
 6  14.08429836803680  1.83756852905291 -0.24444208660866
 6  15.34214349524953  2.19871180648065 -1.09068617631763
 6  15.93220283998400  3.63090560056006 -0.70802189518952
 6  17.19950434513451  4.00922983848385 -1.39702074987499
 6  17.04868385048505  3.98620418311831 -2.98854117411741
 6  17.66780019921992  5.36929505550555 -0.92252320932093
 1 -2.61419692559256  1.20700756435644  3.54131174237424
 1 -6.44991587448745  5.67482368456846  0.80672043474347
 1 -8.70018521762176  1.18712297379738 -3.23997937883788
 1 -3.55800286548655 -3.20618373507351  1.86984272637264
 1 -1.84429551555156 -1.15589319751975  2.90408257425743
 1 -2.69517884308431 -2.64965154605461  4.33618356425643
 1 -3.54163076317632 -0.92421453915392  4.72224836073607
 1 -4.63883555935594 -2.00405832383238  4.07175039763976
 1 -2.21327849344934 -3.33382642764276  0.15575784118412
 1 -1.66261696139614 -1.75779440684068  0.09298013931393
 1 -0.26526091619162 -2.81262123442344  2.28372291339134
 1 -1.18643812241224 -4.23411024732473  2.12220125682568
 1 -1.64853350545054  3.61910659735974  4.00704308540854
 1 -2.74641229522952  4.88612825192519  4.62079774267427
 1 -3.14147407990799  3.19009220332033  5.03450042684268
 1 -5.45505936523652  6.67891587408741  2.37498961476148
 1 -9.91868585108511  3.17368452035204 -3.23657481208121
 1 -10.03391087398740  4.62257979247925 -2.97074006660666
 1 -9.46509227012701  4.33906180618062 -5.36289259985999
 1 -8.04798876487649  4.92573451405140 -4.44324400620062
 1 -7.96965724062406  3.19740405430543 -4.83276739143914
 1 -8.04153073467347 -1.06415967366737 -4.87384735373537
 1 -8.55092472037204 -2.66145320562056 -4.02709205310531
 1 -9.37295054415442 -1.14979161376138 -3.58093237833783
 1 -4.05171694769477 -3.69961578457846 -1.55445037513751
 1  2.37212515631563 -6.30976826992699  1.14495288318832
 1  1.93255658225823 -5.15108363476348 -0.40292572767277
 1  3.53133911631163 -4.42558268056806  2.09286765086509
 1  2.51918937083708 -3.42687424232423 -1.68757140724072
 1  3.90753809180918 -2.27570227082708 -1.60778899639964
 1  4.21195370277028 -4.03859571587159 -1.84501595889589
 1  4.92626649564956 -1.36871241584158  0.43430382148215
 1  5.33992635103510 -2.48727304450445  1.87579146544654
 1  6.73449266926693 -3.94879917941794  0.42304162586259
 1  6.60235907540754 -3.01837405340534 -0.89403909010901
 1  7.29520032163216 -0.75844239853985  0.14158291159116
 1  7.71787069726973 -1.78011626012601  1.43808128052805
 1  8.97521342094209 -1.96432447314731 -1.02028024672467
 1  9.08849101450145 -4.25530439033903  0.21463899369937
 1  10.73954698409841 -3.59134248894890 -0.24472205410541
 1  10.02267901550155 -3.56456218481848  1.45236619961996
 1  9.47204826572657  0.09277768816882  0.20136931133113
 1  10.05517447604760 -0.73694201350135  1.34898583588359
 1  11.74717664876488 -1.89445676737674 -0.07302661046105
 1  11.22255819601960 -1.06039767526753 -1.48498934263426
 1  11.44270428852885  1.11781485328533 -0.12497970837084
 1  12.16301706040604  0.37106839013901  1.24381355645565
 1  13.16724746704671  0.34453919671967 -1.66287249204920
 1  14.73978420562056 -0.55871888918892  0.96048114561456
 1  13.73233361986199 -1.64122730163016 -0.25821207530753
 1  15.39671952845285 -0.75618894659466 -0.79851225422542
 1  13.22557180278028  2.64910320952095 -0.58981885918592
 1  14.28033564576458  1.91588800330033  0.85348417571757
 1  16.11729045614561  1.42013747524752 -0.79740755575558
 1  15.22754755025503  2.21289954135414 -2.10267379827983
 1  15.16983844594459  4.42884609230923 -0.80408168816882
 1  16.11190082398240  3.49693565296530  0.47165962476248
 1  17.88352816961696  3.33084659315932 -0.90176456435644
 1  16.57176431323132  4.91026830573057 -3.22524680358036
 1  18.06681907180718  4.14759115231523 -3.31624905850585
 1  16.43696838213821  3.02978788998900 -3.44164471767177
 1  17.88015588958896  5.20993164616462  0.09886905260526
 1  18.60195780658066  5.53866009250925 -1.29906204730473
 1  17.14171674147415  6.16057046714671 -1.18312666476648
 1 -4.75656354095410 -7.89240033943394 -0.21594591059106
 1 -6.27458795009501 -6.95662504390439  0.57433727702770
 1 -4.77317953535354 -6.95724560076008  1.49829269766977
 8 -7.79590248554855  6.88025805720572 -0.37978140654065
 1 -8.82214559835984  6.42774018971897 -2.04812327982798

