%nproc=3
%Mem=2GB
# td=(NStates=1) iop(3/107=0140000000,3/108=0140000000) iop(3/107=0140000000,3/108=0140000000) CAM-B3LYP/6-31G(d,p) 

TD

0 1
12 -5.77026275747575  1.27911793949395  0.25307797659766
 6 -5.08630875267527 -2.08493245794579 -0.30786385148515
 6 -3.57060852075208  1.08457099859986  2.89042048024802
 6 -6.25846226852685  4.49620764386439  0.65779814101410
 6 -8.05289620762076  1.12615129752975 -2.35751984588459
 7 -4.45412249674968 -0.25044096719672  1.08230839783978
 6 -4.31705692609261 -1.57759894129413  0.72241596009601
 6 -3.33084448614861 -2.30982218081808  1.50263585218522
 6 -3.09940409580958 -1.30206087578758  2.65624241084108
 6 -3.72860966096610 -0.08331748434843  2.23918457705771
 6 -3.58689079707971 -1.87850454305431  3.97232509190919
 6 -2.02495733903390 -2.55898989218922  0.71186537263726
 6 -1.12224998789879 -3.60527561546155  1.36383025992599
 6  0.23930979837984 -3.80142501460146  0.67229539063906
 8  0.40464431833183 -3.40857054585459 -0.47632764816482
 8  1.14055573777378 -4.54473961876188  1.29853584208421
 7 -4.98568711971197  2.54416465316532  1.54249093569357
 6 -4.12974706190619  2.32933094909491  2.52046727252725
 6 -3.81607214441444  3.58381846434643  3.18885783018302
 6 -4.54851060676068  4.52538100360036  2.62707859205921
 6 -5.43092245464547  3.85046972347235  1.62790794269427
 6 -2.84566319121912  3.82817990169017  4.27142101260126
 6 -4.70184288428843  6.08377841204120  2.93655909270927
 8 -4.05193768106811  6.62648747894789  3.76954092659266
 7 -6.94009565916592  2.64012194469447 -0.63578624632463
 6 -7.01659385718572  3.89034944044404 -0.43810201330133
 6 -7.95800094029403  4.55474653145315 -1.29579238833883
 6 -8.53814684748475  3.55899502960296 -2.01858641104110
 6 -7.79896370787079  2.36946512061206 -1.68641241104110
 6 -8.35852813151315  5.95046641634163 -1.16925806040604
 6 -9.52640911931193  3.76915785408541 -3.08237078567857
 6 -8.97935691639164  3.95194655775578 -4.53427667436744
 7 -6.36954272157216 -0.06719189938994 -1.20725174557456
 6 -7.33395700240024 -0.07090799639964 -2.17281320392039
 6 -7.50401351795180 -1.34489964266427 -2.83926695129513
 6 -6.56698218191819 -2.20402417571757 -2.11020022992299
 6 -5.96524444794479 -1.38838286778678 -1.07069493419342
 6 -8.51565694039404 -1.73674346294629 -3.84325524492449
 6 -6.17586121322132 -3.56544565056506 -2.13073846774677
 8 -6.42795603620362 -4.52099706980698 -2.79226947264726
 6 -4.97702795629563 -3.50499226592659 -0.90518713951395
 6 -5.18972610021002 -4.61100630223022  0.16251340234023
 8 -5.71137532013201 -4.37702363576358  1.18169528982898
 8 -4.88824878807881 -5.84327821192119 -0.41399557095710
 6 -5.34940829002900 -6.93357694879488  0.49619715451545
 6  2.40992767436744 -4.86661292149215  0.55152313361336
 6  3.51382469256926 -3.86004750405040  0.90531181698170
 6  4.06749585328533 -2.94033385428543  0.08195057005701
 6  3.67877277457746 -2.89203239163916 -1.39287695649565
 6  5.13936814281428 -2.14615888408841  0.57099895079508
 6  6.52973857855786 -2.61869682268227  0.03297362326233
 6  7.72168129482948 -1.72823446924692  0.60201403600360
 6  9.12550115861586 -2.04522050405041  0.08700198699870
 6  9.75093217331733 -3.37193709620962  0.43667679267927
 6  10.08274370997100 -0.88454907580758  0.54629259265927
 6  11.44870802810281 -0.98588138323832 -0.13834914551455
 6  12.34005162576258  0.32920211071107  0.15097588578858
 6  13.62418181228123  0.43875356225623 -0.58805856305631
 6  14.48018619161916 -0.86608733873387 -0.53010969616962
 6  14.31639157735774  1.75353012521252 -0.12024966736674
 6  15.45185446634664  2.14006594189419 -1.06122323002300
 6  16.11731135083508  3.50958346834684 -0.75617671067107
 6  17.55973036773677  3.71103001850185 -1.30972202000200
 6  17.41580056215622  3.73829939263926 -2.96673899389939
 6  18.20116353555355  5.04674280028003 -0.93129408640864
 1 -2.95720122602260  1.02292915651565  3.78982659385939
 1 -6.34211509440944  5.59834603680368  0.61546130883088
 1 -8.93151835093509  1.22318658015802 -3.18982436333633
 1 -3.65043210841084 -3.31212432913291  1.95881162326233
 1 -2.06987807380738 -1.06958456665667  2.86526869286929
 1 -3.31112043724372 -2.81453803470347  4.36858680458046
 1 -3.35490209030903 -1.25485760346035  4.89235537143714
 1 -4.69904157995800 -1.96862478047805  3.91215443804380
 1 -2.16708387398740 -3.11896494149415 -0.22447018161816
 1 -1.81610230993099 -1.57493612101210  0.45548638993899
 1 -0.74904929502950 -3.33547351965196  2.35371991309131
 1 -1.57105658425843 -4.45515235153515  1.47607664436444
 1 -1.91438009010901  3.85811049774978  3.74328670977098
 1 -2.93828148214821  4.92180181928193  4.60200586348635
 1 -2.96846677917792  3.19484267836784  5.18715569236924
 1 -5.56227008630863  6.50399838233823  2.37873998979898
 1 -10.11550553305331  2.76616376827683 -3.07341849644964
 1 -10.14116159905991  4.58268580308031 -2.54588758135814
 1 -9.70433619451945  3.80264816481648 -5.37482379297930
 1 -8.43948791479148  4.84427636823682 -4.57807748954895
 1 -8.14503477837784  3.11014532843284 -4.74433854855485
 1 -8.48147472907291 -1.11543480118012 -4.73793376237624
 1 -8.58008763666367 -2.79346640694069 -3.91069041294129
 1 -9.54456770587059 -1.46934356895690 -3.54338862396240
 1 -4.17280905690569 -3.75025084808481 -1.42911784188419
 1  2.81623956775678 -5.90327762086209  0.95198358625863
 1  2.24802812941294 -4.86273479987999 -0.55807124222422
 1  3.98341432383238 -4.09897001930193  1.85835419951995
 1  2.80135758765877 -3.35063661856186 -1.44383703380338
 1  3.57171450945095 -1.96215091569157 -1.75662387988799
 1  4.43636614401440 -3.59182103840384 -1.98548000530053
 1  5.08079194819482 -1.05146069066907  0.38420881198120
 1  5.06274863326333 -2.08184250145014  1.74538842514251
 1  6.82605182518252 -3.69110340984098  0.20155947764776
 1  6.53957279677968 -2.42021423742374 -0.98419810601060
 1  7.52903370497050 -0.65720227452745  0.36198495179518
 1  7.85482439263926 -1.59625787428743  1.83457092949295
 1  9.24879077867787 -2.00875891659166 -1.01220943964396
 1  9.30023218861886 -4.25764462436244 -0.17470994119412
 1  10.80683371277128 -3.61337469216922  0.13417583568357
 1  9.78905565316532 -3.79472520112011  1.40010097309731
 1  9.76499756065606  0.20141855225523  0.30485966036604
 1  10.22604156275628 -0.82241056035604  1.67408834613461
 1  11.95515744684469 -1.86108343004300  0.30995168736874
 1  11.31176711691169 -0.92114374987499 -1.20068091179118
 1  11.87584760286028  1.27875094689469 -0.00105731613161
 1  12.66367712641264  0.20272155545555  1.19856903200320
 1  13.23970471277128  0.70597534033403 -1.62364856965697
 1  14.60033026022602 -1.06567958525853  0.51499659715972
 1  13.93479386588659 -1.79554273317332 -0.85064131823182
 1  15.47162701920192 -0.72152548024803 -1.10472287528753
 1  13.84851409700970  2.58311661086109  0.16560668336834
 1  14.97909552175217  1.53420983548355  0.90253908120812
 1  16.22642136923692  1.28628408990899 -1.07721553655366
 1  15.04437923342334  2.23289154055406 -2.11258478937894
 1  15.58701016311631  4.32154536223622 -1.06529780978098
 1  16.19507914181418  3.63129908930893  0.34725718451845
 1  18.14106392319232  2.91106461496150 -1.04767915581558
 1  16.70836797359736  4.58811609050905 -3.28551283018302
 1  18.50876326622662  3.89429582278228 -3.31975940954095
 1  17.02894758005801  2.95449036023602 -3.47627818101810
 1  18.66041391539154  4.84945559855986  0.26143530923092
 1  19.15646325712571  5.08049427592759 -1.36428856995700
 1  17.77025959575958  5.76291070117012 -1.16839519161916
 1 -5.10929881448145 -7.95526662606261 -0.11013532953295
 1 -6.39294978627863 -6.81620100150015  0.64661450475048
 1 -5.01810402780278 -6.78266814301430  1.38878174657466
 8 -7.90508340364036  6.70063009440944 -0.30748417681768
 1 -9.24461784558456  6.27893530923092 -1.60344881238124

