%nproc=3
%Mem=2GB
# td=(NStates=1) iop(3/107=0140000000,3/108=0140000000) iop(3/107=0140000000,3/108=0140000000) CAM-B3LYP/6-31G(d,p) 

TD

0 1
12 -5.60435616681668  1.23126315401540  0.18967163596360
 6 -5.11442156395640 -2.22706667136714 -0.28212127722772
 6 -3.36908836873687  1.17655019651965  2.72108354655466
 6 -6.16871329362936  4.59626764986499  0.69423178437844
 6 -7.96724764276428  1.09465814821482 -2.31742583648365
 7 -4.48852593709371 -0.33325924902490  1.05195536253625
 6 -4.39817503790379 -1.64754593599360  0.73392711121112
 6 -3.29339074077408 -2.36137733633363  1.39746533513351
 6 -2.90323447884788 -1.30737140684068  2.54480126672667
 6 -3.64474127412741 -0.05207436003600  2.03427408600860
 6 -3.55991809980998 -1.76854354695470  3.90274813421342
 6 -1.97820266356636 -2.67231122432243  0.51588577467747
 6 -0.96635439833983 -3.53456854475448  1.32374625152515
 6  0.28828469586959 -3.88475334743474  0.49920808190819
 8  0.53104695859586 -3.52270195899590 -0.66742675807581
 8  1.06973865606561 -4.58542368716872  1.22586857535754
 7 -4.92521107210721  2.70218045474547  1.53499018561856
 6 -3.95616970417042  2.48034605060506  2.41406663246325
 6 -3.73111364856486  3.66646672917292  3.21075001940194
 6 -4.51140689638964  4.65878434393439  2.59211509570957
 6 -5.33664302670267  3.95439011551155  1.57073222512251
 6 -2.76926555145515  3.77859494319432  4.29626349684969
 6 -4.80653335333533  6.12099213341334  2.97591302810281
 8 -4.12777526482648  6.71951678187819  3.85124909740974
 7 -6.82385403500350  2.61778971147115 -0.66115878357836
 6 -6.91605380318032  4.00085049054905 -0.43562176527653
 6 -7.82894803500350  4.61447250405041 -1.22211502060206
 6 -8.37737076987699  3.66212534263426 -2.11528608100810
 6 -7.73128694019402  2.37677585168517 -1.77653142294229
 6 -8.23331561026103  6.03010438013801 -1.20094122872287
 6 -9.40147662606261  3.88266920522052 -3.23008555715572
 6 -8.62489146984698  3.92064342744274 -4.59734298099810
 7 -6.34060982828283 -0.15429060926093 -1.09391041144114
 6 -7.28549215591559 -0.06932783838384 -2.10826674927493
 6 -7.55876899349935 -1.37516266896690 -2.64865789038904
 6 -6.79617510121012 -2.25715948924892 -1.95695490539054
 6 -6.00449837333733 -1.44585861536154 -1.07043490819082
 6 -8.61722709740974 -1.60625041364136 -3.71326224562456
 6 -6.33895752285229 -3.60118922492249 -1.93416881078108
 8 -6.77552079267927 -4.59125409550955 -2.43510375607561
 6 -5.00706095959596 -3.61998376507651 -0.92810943174317
 6 -5.21243837143714 -4.69368457005701  0.11135828682868
 8 -5.58461264386439 -4.44155008840884  1.24040116041604
 8 -5.07317728092809 -5.94521840594059 -0.47512168356836
 6 -5.45431878107811 -7.08748233933393  0.45894342914291
 6  2.33118980058006 -4.91987824802480  0.65885386668667
 6  3.42078538863886 -4.08252975227523  1.07289857565757
 6  4.07970707440744 -3.30489030993099  0.23461583658366
 6  3.77820271757176 -3.13297648604860 -1.31610927972797
 6  5.17209141514151 -2.34628889708971  0.75353720462046
 6  6.60034563926393 -2.53150810381038  0.04075440134013
 6  7.72579170587059 -1.61898354415442  0.55872970757076
 6  9.09088769726973 -2.02294827682768 -0.03563027622762
 6  9.49166624672467 -3.42223212571257  0.34937806280628
 6  10.13440887648765 -0.85923654455446  0.35230319371937
 6  11.35839899719972 -0.92769556465647 -0.39138444904490
 6  12.24815243584358  0.27773696419642  0.20671145934593
 6  13.52938233233323  0.44820450735074 -0.54083384058406
 6  14.51280945394540 -0.72589331933193 -0.32398908410841
 6  14.19485942414241  1.69382415461546 -0.19071671407141
 6  15.60714999589959  2.13433536883688 -0.98158526622662
 6  15.97549716941694  3.40730324032403 -0.63006409940994
 6  17.33866826152615  3.86429534503450 -1.36136718451845
 6  17.17470645274528  4.08840440314031 -2.94690701070107
 6  17.92778619781978  5.15962408840884 -0.74378533553355
 1 -2.33218872477248  1.21889875347535  3.35610322152215
 1 -6.36427731063106  5.52983918611861  1.04242400510051
 1 -8.79990518961896  1.04394865636564 -3.15228060896090
 1 -3.72295936113611 -3.27132024872487  1.79579532163216
 1 -1.85983706970697 -1.10152776097610  2.75059722572257
 1 -3.11406073127313 -2.63613019391939  4.15739568546855
 1 -3.38039463956396 -0.93455557325733  4.72654879077908
 1 -4.50744242004200 -1.95100301830183  3.79513273587359
 1 -2.37187435303530 -3.16477952295230 -0.32585031963196
 1 -1.46974767446745 -1.77733636103610  0.34831567286729
 1 -0.41911630173017 -3.10208018031803  2.17542208330833
 1 -1.25115459405941 -4.58438527482748  1.80756979367937
 1 -1.67362601470147  3.82477716441644  4.02868524962496
 1 -3.00292794679468  4.80987062616262  4.66144180708071
 1 -2.95362529502950  3.08897209130913  5.10136711351135
 1 -5.62290614991499  6.59976795929593  2.32533464926493
 1 -10.20854483698370  3.04114126602660 -3.22456361096110
 1 -9.99121660456046  4.69478701320132 -3.14165715831583
 1 -9.44218997989799  3.93370127012701 -5.25858216881688
 1 -8.08350231623162  5.05821776237624 -4.49830951275128
 1 -7.96445672057206  3.07667198109811 -4.76239035373537
 1 -8.58659524112411 -0.85812907060706 -4.58031800080008
 1 -8.39696932483248 -2.65861292159216 -4.28771811571157
 1 -9.57662091119112 -1.57272390699070 -3.23579786488649
 1 -4.06712848884889 -3.58557438043804 -1.38535346544655
 1  2.61401934573457 -5.89516680978098  1.18985737363736
 1  2.19968329492949 -4.93097162356236 -0.37090252535254
 1  3.81524750715071 -3.98750887318732  2.08342670677068
 1  2.74330178207821 -3.28229978487849 -1.54272692279228
 1  4.20020735873587 -2.11986668726873 -1.77165538303830
 1  4.22074458185819 -3.92902475877588 -1.86331778907891
 1  4.79877374637464 -1.42308785338534  0.38212860396040
 1  5.18195055345535 -2.47187150435043  1.84859874617462
 1  7.04502372237224 -3.53959825932593 -0.04022470077008
 1  6.49797863736373 -2.49450166616662 -1.08098778497850
 1  7.77730853245325 -0.54467102140214  0.38889764306431
 1  7.72241115131513 -1.62773102160216  1.65763323572357
 1  9.04559045864587 -2.10568860956096 -1.14422264096410
 1  8.89210137553755 -4.17335619551955 -0.20857332753275
 1  10.60197322672267 -3.50987434213421  0.08734115221522
 1  9.32593934153415 -3.69266499509951  1.31964292729273
 1  9.60146120702070  0.27429583998400  0.04272344674467
 1  10.18990794939494 -0.86446476577658  1.36081701900190
 1  12.03386531763176 -1.76807412911291 -0.23917322512251
 1  11.13080902110211 -0.89241087658766 -1.61841268496850
 1  11.65388540664066  1.29172224402440  0.23103589318932
 1  12.55779653835384 -0.03194191089109  1.23882305740574
 1  13.29024976727673  0.44403914671467 -1.47628383318332
 1  15.00931115831583 -0.71366438373837  0.72269736723672
 1  13.63755414191419 -1.69134231313131 -0.41096735083508
 1  15.39361921842184 -0.80212354005401 -0.94655705870587
 1  13.45115436103610  2.59673797299730 -0.38083796109611
 1  14.50078769096910  1.63058947344734  0.75179400670067
 1  16.28232695979598  1.29302476397640 -0.66939475447545
 1  15.50394519001900  1.99313756515652 -2.12932646354636
 1  15.31659312141214  4.40687389508951 -0.74756603660366
 1  16.24855448934893  3.46622258165817  0.52113457225723
 1  18.04233405020502  3.15031854035403 -1.34695908380838
 1  16.43277041384138  4.94780205910591 -3.14876915581558
 1  18.04835722562256  4.46399279247925 -3.13439087268727
 1  17.03040772607261  3.20544545574557 -3.55112566576658
 1  18.19257713171317  4.93179383238324  0.29601876757676
 1  18.98923653445345  5.41511773827383 -1.42475461656166
 1  17.22043461326133  6.12797720782078 -0.64571292339234
 1 -5.25288317291729 -7.99585068446845 -0.21390570657066
 1 -6.52551304260426 -7.10893027442744  0.68819866316632
 1 -4.90544276167617 -7.01351122732273  1.27442031043104
 8 -7.94960785608561  6.81143117451745 -0.25720914931493
 1 -8.97162054585459  6.54949236493649 -1.86429489698970

