%nproc=3
%Mem=2GB
# td=(NStates=1) iop(3/107=0140000000,3/108=0140000000) iop(3/107=0140000000,3/108=0140000000) CAM-B3LYP/6-31G(d,p) 

TD

0 1
12 -5.54352008320832  1.27376740444044  0.25971864066407
 6 -5.13810393219322 -2.17007097179718 -0.34012707780778
 6 -3.43949540944094  1.14371691319132  2.76613805200520
 6 -6.25132155445545  4.53315133823382  0.64225658685869
 6 -7.87957887588759  1.18554723712371 -2.42922701660166
 7 -4.37625470997100 -0.31935785888589  1.01722188918892
 6 -4.29179439983998 -1.66452763416342  0.64696841534153
 6 -3.25090649234923 -2.34557575617562  1.45478106670667
 6 -2.91652580798080 -1.36596726642664  2.59288607520752
 6 -3.57996479647965 -0.10682983558356  2.12529318791879
 6 -3.61378348634863 -1.88510520312031  3.92365022442244
 6 -2.01955679897990 -2.76099009220922  0.63000718681868
 6 -0.99098686158616 -3.51798688658866  1.42389626652665
 6  0.25073094049405 -3.87040191229123  0.62614077517752
 8  0.55903975787579 -3.42617230603060 -0.41337135253525
 8  1.04176585878588 -4.71814695949595  1.27720370887089
 7 -4.91584013501350  2.64418465516552  1.44265095169517
 6 -4.01631571877188  2.39334735073507  2.44629985578558
 6 -3.78128866606661  3.59588967146715  3.25851479587959
 6 -4.49770552625263  4.61870033553355  2.62665855005501
 6 -5.34424378677868  3.98340301680168  1.49161431333133
 6 -2.89228785368537  3.79560664436444  4.42312618311831
 6 -4.61468416841684  5.98027806200620  2.98316375317532
 8 -4.03378586588659  6.59524435463546  3.88502247474747
 7 -6.83805545514551  2.63616154865487 -0.65707837553755
 6 -6.97947014481448  4.00625103060306 -0.29352755585559
 6 -7.79599473967397  4.62480353715372 -1.27975078417842
 6 -8.39618265106511  3.64014314441444 -2.12323687608761
 6 -7.63947775927593  2.45008318241824 -1.80089385918592
 6 -8.21322360106011  5.99185055475548 -1.24273540814081
 6 -9.38887536593659  3.90695163346335 -3.15864841344134
 6 -8.70947992869287  3.72444380748075 -4.67186043274327
 7 -6.34379014631463 -0.06201138133813 -1.20243126352635
 6 -7.29765337203720 -0.03602450805081 -2.11450737333733
 6 -7.54289740634063 -1.28736388908891 -2.73289631423142
 6 -6.65200068376838 -2.12962673597360 -2.04503371327133
 6 -5.96609453295330 -1.24373840334033 -1.13768163286329
 6 -8.52608798349835 -1.76339612821282 -3.78966988638864
 6 -6.25229885698570 -3.54810391639164 -1.98397379127913
 8 -6.66110935153515 -4.50524549464946 -2.58432867856786
 6 -5.13358361186119 -3.53289505620562 -0.92522914371437
 6 -5.33039016661666 -4.59419462106211  0.25393254425443
 8 -5.72862704530453 -4.39095502890289  1.36696381668167
 8 -5.02860282348235 -5.81560544464446 -0.27964213561356
 6 -5.36076942614261 -7.01056464756476  0.63486102090209
 6  2.46318299989999 -5.01515777597760  0.71844982628263
 6  3.36357966806681 -4.02704420372037  1.07894918071807
 6  4.03741284498450 -3.21024084498450  0.21921429642964
 6  3.68684358165817 -3.07851103950395 -1.21120878967897
 6  5.14802900890089 -2.25439970817082  0.54360621152115
 6  6.55505110981098 -2.68559351235124  0.02164249014901
 6  7.70059918661866 -1.82627427322732  0.51172500710071
 6  8.97645625412541 -2.07180316231623 -0.16747346054605
 6  9.56389346944694 -3.49244914741474  0.03535666066607
 6  9.98560399599960 -0.97262788368837  0.32843080648065
 6  11.37084024132413 -1.02494528962896 -0.26282159275928
 6  12.17776539713971  0.14947413791379  0.12094288248825
 6  13.57273666776678  0.42501218811881 -0.62462221942194
 6  14.51884005700570 -0.74771550155016 -0.61784847004701
 6  14.23970390859086  1.78395316751675 -0.12886052845285
 6  15.48454773567357  2.11120305560556 -1.00177728542854
 6  16.04299391909191  3.58517102710271 -0.64555564856486
 6  17.28545293999400  3.94473338883888 -1.31859290709071
 6  17.21045002710271  4.19910547324732 -2.85429774977498
 6  17.72567598679868  5.33862198819882 -0.59437039403940
 1 -2.84563006890689  1.03245010861086  3.56819443064306
 1 -6.42615349824982  5.48018422062206  0.97916767946795
 1 -8.60410560966097  1.13488775027503 -3.37699308020802
 1 -3.73453051825182 -3.30797391409141  1.76590233233323
 1 -1.85636672267227 -1.44282189038904  3.03371553755376
 1 -3.38169749494950 -2.68182476337634  4.24320426632663
 1 -3.69478607870787 -1.06856897459746  4.60489662556256
 1 -4.77660933673367 -1.87725564356436  3.66017924052405
 1 -2.28339550515052 -3.33931697669767 -0.40622835743574
 1 -1.78018871857186 -1.91286991439144  0.18935977727773
 1 -0.64737912801280 -2.74952492479248  2.36449099019902
 1 -1.36397587618762 -4.50879771607161  1.95257429412941
 1 -1.77108576067607  3.82140682738274  4.21582396349635
 1 -3.02539019301930  4.86904654375437  4.95743140604060
 1 -3.21288122062206  3.12516571067107  5.26589356615662
 1 -5.14738859815982  6.44830281278128  2.19404151995199
 1 -10.25167915041504  3.14880203210321 -3.22668382298230
 1 -9.93215069796980  4.73847138163816 -2.95660865346535
 1 -9.65345110601060  3.78037593759376 -5.31735804640464
 1 -7.62217618361836  4.46209815041504 -4.67237691949195
 1 -8.23304357925793  2.61668598249825 -4.81905602030203
 1 -8.61471805340534 -1.25046830453045 -4.72013198219822
 1 -8.47936756465647 -2.82127918821882 -4.06164550845085
 1 -9.45905915501550 -1.58322495709571 -3.50688497359736
 1 -4.27647942394239 -3.93264908790879 -1.60667559765977
 1  2.41272921672167 -6.04498179127913  1.05389377727773
 1  2.37796112271227 -5.28434696109611 -0.34722015711571
 1  3.82415839823982 -4.18666878917892  2.01138950305030
 1  2.60528798069807 -3.26126768166817 -1.42815546564656
 1  3.76459379737974 -2.20675537613761 -1.63698191569157
 1  4.38804131153115 -3.81575343164316 -1.75920737803780
 1  4.85716958595860 -1.16894243884388  0.12615300640064
 1  5.30437279567957 -2.22035635283528  1.81077496379638
 1  6.74108332833283 -3.73176747624762  0.29987930963096
 1  6.66022486198620 -2.77838005400540 -1.16001568776878
 1  7.39873067466747 -0.71023757805781  0.79663841714171
 1  7.93963287348735 -2.27193544204420  1.69232670507051
 1  8.85355125472547 -1.93373141384138 -1.14035225392539
 1  8.86425859125913 -4.31522038193819 -0.61185365556556
 1  10.35066809620962 -3.78035138983898 -0.49265684758476
 1  9.62095884348435 -3.72951868046805  0.98448941194119
 1  9.46378743964396  0.00393880428043  0.33832300670067
 1  10.04980393899390 -1.22184050335034  1.47250818811881
 1  12.09914184528453 -1.88640596229623 -0.34700400820082
 1  11.13868980918092 -0.91520315581558 -1.44523536723672
 1  11.71319133723372  1.17020009180918  0.15560835043504
 1  12.20656141484148  0.18783006630663  1.19011818691869
 1  13.24452519481948  0.56416115891589 -1.62730893569357
 1  14.63537376457646 -1.20735375267527  0.52036713421342
 1  14.16245663216322 -1.65762894179418 -1.42659891399140
 1  15.57669752625262 -0.26933026072607 -1.25430783378338
 1  13.59037828342834  2.58723702290229 -0.09476935423542
 1  14.68892650485049  1.59731614611461  0.98080690799080
 1  16.24509323642364  1.44545000650065 -0.55746356135614
 1  15.44146894239424  2.21459971137114 -2.02606613751375
 1  15.04885634773477  4.20550375807581 -0.72107338733873
 1  15.99168880278028  3.53195915531553  0.46040849964997
 1  18.10882069886989  3.16057956645665 -1.19729411731173
 1  16.43836097289729  4.92642992189219 -3.03145742464246
 1  18.20302269216922  4.59609600280028 -3.07340477407741
 1  16.83317800310031  3.29512442364236 -3.57960851405140
 1  17.65495336933693  5.20124077707771  0.46567573327333
 1  18.66256386718672  5.76582280878088 -1.09720186128613
 1  17.01974454425443  6.12485689578958 -0.94137248934893
 1 -4.57664554915492 -7.67273837323732  0.07289297329733
 1 -6.56703719501950 -7.11203058445845  0.80823066636664
 1 -4.92916513391339 -6.66721659785979  1.69089195759576
 8 -7.79111200650065  6.91676170757076 -0.48257168556856
 1 -9.01018440224022  6.22406982268227 -2.09173764126413

