%nproc=3
%Mem=2GB
# td=(NStates=1) iop(3/107=0140000000,3/108=0140000000) iop(3/107=0140000000,3/108=0140000000) CAM-B3LYP/6-31G(d,p) 

TD

0 1
12 -5.56643237443744  1.23056308400840  0.22185485428543
 6 -5.03438356015601 -2.11948591329133 -0.31129419451945
 6 -3.42088354825483  1.19702224372437  2.79125056325633
 6 -6.22166858915892  4.48554657775778  0.73418577977798
 6 -8.00320123812381  1.17358604100410 -2.38217231113111
 7 -4.37273435793579 -0.31052697579758  1.06638680568057
 6 -4.28741396179618 -1.61717289868987  0.66595031353135
 6 -3.12128353005301 -2.35285648424842  1.44372996159616
 6 -2.92123627902790 -1.27697836753675  2.61029781638164
 6 -3.58756555655566 -0.06551570417042  2.25919657825783
 6 -3.44651675967597 -1.94184087668767  3.89550741014101
 6 -1.82263710701070 -2.69861385458546  0.59787397349735
 6 -0.95796355925593 -3.50863595149515  1.46356023292329
 6  0.23056892429243 -3.94835970807081  0.76161432253225
 8  0.49376323022302 -3.45435512431243 -0.35454546994699
 8  1.07527921012101 -4.81499664446445  1.27569355785579
 7 -4.91066961796180  2.62274251095109  1.41592827942794
 6 -3.92165625282528  2.40705872187219  2.44255948174817
 6 -3.68110864806481  3.64959504200420  3.16196514091409
 6 -4.55488124382438  4.58685715121512  2.56753263746375
 6 -5.30175953835384  3.91456613311331  1.52884803670367
 6 -2.61592021692169  3.81512859655966  4.33444731523152
 6 -4.66306900690069  6.04150418461846  2.83746918371837
 8 -4.14258674597460  6.55524035423542  3.82674664716472
 7 -6.82971462106211  2.61553948644864 -0.72401506920692
 6 -6.90588278607861  3.90554095959596 -0.35849405250525
 6 -7.85640078027803  4.63467452425242 -1.18531134023402
 6 -8.36194922772277  3.71691082118212 -2.06727127952795
 6 -7.74889870137014  2.46431460556056 -1.74733850365037
 6 -8.29095137383738  5.99486085578558 -1.17422855745575
 6 -9.52076855525553  3.80423136143614 -3.10383293189319
 6 -8.91180016071607  3.79995135823582 -4.53194644134413
 7 -6.31605737303730 -0.05156033623362 -1.12406342674267
 6 -7.38248185488549 -0.04286519211921 -2.07623354595460
 6 -7.52587570417042 -1.34786993969397 -2.69622264686469
 6 -6.54563004670467 -2.20429420272027 -2.13057226712671
 6 -5.95881380488049 -1.35285931543154 -1.06896476117612
 6 -8.46157153185319 -1.71771155975598 -3.78599951935194
 6 -6.13308693579358 -3.49017812381238 -1.95891128502850
 8 -6.47736097669767 -4.49711468156816 -2.69185943164316
 6 -5.01094134763476 -3.56212797949795 -0.88347496829683
 6 -5.24856198379838 -4.54921012261226  0.12469962096210
 8 -5.78193237583758 -4.40815674907491  1.27203432373237
 8 -4.94763472667267 -5.77615149924993 -0.31178534993499
 6 -5.34275762496250 -6.89480307140714  0.52699023382338
 6  2.28526520812081 -5.12173843404340  0.51909989128913
 6  3.30271358145815 -4.21754325362536  1.03303458925893
 6  3.93471257495750 -3.31510133103310  0.17103947894789
 6  3.80361525882588 -3.24918810721072 -1.34363203200320
 6  5.05786999299930 -2.40397466566657  0.64239609050905
 6  6.39875548024802 -2.62464741774177  0.03193351925193
 6  7.50635976267627 -1.70700234603460  0.45531936653665
 6  8.90087869636964 -1.98554453645365 -0.13231994519452
 6  9.44884196429643 -3.33418332083208  0.14599772477248
 6  9.94438987458746 -0.87079770067007  0.48547651105111
 6  11.29220237753775 -0.80731352645265 -0.31044635523552
 6  12.23810143074307  0.24589377987799  0.17787857605761
 6  13.48397779187919  0.45519520642064 -0.67861761896190
 6  14.49052722572257 -0.62921365136514 -0.40622730793079
 6  14.10961089928993  1.82140691289129 -0.26122376477648
 6  15.37001628252825  2.18710064536454 -1.09846695439544
 6  15.94476409610961  3.50208271827183 -0.64895598859886
 6  17.36743113781378  3.85245416091609 -1.26364741254125
 6  17.22744172627263  4.02731829452945 -2.79385170517052
 6  17.89615303450345  5.14092221822182 -0.63792474947495
 1 -2.83064857075708  1.17735459905991  3.75821343254326
 1 -6.46218710161016  5.53653985618562  0.90859062176218
 1 -9.06723192229223  1.20496475797580 -2.94523990489049
 1 -3.66096316151615 -3.33310642734273  1.81480722282228
 1 -1.83938502450245 -1.11018862706271  2.54145631163116
 1 -3.14180350555055 -2.90881746264626  4.23230317621762
 1 -3.44107070717072 -1.10305242294229  4.94831096699670
 1 -4.57369904570457 -2.07327524552455  3.62730595319532
 1 -2.12486965256526 -3.09181222622262 -0.28982671727173
 1 -1.23142384208421 -1.82371099849985  0.40169101040104
 1 -0.54569895999600 -3.07262723502350  2.49334387548755
 1 -1.36584606320632 -4.47651448774877  1.71749078577858
 1 -1.48197684978498  3.75118980568057  3.81214359545955
 1 -2.88793644764476  4.90777041614161  4.65833149604961
 1 -2.90137006950695  3.43595678977898  5.33954093089309
 1 -5.33910777007701  6.64369235173517  2.04033614941494
 1 -10.29597357985799  2.90148730063006 -3.11181233583358
 1 -10.16370385328533  4.68272580708071 -3.05222821542154
 1 -9.39225498639864  3.85312321232123 -5.57862417301730
 1 -8.14407837383738  4.54592653325333 -4.58344802660266
 1 -8.29049932483248  2.93010732463246 -4.75243935863586
 1 -8.37496407800780 -1.17449070677068 -4.65879584858486
 1 -8.50759038693869 -2.74239129942994 -3.86278562246225
 1 -9.57157040614061 -1.36567320192019 -3.46317060216022
 1 -3.97586936293629 -3.85391121412141 -1.43208813891389
 1  2.44228217201720 -6.14036132923292  0.77477586548655
 1  1.98719204580458 -4.98528705510551 -0.39073450855086
 1  3.50285626802680 -4.29951007330733  2.26594495859586
 1  2.79005645754575 -3.50832238713871 -1.76879953005301
 1  3.84637197519752 -2.28947364796480 -1.82412062956296
 1  4.32077458485849 -4.00793264956496 -1.66464792209221
 1  4.89267313631363 -1.22502804740474  0.44701509260926
 1  5.13084544294429 -2.31154547174717  1.80718460476048
 1  6.77226644664466 -3.50334463396340  0.18780810251025
 1  6.22197103660366 -2.50541275727573 -1.00656034223422
 1  7.30648144974497 -0.60886744104410  0.35288404170417
 1  7.73446235643564 -1.86692494099410  1.66999447184718
 1  8.90475637523753 -1.77956599729973 -1.20075829452945
 1  8.90328249364936 -4.17437629752975 -0.38663113331333
 1  10.48572160156015 -3.38342169686969 -0.27526510841084
 1  9.49651639923992 -3.53357908650865  1.32350331333133
 1  9.41755281618162  0.02948135853585  0.64841401580158
 1  10.15851481008101 -1.11229954925493  1.48268920622062
 1  11.90292222332233 -1.79632695439544 -0.44386369416942
 1  11.01950789098910 -0.51197283278328 -1.29580042374237
 1  11.70441045914591  1.27093016481648  0.07788057765777
 1  12.46220697939794  0.24136541984198  1.38411758685869
 1  13.47926866916692  0.30295503830383 -1.86471267606761
 1  14.66907713491349 -0.86896991429143  0.62318741624162
 1  13.90952133863386 -1.66183936283628 -0.59221547564756
 1  15.25647550405040 -0.89605293299330 -1.07973037603760
 1  13.41759100470047  2.63905220442044 -0.56702657995800
 1  14.29963757595760  1.85643205770577  0.85331415871587
 1  16.19894862196220  1.37520298179818 -0.76977479247925
 1  15.25065986148615  2.04355260666067 -2.15157868876888
 1  15.32368383048305  4.41306451415142 -0.82827410741074
 1  15.91174080798080  3.54631059045905  0.56439889868987
 1  18.02791260806081  2.90867437593759 -1.15965035293529
 1  16.64720185698570  4.87540481938194 -3.11857613651365
 1  18.27595998589859  4.29521591479148 -3.47944537813781
 1  16.79150383568357  3.08033294449445 -3.28941949514951
 1  18.14304217821782  5.16700735373537  0.45575474117412
 1  18.87900551135114  5.67625385188519 -1.20999314041404
 1  17.08452102190219  6.02460687078708 -0.79191754385439
 1 -5.31315920052005 -7.66416751615161 -0.07642195819582
 1 -6.39408990029003 -6.72901228262826  0.89928977227723
 1 -4.57552977037704 -7.01150102630263  1.49911277967797
 8 -7.71589448474847  6.98093812521252 -0.54805823422342
 1 -9.05400878467847  6.34982239793979 -1.89830829832983

