%nproc=3
%Mem=2GB
# td=(NStates=1) iop(3/107=0140000000,3/108=0140000000) iop(3/107=0140000000,3/108=0140000000) CAM-B3LYP/6-31G(d,p) 

TD

0 1
12 -5.55821155235524  1.18690871857186  0.17202987178718
 6 -5.09184930673067 -2.15085905060506 -0.35104816991699
 6 -3.30554201410141  1.16464900640064  2.77565900410041
 6 -6.10164658695870  4.64915293839384  0.59347170837084
 6 -8.02287320532053  1.16016469886989 -2.37923201710171
 7 -4.26180326482648 -0.23174909800980  0.97846801380138
 6 -4.29757497789779 -1.62219340074007  0.62883660216022
 6 -3.20690209190919 -2.31747294589459  1.52871846044604
 6 -2.89091324672467 -1.38007867756776  2.61492827942794
 6 -3.55264206420642 -0.06960611321132  2.14776543514351
 6 -3.60743285128513 -1.84580127272727  3.96927478687869
 6 -1.99075391869187 -2.71676566976698  0.74800898699870
 6 -0.96686444934493 -3.55301038893889  1.48101197809781
 6  0.13992986038604 -3.92108698079808  0.52819098019802
 8  0.47649150305030 -3.51332102090209 -0.55472548794879
 8  0.97775945814581 -4.68382352715272  1.25739172767277
 7 -4.90067861886189  2.62160239693969  1.44573125972597
 6 -3.98314240144014  2.34308232423242  2.46660188598860
 6 -3.68397893509351  3.65752583508351  3.14594353875388
 6 -4.40459621532153  4.57157562306231  2.50963684788479
 6 -5.11653101550155  3.91727640414041  1.37609276117612
 6 -2.62604122902290  3.84850193389339  4.29633350385039
 6 -4.54252695269527  5.97984801900190  2.83195863266327
 8 -3.88457094439444  6.55416024622462  3.79184315681568
 7 -6.86059770937094  2.57072500500050 -0.69830249794980
 6 -6.88113031083108  3.96661706720672 -0.37833603670367
 6 -7.81062620282028  4.64211526832683 -1.23446625572557
 6 -8.40579361216122  3.59560869096910 -2.01485603800380
 6 -7.70841465296530  2.39198737283728 -1.70417418721872
 6 -8.26732901160116  6.02491386108611 -1.17503863846385
 6 -9.33447992639264  3.82840377867787 -3.13892644124412
 6 -8.76059504020402  4.12184354745475 -4.50920416711671
 7 -6.41027679497950 -0.22081726192619 -1.12275329572957
 6 -7.38660226692669 -0.09959086468647 -2.03428935153515
 6 -7.60106322292229 -1.38450360306031 -2.68518154275428
 6 -6.71073655735574 -2.21293506680668 -2.05426463636364
 6 -6.06153407690769 -1.45150918041804 -1.15188305300530
 6 -8.71514688938894 -1.58048783738374 -3.79052997239724
 6 -6.17860148724872 -3.60614972097210 -2.02242763666367
 8 -6.64007724832483 -4.60998596869687 -2.62110235593559
 6 -5.22383263676368 -3.57110887758776 -0.85780240104010
 6 -5.44092121972197 -4.70504570617062  0.11581873287329
 8 -5.72446662926293 -4.47510344374437  1.33906102640264
 8 -5.11654161736174 -5.93051693579358 -0.35184935633563
 6 -5.41754510371037 -6.96082967406741  0.59259679447945
 6  2.29738642024202 -5.07472373257326  0.65139312061206
 6  3.33429673977398 -4.00870236953695  0.95858714451445
 6  4.05191429512951 -3.21827164806481  0.08976135113511
 6  3.76796169346935 -3.05792898129813 -1.34618228702870
 6  5.14158836483648 -2.34485875407541  0.69649150005000
 6  6.55838144284428 -2.62015696869687  0.06446677257726
 6  7.64878400510051 -1.68222986878688  0.70686452105211
 6  8.93946255475548 -1.97126310831083 -0.03645035823582
 6  9.58095517561756 -3.36288619111911  0.16596972197220
 6  9.99581501710171 -0.87697831873187  0.48323628702870
 6  11.35439859715972 -0.75237803290329 -0.30697600820082
 6  12.19708732933293  0.44941413191319  0.10130091829183
 6  13.51439083318332  0.51646133303330 -0.61116087328733
 6  14.41274944794480 -0.82753348334833 -0.53164985018502
 6  14.25483542174217  1.76522129432943 -0.12250989338934
 6  15.55148442934293  2.10566250155016 -0.96089319701970
 6  16.06549616931693  3.42221473147315 -0.53689478247825
 6  17.27416181088109  3.98126704220422 -1.34227527532753
 6  17.07581656375638  4.10776633933393 -2.85811813181318
 6  17.78344176337634  5.28331645764576 -0.72554351135113
 1 -2.66688219411941  1.17145400900090  3.72584019521952
 1 -6.20586146904690  5.81989819201920  0.73683344604460
 1 -8.61208640774077  1.14373863536354 -3.25203058395840
 1 -3.70909797499750 -3.31089420612061  1.90206594869487
 1 -1.80555164116412 -1.23271087928793  2.81827399339934
 1 -3.18094741994199 -2.79031561246125  4.21801174707471
 1 -3.60078667876788 -1.08507062476248  4.87096323222322
 1 -4.60293196899690 -2.25808372637264  3.75170839343934
 1 -2.27210437603760 -3.49814285928593 -0.04378211281128
 1 -1.54927562726273 -1.79028765616562  0.22406324762476
 1 -0.82560695079508 -3.12800277257726  2.57015155625563
 1 -1.50185966456646 -4.45993282958296  1.75183422012201
 1 -1.69785843794379  3.46964165086509  3.94557693879388
 1 -2.67757541154115  4.94073371247125  4.57156281918192
 1 -2.71783171567157  3.18177137123712  5.07317429422942
 1 -5.41634549384938  6.72495047754775  2.41179329512951
 1 -9.87009099159916  2.82945009690969 -3.27495865046505
 1 -10.04633211611161  4.49384691919192 -2.86124911751175
 1 -9.35609137003700  4.13100100010001 -5.50033634423442
 1 -8.12490645664566  5.10094203480348 -4.52898258005801
 1 -7.92549282418242  3.38366268016802 -4.90074418911891
 1 -8.46942352395240 -0.75615887358736 -4.50176014501450
 1 -8.58275790369037 -2.63925098539854 -4.10630997489749
 1 -9.69652290139014 -1.41001763636364 -3.30696498159816
 1 -4.36114789078908 -3.97329315231523 -1.27599252935293
 1  2.38191613541354 -6.08972626572657  0.95162355025503
 1  2.18948227482748 -4.99534806120612 -0.43714915001500
 1  3.48123410581058 -3.96783690599060  2.08373673777378
 1  2.82617006890689 -3.33242479737974 -1.67105975607561
 1  4.27144448244824 -1.98451315191519 -1.60032825032503
 1  4.40116262366237 -3.72608446474648 -1.95249670697070
 1  4.67675154415442 -1.22968851345135  0.42063245434543
 1  5.05996835523552 -2.61263558075808  1.81487537383738
 1  6.58274749474947 -3.68900319981998  0.14451377307731
 1  6.50714955445545 -2.62897511351135 -1.12933261946195
 1  7.47936873847385 -0.75680223452345  0.74407316061606
 1  7.74024293449345 -1.90582883138314  1.76397386978698
 1  8.76241214081408 -1.72438047874787 -1.13564178287829
 1  8.84169633503350 -4.11864072397240  0.04060158995900
 1  10.36694972437244 -3.53244659935994 -0.45721330323032
 1  9.93009975757576 -3.34092982158216  1.38015897889789
 1  9.59987104800480  0.13052146254625  0.31327050145014
 1  10.56410536913691 -1.18231655095510  1.54010494779478
 1  11.94794672577258 -1.70960828252825 -0.20253956175618
 1  11.23891983218322 -0.70043167866787 -1.34954579827983
 1  11.59672969106911  1.29055212701270  0.08879166876688
 1  12.30982174087409  0.34179546284628  1.23121229632963
 1  13.13035377767777  0.58522326512651 -1.76952315711571
 1  14.50378060526053 -1.06016903420342  0.50626572407241
 1  14.05491587808781 -1.66888006690669 -1.16013226732673
 1  15.35840569706971 -0.41962529022902 -0.94224662766277
 1  13.68984823042304  2.54433273247325 -0.21547142444244
 1  14.48875648784879  1.77535394989499  1.00224905220522
 1  16.20014874197420  1.44775023652365 -0.68322613761376
 1  15.34168896439644  2.23024127552755 -2.16680021092109
 1  15.23500496259626  4.11217442514251 -0.71128240824082
 1  16.41044067796780  3.41109706910691  0.52971543034303
 1  18.13776359315932  3.16976048454845 -1.02380676857686
 1  16.15769290609061  4.72482976187619 -3.03602788168817
 1  18.02384477437744  4.58785517871787 -3.38016545014501
 1  16.93608829412941  3.10780569176918 -3.41858241144114
 1  17.81270914491449  4.97315796879688  0.45354452015202
 1  18.88635624642464  5.77952417891789 -1.15659780088009
 1  17.03413598339834  6.07340175027503 -0.82025037713771
 1 -5.43580146474647 -7.82114321372137 -0.06553086908691
 1 -6.39673016431643 -6.84551393279328  1.15482532583258
 1 -4.57945016241624 -7.07037691389139  1.29521238963896
 8 -7.73247614291429  6.87430746214621 -0.40883431183118
 1 -9.02957634143414  6.36112352805281 -1.87709617711771

