%nproc=3
%Mem=2GB
# td=(NStates=1) iop(3/107=0140000000,3/108=0140000000) iop(3/107=0140000000,3/108=0140000000) CAM-B3LYP/6-31G(d,p) 

TD

0 1
12 -5.64130986218622  1.21385141284128  0.17527019581958
 6 -5.12466258805881 -2.13140710541054 -0.30840390549055
 6 -3.48920037993799  1.08803134463446  2.77971941014101
 6 -6.31170759305931  4.52987101020102  0.72541490269027
 6 -7.84127504550455  1.19660834323432 -2.47701179507951
 7 -4.44676176067607 -0.36170209330933  1.07882804980498
 6 -4.31317653805381 -1.56930811221122  0.68762248074807
 6 -3.23762516421642 -2.35338653725373  1.47808339693969
 6 -2.90297445284528 -1.32662333203320  2.59982676927693
 6 -3.57040384038404 -0.14848400100010  2.09232989158916
 6 -3.41428353635364 -1.67411410401040  4.07281514091409
 6 -1.95969081238124 -2.63907790099010  0.70134432053205
 6 -1.01409917281728 -3.53969905780578  1.39773365026503
 6  0.22707857525753 -3.92814768686869  0.62434059515952
 8  0.47830168406841 -3.53250293909391 -0.47185720112011
 8  1.06530821302130 -4.62730787558756  1.30238622712271
 7 -4.97850640164016  2.58433867056706  1.39296598319832
 6 -4.07889197639764  2.38619663566357  2.50799602540254
 6 -3.77010754795480  3.54774485698570  3.23360230463046
 6 -4.62710846654666  4.51525999149915  2.66714259845985
 6 -5.36465582798280  3.90189486598660  1.61479663156316
 6 -2.65696432133213  3.70506759045905  4.28033190369037
 6 -4.65107780778078  5.98231826602660  3.01554699149915
 8 -3.88667115441544  6.54315914611461  3.85626959945995
 7 -6.87841949154915  2.61662959545955 -0.71342401010101
 6 -6.94314651245125  3.89894029952995 -0.39329753285329
 6 -7.98419355955596  4.64054511131113 -1.23972678177818
 6 -8.41145417821782  3.68958808890889 -2.07090164256426
 6 -7.77106091759176  2.44030220432043 -1.79820359015902
 6 -8.34996727542754  6.06270764046405 -1.10695182978298
 6 -9.52668914731473  3.83786472477248 -3.11212376097610
 6 -8.92281126182618  4.01990335343534 -4.58552179887989
 7 -6.38493426072607 -0.20269544974497 -1.12144316471647
 6 -7.29906351305130 -0.12162306790679 -2.22806872947295
 6 -7.50451356795680 -1.28508366106611 -2.85343836843684
 6 -6.56998248194820 -2.19374314761476 -2.16921613151315
 6 -5.96019394289429 -1.43687771727173 -1.14175203990399
 6 -8.48820419511951 -1.59664945354535 -3.96114703410341
 6 -6.15901952905291 -3.55951505750575 -2.10385577947795
 8 -6.61096433703370 -4.45328029812981 -2.76829707540754
 6 -5.06309656315632 -3.56328809550955 -0.81337795859586
 6 -5.43441056865687 -4.62460766236624  0.10344749574958
 8 -5.92868705130513 -4.35426135953595  1.19694681498150
 8 -4.86659662286229 -5.82369625372537 -0.26783095449545
 6 -5.34338768796880 -6.88024161526153  0.62456999179918
 6  2.31881856345635 -5.00075633583358  0.70704868616862
 6  3.49335264536454 -4.05958745804580  1.02767405320532
 6  4.07786689038904 -3.19434925582558  0.21336371137114
 6  3.75995089238924 -3.11916510491049 -1.24096176497650
 6  5.13226743274327 -2.31206547474747  0.79271112201220
 6  6.47124272897290 -2.65133008600860  0.09499982588259
 6  7.56240536723672 -1.83475512131213  0.59020285488549
 6  8.95704431293129 -2.03262924492449 -0.06523323652365
 6  9.71721880198020 -3.41626152865287  0.36594971997200
 6  9.96220165576558 -0.86063668456846  0.35657362076208
 6  11.37440059735973 -0.87986078117812 -0.29602491309131
 6  12.23776139673967  0.30389958045805  0.06118690689069
 6  13.63231262536254  0.52372205910591 -0.62779253645365
 6  14.45566373937394 -0.73318404840484 -0.43458014321432
 6  14.38650858905891  1.80111488368837 -0.12710035243524
 6  15.55045432633263  2.17795973127313 -1.00846795449545
 6  16.08037765746575  3.53787629762976 -0.62440353335334
 6  17.39350374507451  3.83325224072407 -1.27807885568557
 6  17.20932991509151  3.96608217091709 -2.93257557755776
 6  17.95702912211221  5.24450257625763 -0.97817877487749
 1 -2.68804431033103  1.16389325292529  3.61725933713371
 1 -6.54719560246025  5.66227242944294  0.85567533023302
 1 -8.74583978307831  0.86147040854085 -3.30531591249125
 1 -3.66496356155616 -3.32468558525853  2.03696943904390
 1 -1.77173825982598 -0.82800040824082  2.62421458745875
 1 -2.89057838303830 -2.68831541244124  4.26059600550055
 1 -3.09784638473847 -0.91429354705471  4.66772290819082
 1 -4.57406908270827 -2.06572449044904  4.12027525012501
 1 -2.11976914251425 -3.41850489548955 -0.16021375597560
 1 -1.66325702540254 -1.62084071147115  0.27982882418242
 1 -0.55630002010201 -3.03730370267027  2.07894243534353
 1 -1.40875035363536 -4.37564440074007  1.81661069776978
 1 -1.64939359145915  3.58942362906291  4.08459084018402
 1 -2.60525817981798  4.78626826592659  4.50950661356136
 1 -2.89098903140314  3.28342153625363  5.26285326212621
 1 -5.44881874117412  6.51990997349735  2.33462557835784
 1 -10.17196117861786  2.75027217911791 -3.15084623922392
 1 -10.00890837373738  4.74145167966797 -3.06064905750575
 1 -9.69451521242124  4.15219311931193 -5.26322263286329
 1 -8.41355532153215  4.91884382498250 -4.58058774057406
 1 -8.32337261216122  3.24852916681668 -5.11668578327833
 1 -8.11648823042304 -1.09764302200220 -4.92273224222422
 1 -8.57437706560656 -2.75903296359636 -3.99541888578858
 1 -9.43059630873087 -1.37355398999900 -3.68187247234723
 1 -4.03259503550355 -3.89092491549155 -1.35384031413141
 1  2.58006595039504 -6.03041033413341  1.09469785768577
 1  2.03346667326733 -5.13685221162116 -0.26404183928393
 1  3.72651863426343 -3.99618974127413  2.08403676777678
 1  2.61911936383638 -3.08397995289529 -1.54073672377238
 1  4.13382072007201 -2.22547724832483 -1.77580579807981
 1  4.23367587498750 -4.02017387368737 -1.72770422772277
 1  4.92626649564956 -1.27308285288529  0.54498488958896
 1  5.22565492389239 -2.52493681088109  1.85440932723272
 1  6.61582080208021 -3.73687798729873  0.31570089178918
 1  6.31029986948695 -2.57339955595560 -1.02600228642864
 1  7.30096089768977 -0.88082463676368  0.46078483178318
 1  7.69186809700970 -1.75281352985298  1.74443191559156
 1  9.03214911451145 -2.28120616131613 -1.26582480118012
 1  8.78953111851185 -4.28952781268127  0.28296582638264
 1  10.49437246664666 -3.60336369106911 -0.46761434333433
 1  10.18810555815582 -3.68511424002400  1.49807077007701
 1  9.45835689658966  0.04632304270427 -0.02302312791279
 1  9.96249520812081 -0.73670198949895  1.44317525482548
 1  11.70742267336734 -1.76206352805280 -0.09945925372537
 1  11.46508244844484 -1.14340597609761 -1.45145598929893
 1  11.62623264136414  1.32379545134513 -0.08430564096410
 1  12.48877963666367  0.21222250555056  1.10949012411241
 1  13.33429417171717  0.58130287308731 -1.73665987078708
 1  14.62958318551855 -0.78095111241124  0.59730482798280
 1  13.86724711121112 -1.66750992989299 -0.66416267036704
 1  15.55131498799880 -0.79428275597560 -0.69104150715071
 1  13.46648589418942  2.46792509170917  0.14310443314331
 1  14.87902551475148  1.54007042154215  0.83935276257626
 1  16.34077280438044  1.44140960246025 -0.98544635963596
 1  15.19767456295630  2.09113736513651 -2.10158368926893
 1  15.30067152925293  4.26709991769177 -0.72341362136214
 1  16.17195682958296  3.61431739113911  0.55605806460646
 1  18.01323113991399  2.84112762126213 -1.19795418331833
 1  16.59706684348435  4.72538981788179 -3.33421770067007
 1  17.99437182708271  4.33036943014301 -3.41142857645765
 1  16.98406309160916  2.92648755995600 -3.37021757495750
 1  17.97970584458446  5.19055970897090  0.21459062476248
 1  18.78746635743574  5.51628785528553 -1.53576571767177
 1  17.26915948574857  5.98604301440144 -1.11286963906391
 1 -4.75133301790179 -7.79380047944794  0.40776646064607
 1 -6.39025951725173 -6.91004038543854  0.73758360166017
 1 -4.73754597199720 -6.53095297149715  1.51850471887189
 8 -7.87349024432443  6.90142017341734 -0.38060148854886
 1 -9.21748513231323  6.44214162986299 -1.97526599409941

