%nproc=3
%Mem=2GB
# td=(NStates=1) iop(3/107=0140000000,3/108=0140000000) iop(3/107=0140000000,3/108=0140000000) CAM-B3LYP/6-31G(d,p) 

TD

0 1
12 -5.60749648084809  1.21937196489649  0.22955562436244
 6 -5.00694081588159 -2.10525449014902 -0.32229529462946
 6 -3.41632309220922  1.16493903540354  2.75437687588759
 6 -6.23801022332233  4.61316934003400  0.62529489068907
 6 -7.98521943994399  1.20023870627063 -2.43383747764776
 7 -4.42404948944894 -0.35982190529053  1.16168633563356
 6 -4.22829805020502 -1.61011219261926  0.73972769126913
 6 -3.18107950965097 -2.34934613321332  1.52712830143014
 6 -2.90868502390239 -1.45187585728573  2.71464825142514
 6 -3.56121292129213 -0.09999915251525  2.20326098469847
 6 -3.49916202420242 -1.96853354595460  4.09424728412841
 6 -2.04192903620362 -2.68990298349835  0.68459264536454
 6 -1.07154491739174 -3.55287037493749  1.45408928582858
 6  0.22809867726773 -3.90383525562556  0.65563372447245
 8  0.40017387128713 -3.53486317511751 -0.43222323772377
 8  1.08461014321432 -4.77832297709771  1.31802779127913
 7 -4.89681823282328  2.67444768146815  1.45061174777478
 6 -3.96652073927393  2.34373238923892  2.45656088188819
 6 -3.73074361156116  3.63583366586659  3.19062800720072
 6 -4.50357611331133  4.59080754625463  2.54025991019102
 6 -5.31128049044904  3.97698237473747  1.54967011891189
 6 -2.76389501440144  3.76606369006901  4.32449632013201
 6 -4.65488818881888  5.99218925312531  2.81296673347335
 8 -4.07795028232823  6.59854468466847  3.77457142964296
 7 -6.76503815341534  2.63735166766677 -0.81532420012001
 6 -6.93631582938294  3.98077848334833 -0.40189839293929
 6 -7.84959009920992  4.66532758955896 -1.23857666676668
 6 -8.41213424622462  3.69260839093909 -2.05042959535954
 6 -7.73468728022802  2.47746592069207 -1.71811558135814
 6 -8.45472775147515  5.97713908360836 -1.12779391399140
 6 -9.46193267166717  3.69998093639364 -3.16787933653365
 6 -8.83344232493249  4.01672303540354 -4.67098034473447
 7 -6.36899266656666 -0.04561974217422 -1.06234725512551
 6 -7.36802040874087 -0.02921382698270 -2.08341426402640
 6 -7.52976609320932 -1.31722687538754 -2.75120814541454
 6 -6.68602408610861 -2.17183095639564 -2.05848505840584
 6 -5.95648357185719 -1.42127615711571 -1.06205407010701
 6 -8.43066844154415 -1.68011780038004 -3.83629454885489
 6 -6.21421504860486 -3.60344945094509 -2.00133552745275
 8 -6.63465670627063 -4.57232220232023 -2.49595984168417
 6 -4.99754000750075 -3.49639140584058 -0.85767238803880
 6 -5.25770289788979 -4.64157935953595  0.07077422842284
 8 -5.67569175177518 -4.49360529392939  1.23175029532953
 8 -5.00196015921592 -5.84379826392639 -0.43211738313831
 6 -5.27662101130113 -6.99366295739574  0.48151568636864
 6  2.33225990759076 -5.12002826302630  0.61211919321932
 6  3.34339764986499 -4.04283578287829  0.89427071287129
 6  3.97372647634763 -3.27201702260226  0.11627400240024
 6  3.66923182048205 -3.08459164756476 -1.42816048484848
 6  5.09565377137714 -2.39334360256026  0.74949680058006
 6  6.48693429812981 -2.62931788478848  0.04445477137714
 6  7.53187231393139 -1.75881752755276  0.53567740234023
 6  8.93951255975598 -1.90179616161616 -0.17404411761176
 6  9.54431151125112 -3.23633353585359  0.12027515251525
 6  9.97203263886389 -0.76841746264626  0.35084304770477
 6  11.33010616791679 -0.72706550165017 -0.28399370997100
 6  12.17999562016202  0.32835202570257  0.17128791699170
 6  13.54590398449845  0.52389207610761 -0.51402115931593
 6  14.41914008700870 -0.67614834483448 -0.33899058425843
 6  14.20841077927793  1.78804357655766 -0.23040068246825
 6  15.38236751765177  2.22644457975798 -1.16294340204020
 6  16.15483510321032  3.50073258325833 -0.60499159215922
 6  17.49603399809981  3.78938785428543 -1.32235328312831
 6  17.23991297339734  3.99968553125312 -2.79150147014701
 6  18.26326974617461  4.89481760776078 -0.73119407640764
 1 -2.78800430633063  1.26255311891189  3.69386699789979
 1 -6.26423730663066  5.71463766596660  0.85383514621462
 1 -8.84297949704970  1.27130139163916 -3.20032541344134
 1 -3.89100616581658 -3.00965408210821  1.85768151025102
 1 -1.90643172917292 -1.34013162136214  2.72143430943094
 1 -2.83722304750475 -2.86459304020402  4.21690163606361
 1 -3.25484208430843 -1.21581369906991  4.82983911981198
 1 -4.53293496929693 -2.26257417541754  4.12532575517552
 1 -2.35956312191219 -3.20972401740174 -0.21854958955896
 1 -1.79857055675568 -1.76873550095010  0.34533537483748
 1 -0.68992338243824 -3.01186115841584  2.51919646074607
 1 -1.50628010661066 -4.51431826812681  1.71117015371537
 1 -1.54580323242324  3.72772745944594  4.12956533763376
 1 -2.83142079607961  5.02679231833183  4.73074873777378
 1 -3.05763569606961  3.12745593969397  5.25391236803680
 1 -5.34649850915091  6.51168915141514  2.16376849264927
 1 -10.00831481398140  2.72789994189419 -3.16467762236224
 1 -10.10981846474648  4.46443397789779 -2.91341433403340
 1 -9.74715047594760  4.12259015901590 -5.34939124972497
 1 -8.39984395039504  4.96142808340834 -4.72334201600160
 1 -8.15245552045205  3.24609892379238 -4.98499261396140
 1 -8.23650023162316 -1.28813207090709 -4.96007597659766
 1 -8.30941056895690 -2.89038609890989 -4.03816316021602
 1 -9.45455870497050 -1.47787442204220 -3.52108639373937
 1 -4.08752052805281 -3.66188201120112 -1.29906483658366
 1  2.60143808760876 -6.10157745084508  1.08878726662666
 1  2.08983230983098 -5.18104663106311 -0.43888932403240
 1  3.62237822022202 -4.01089121142114  1.92222058615862
 1  2.83571102300230 -3.47594914981498 -1.81607425752575
 1  3.91658899689969 -1.94946964756476 -1.94423264076408
 1  4.09764227162716 -3.77766962326233 -2.26665812311231
 1  4.93233710271027 -1.40812635723572  0.50705109620962
 1  5.36321868026803 -2.59132344954495  1.77747163346335
 1  6.88009722972297 -3.58570286978698  0.40268959065907
 1  6.24698353785378 -2.65718793479348 -1.08555824202420
 1  7.23111391299130 -0.78104465876588  0.44929368266827
 1  7.63478238843884 -1.90138838733873  1.64771224362436
 1  8.80377627722772 -1.69032707340734 -1.14134235293529
 1  8.76110827622762 -3.90589944984499 -0.05298776897690
 1  10.42439546894689 -3.40089344404440 -0.17281486338634
 1  9.61352810041004 -3.34755048364836  1.30197116011601
 1  9.48592965386539  0.11797020742074 -0.00991181678168
 1  10.07708666726672 -0.95550386968697  1.30219115641564
 1  12.02344427552755 -1.62704002570257 -0.11938124592459
 1  11.22827876807681 -0.67690932643264 -1.30448129182918
 1  11.61145116321632  1.45395846764677  0.07039982958296
 1  12.56713747244724  0.35079636293629  1.25266444154415
 1  13.36162690499050  0.70430517331733 -1.56799300410041
 1  14.76585681288129 -0.91635465276528  0.59171426892689
 1  13.94128451495150 -1.86198937783778 -0.53818007210721
 1  15.26428628512851 -0.61596492419242 -0.91356375937594
 1  13.52592183778378  2.61015931513151 -0.09809968726873
 1  14.52964057625763  1.73900031453145  0.91844067136714
 1  16.24081280838084  1.31560702220222 -1.21871968696870
 1  14.98094288978898  2.56651490289029 -2.03205673657366
 1  15.47544900700070  4.37568077577758 -0.75610689068907
 1  16.36046568046805  3.34651061046105  0.49453191199120
 1  18.33650346714672  2.90954446294629 -1.10288467636764
 1  16.60226736353635  4.86815409430943 -3.27842212111211
 1  18.19488187808781  4.38778517171717 -3.42917035063506
 1  16.92372705800580  3.11642655385539 -3.26041659485949
 1  18.67729560356035  4.72129278227823  0.22082124782478
 1  19.19015662646265  4.94332055855586 -1.17246938803880
 1  17.59601217101710  5.99515392549255 -0.75538389048905
 1 -4.87314519911991 -7.88504960436044 -0.05196951295130
 1 -6.27049754105411 -6.99641902330233  0.69037888118812
 1 -4.70432264966497 -6.79758963516351  1.42134500290029
 8 -7.99466236153615  6.92925295669567 -0.43603703210321
 1 -9.30199358315832  6.16607402310231 -1.79238770627063

