%nproc=3
%Mem=2GB
# td=(NStates=1) iop(3/107=0140000000,3/108=0140000000) iop(3/107=0140000000,3/108=0140000000) CAM-B3LYP/6-31G(d,p) 

TD

0 1
12 -5.56990272147215  1.22120214791479  0.22014468326833
 6 -5.05541566336634 -2.13956792149215 -0.33519658475848
 6 -3.45626708660866  1.11226376787679  2.90286172437244
 6 -6.26854327662766  4.53101112421242  0.59669203040304
 6 -7.94480539853985  1.17761644404440 -2.30808490239024
 7 -4.45141222572257 -0.32730865396540  1.11157132413241
 6 -4.30587580798080 -1.67887906930693  0.71999571807181
 6 -3.29424082578258 -2.37958915751575  1.56750233883388
 6 -3.01480563596360 -1.36147681738174  2.75234202080208
 6 -3.62170897089709 -0.10617977057706  2.22908356695670
 6 -3.52980508850885 -1.73947063966397  4.17821568096810
 6 -2.01850669396940 -2.70894488768877  0.75008919501950
 6 -1.03203096599660 -3.57269235713571  1.48819269616962
 6  0.21476734413441 -3.87190206230623  0.65897405850585
 8  0.31705555945595 -3.44353404220422 -0.51913192859286
 8  1.12188387058706 -4.67954309910991  1.33067905640564
 7 -4.90324887588759  2.61151138783878  1.39808649524952
 6 -3.94821890909091  2.39907792379238  2.48881410721072
 6 -3.76651718891889  3.66616669916992  3.20375932033203
 6 -4.48123387908791  4.69733819931993  2.46276216041604
 6 -5.23256261866187  3.96429110561056  1.38477362926293
 6 -2.77868649354935  3.81847893159316  4.22181605210521
 6 -4.49917261726173  6.10139017321732  2.76837227402740
 8 -3.92057454475448  6.65182001220122  3.73477745024502
 7 -6.96383803340334  2.64993292579258 -0.61958462616262
 6 -7.04244644244424  3.83844424992499 -0.36597480058006
 6 -7.96867200740074  4.51573263006301 -1.21357416651665
 6 -8.44013704650465  3.56820595069507 -2.11461601400140
 6 -7.77361117261726  2.37096527062706 -1.67870163996400
 6 -8.43803608230823  5.99568093779378 -1.17308844344434
 6 -9.39296577497750  3.83365430373037 -3.16628917751775
 6 -8.79948892959296  3.98876023912391 -4.45151839853985
 7 -6.43814958225823 -0.15877105730573 -0.98096911731173
 6 -7.37385099179918 -0.06824773037304 -2.01384730733073
 6 -7.48712182878288 -1.30920607330733 -2.70328335293529
 6 -6.63661914561456 -2.14431820512051 -2.09681889178918
 6 -6.02190011351135 -1.45864989448945 -1.01504936963696
 6 -8.45721109580958 -1.52432222082208 -3.79587050645065
 6 -6.15869949704970 -3.52920202620262 -2.08983437733773
 8 -6.47279051965196 -4.57252222232223 -2.76927717341734
 6 -4.99076933043304 -3.59118088478848 -0.95978259905991
 6 -5.32795992359236 -4.63043824542454  0.03309046004600
 8 -5.65961014361436 -4.46599253265327  1.22817993829383
 8 -5.09014897809781 -5.92560644474447 -0.42653682508251
 6 -5.36145949514952 -7.06906049714971  0.51025856065607
 6  2.35108178977898 -4.99802606280628  0.71483946524652
 6  3.46142945304530 -4.05017651695170  1.05329661546155
 6  4.06418552225222 -3.21674149504951  0.17545992099210
 6  3.64744964226423 -3.12944613301330 -1.32122979177918
 6  5.13134734073407 -2.34856912511251  0.64996684758476
 6  6.44092969766977 -2.61652660566057 -0.12279195329533
 6  7.61697082378238 -1.69675132093209  0.45404923952395
 6  9.02188079657966 -1.95630161216122 -0.15472218541854
 6  9.52365944604460 -3.39040894339434  0.05209833483348
 6  9.96803223882388 -0.80301092199220  0.29916788018802
 6  11.30759391669167 -0.75481827692769 -0.39831514211421
 6  12.21951957255725  0.44954414491449  0.03932472067207
 6  13.58656805090509  0.48627831473147 -0.60039979717972
 6  14.43782195519552 -0.77915864586459 -0.40354703990399
 6  14.32148208640864  1.85302007420742 -0.23270091249125
 6  15.66615589648965  2.14264619991999 -0.85027213491349
 6  16.17465708540854  3.52962547254725 -0.53789488248825
 6  17.54160855555556  3.79219813531353 -1.24848589638964
 6  17.25435441754176  3.81839740244024 -2.76534885488549
 6  17.94321774097410  5.15636376237624 -0.70243120012001
 1 -2.83725923182318  1.24517138073807  3.88026563776378
 1 -6.71726260916092  5.47597379957996  0.80889065176518
 1 -8.86638183728373  1.15222948444844 -2.98383376427643
 1 -3.81873893909391 -3.34049716641664  1.79661540364036
 1 -1.88469955595560 -1.46362397059706  2.93811597759776
 1 -3.09681900710071 -2.69714629552955  4.52422236813681
 1 -3.56984358445845 -1.00348246594659  5.02101823772377
 1 -4.68072974877488 -1.92521043904390  3.73717694029403
 1 -2.28915608120812 -3.26107915291529 -0.08479621422142
 1 -1.32154285398540 -1.79784841224122  0.40302114341434
 1 -0.97882227232723 -3.05676564886489  2.35175971707171
 1 -1.49480895949595 -4.56930376667667  1.68754779147915
 1 -1.80642929502950  3.68491317801780  3.59758213931393
 1 -2.74192184618462  4.71183082218222  4.75333099599960
 1 -2.84819475197520  3.01827502160216  5.12121909870987
 1 -5.12750660996100  6.74991297379738  2.17610972677268
 1 -10.12452643514351  3.03538068996900 -3.16647780238024
 1 -9.97419490239024  4.76087362186219 -2.93004599719972
 1 -9.51673743464346  4.31354925492549 -5.22515882648265
 1 -8.09325329132913  4.87221916251625 -4.56221590339034
 1 -8.23647392229223  3.29119343324332 -4.95240935563556
 1 -8.05958253985399 -0.87418067576758 -4.65533550255026
 1 -8.39031865976598 -2.70946800710071 -3.95423476737674
 1 -9.53048629772977 -1.30712734733473 -3.67695198029803
 1 -4.07366914291429 -3.77805362836284 -1.39270420052005
 1  2.48527647144714 -6.13882117521752  1.04054244214421
 1  2.15551887848785 -4.96738526492649 -0.38191362646265
 1  3.92160814321432 -4.03021314361436  1.99612797689769
 1  2.41140859275928 -3.27104865976598 -1.32210486058606
 1  4.24467180518052 -2.15838053865387 -1.67124534203420
 1  4.19473198059806 -4.06915877217722 -1.80899235653565
 1  4.76174004300430 -1.34963050765077  0.32622301340134
 1  5.41414377277728 -2.56272058925893  1.69317320362036
 1  6.53517273727373 -3.59589388888889  0.11223054475448
 1  6.46361520102010 -2.39091130713071 -1.16532621882188
 1  7.55446624822482 -0.52091864616462  0.41272002530253
 1  7.39990890109011 -1.88257650615062  1.55963343574357
 1  8.93079897949795 -1.75853389408941 -1.26986520522052
 1  8.92919508490849 -4.34481334123412 -0.01944441464146
 1  10.39946297569757 -3.50226358105811 -0.62690027192719
 1  9.79196594419442 -3.50628635723572  1.12950391339134
 1  9.51605266616662  0.04658306870687 -0.13446427202720
 1  9.97064602320232 -0.91456977627763  1.53485442274227
 1  11.91755368646865 -1.64931225292529 -0.11725103290329
 1  11.11870781098110 -0.58583021852185 -1.71448229192919
 1  11.80660067816782  1.54502757455746 -0.11894910531053
 1  12.43742450115012  0.15441672497250  1.20278945404540
 1  13.50212095439544  0.64464920772077 -1.76020222502250
 1  14.73009323652365 -0.91210422772277  0.70024512201220
 1  14.13453383988399 -1.70421360026003 -0.73704995909591
 1  15.57737759425943 -0.61349467716772 -0.94572697569757
 1  13.74587383298330  2.83554185338534 -0.30722059935994
 1  14.49890750295030  1.76833324782478  0.94514334163416
 1  16.42913164026402  1.29690515201520 -0.48828664366437
 1  15.45913070857086  2.23704195559556 -1.89618314921492
 1  15.43609507160716  4.30452366006601 -0.83765504550455
 1  16.50286992089209  3.46960291969197  0.49321177997800
 1  18.34352416921692  3.09923343184318 -1.10245463336334
 1  16.52054919171917  4.61583886278628 -2.78285256415642
 1  18.07882027192719  4.16763315651565 -3.43298073167317
 1  16.88546323162316  2.78565347654765 -3.33128368156816
 1  17.91937981198120  4.92728338133813  0.39264843054305
 1  18.84847245804580  5.28376460296030 -1.14666680778078
 1  17.29786235603560  6.03277768786879 -0.99066741884188
 1 -5.36434431903190 -7.93615471487149 -0.16767108310831
 1 -6.32057254855486 -6.94168354975498  1.03876371967197
 1 -4.51414363176318 -7.09384926112611  1.26691956035604
 8 -7.93971686698670  6.88684871627163 -0.47983141154115
 1 -9.15798918271827  6.34297171287129 -1.81892035953595

