%nproc=3
%Mem=2GB
# td=(NStates=1) iop(3/107=0140000000,3/108=0140000000) iop(3/107=0140000000,3/108=0140000000) CAM-B3LYP/6-31G(d,p) 

TD

0 1
12 -5.63938967016702  1.30397042474247  0.15078774757476
 6 -5.14850497229723 -2.18291225592559 -0.33097616271627
 6 -3.43545500540054  1.15057759925993  2.72278371657166
 6 -6.31871829412941  4.56004402750275  0.64082644384438
 6 -8.06822774077408  1.16234491689169 -2.38590268416842
 7 -4.38365545004500 -0.27045296839684  0.99259942694269
 6 -4.25680090049005 -1.66521770317032  0.65000871937194
 6 -3.18864026572657 -2.31542274087409  1.43288887748775
 6 -2.88844299969997 -1.40764143384338  2.51133792039204
 6 -3.61504830483048 -0.11276042864286  2.05662632123212
 6 -3.29666177417742 -1.77716440904090  3.96829468886889
 6 -1.96781162446245 -2.80461445464546  0.54353853995400
 6 -0.93122088498850 -3.40434552245225  1.51669554645465
 6  0.28392425982598 -3.80314518661866  0.75774393549355
 8  0.51975582948295 -3.32257194599460 -0.34080409580958
 8  1.07437912011201 -4.73105825062506  1.32611860036004
 7 -4.97467601860186  2.65497573427343  1.46477316391639
 6 -4.06493058025803  2.41365938193819  2.47745297109711
 6 -3.87913845104510  3.70696077857786  3.34943388778878
 6 -4.79286504220422  4.56003446894689  2.73258914311431
 6 -5.41257061946195  3.88984366086609  1.54925007690769
 6 -2.81880050495049  3.83828091179118  4.37677154765477
 6 -4.85823852385239  5.94947498169817  3.11476691349135
 8 -4.19238172547255  6.50217504770477  3.93352732523252
 7 -7.04180583018302  2.62672060456046 -0.69233190089009
 6 -7.00870306810681  3.93562396789679 -0.41651985508551
 6 -7.89046418661866  4.60779183598360 -1.26111892099210
 6 -8.49466249904991  3.65895502560256 -2.09824437683768
 6 -7.90568437993799  2.38644681878188 -1.66345011481148
 6 -8.09523180188019  6.04471584128413 -1.31927306190619
 6 -9.47681415981598  3.89786072437244 -3.19881242984298
 6 -8.67938691939194  4.02643400650065 -4.51288453515351
 7 -6.46843261056106 -0.17691287148715 -1.06689771017102
 6 -7.47035064176418 -0.05691659725973 -1.98909483208321
 6 -7.67841095769577 -1.38025317801780 -2.69645266986699
 6 -6.86264174787479 -2.19421319461946 -2.03481269116912
 6 -6.09968789228923 -1.44285831533153 -1.03434129882988
 6 -8.65533090779078 -1.65021481008101 -3.78603952335234
 6 -6.23636726382638 -3.50120922692269 -2.05242063596360
 8 -6.50029326992699 -4.52813778387839 -2.68436868256826
 6 -5.04328458195820 -3.48290005670567 -1.02781940274027
 6 -5.22369949754975 -4.63273847544755  0.07201435243524
 8 -5.61889607220722 -4.53402933633363  1.23272039233923
 8 -4.90241020422042 -5.86150003410341 -0.45299947134713
 6 -5.26529987918792 -6.99011260236024  0.30343787858786
 6  2.23910059165917 -5.02689895009501  0.62602058335834
 6  3.38173148324833 -4.14790628992899  1.07347863366337
 6  4.07573667736774 -3.24995481638164  0.29262163716372
 6  3.74356925422542 -3.08511169956996 -1.22124979377938
 6  5.31181538753875 -2.34116838503850  0.76032788368837
 6  6.66176178087809 -2.68734368736874  0.24471479737974
 6  7.78673780048005 -1.80182182798280  0.71019485408541
 6  9.06083469196920 -1.92726870887089  0.04325761256126
 6  9.67893497359736 -3.37898780128013  0.10403352835284
 6  10.04662009760976 -0.85576619751975  0.46780474387439
 6  11.38229138643864 -0.77922071717172 -0.32122743334333
 6  12.20296791739174  0.40121931243124  0.09458024622462
 6  13.61523091719172  0.45074476137614 -0.61891164836484
 6  14.46518469146915 -0.80595132513251 -0.38733541874187
 6  14.39357929612961  1.73414818701870 -0.17599524192419
 6  15.61534081498150  2.01769370467047 -0.98593570127013
 6  16.09089870957095  3.36518902890289 -0.76877797079708
 6  17.42753714841484  3.82327124262426 -1.47022807060706
 6  17.21197017911791  3.90417598029803 -2.86832915291529
 6  17.96298971817182  5.19279740574057 -0.85969692669267
 1 -2.79993549944995  1.44465132873287  3.41466907810781
 1 -6.47282816571657  5.67167336953695  0.82296205890589
 1 -8.93894909400940  1.23623788528853 -3.06569195009501
 1 -3.66424348954896 -3.04738785548555  1.86747248934893
 1 -1.83604469046905 -1.09364697289729  2.46857902390239
 1 -2.69538886408641 -2.50034661556156  4.38820876677668
 1 -3.22694929502950 -0.78281039873987  4.56946308220822
 1 -4.34555623142314 -2.06886480448045  3.88393161576158
 1 -2.21798896449645 -3.57284032903290 -0.25278301290129
 1 -1.63522422212221 -1.83140176757676 -0.02815197389739
 1 -0.59177356745675 -2.78710868316832  2.32289683078308
 1 -1.14578405700570 -4.22817965426543  2.09316835353535
 1 -1.83232188428843  3.66823150985099  3.95243762486249
 1 -2.91773942794279  4.86951659075908  4.68200386328633
 1 -2.88064799729973  3.19523271737174  5.39475645244524
 1 -5.58889274857486  6.54917289978998  2.36150826662666
 1 -10.15790977347735  2.97890504240424 -3.05034618921892
 1 -10.00009749264927  4.72456999149915 -2.93682667526753
 1 -9.37433319421942  4.29360726072607 -5.43011932253225
 1 -8.08567253325332  4.98780072067207 -4.45079476127613
 1 -8.04365464036404  3.23168748264827 -4.54707882258226
 1 -8.48579516111611 -1.19257251495150 -4.68674864386439
 1 -8.62074170207021 -2.72106916721672 -4.09914925882588
 1 -9.70394364346435 -1.36978361296130 -3.45741002610261
 1 -4.06724850085009 -3.88754457745775 -1.62860779087909
 1  2.43639158295830 -5.96223351645165  1.12141052895290
 1  2.20621394799480 -5.11110963736374 -0.56438187328733
 1  3.44738072047205 -4.13039316161616  2.04102246634663
 1  2.81559901180118 -2.98160971587159 -1.32640529062906
 1  4.28270560856086 -2.23805850645064 -1.97800601810181
 1  4.28004051145115 -4.01828368466847 -1.72397385468547
 1  4.97618148714872 -1.28122366696670  0.49586997809781
 1  5.41958431683168 -2.45776009320932  1.86897078337834
 1  6.78481770177018 -3.76111041054105  0.24572389408941
 1  6.54753359285929 -2.56955917191719 -0.75480516671667
 1  7.28809961156116 -0.84458101240124  0.44501325462546
 1  7.91304021422142 -2.13426167466747  1.79085655805581
 1  8.82667856745675 -1.70566860756076 -1.04634285298530
 1  9.06753891929193 -4.21886074597460 -0.31071354155416
 1  10.55356838623862 -3.38129148384838 -0.30702828472847
 1  10.00211695929593 -3.52659838843884  1.15279624262426
 1  9.77301836273627  0.04645305570557  0.36219539393939
 1  10.36057501610161 -0.99386770607061  1.69322025932593
 1  12.07138907000700 -1.73800112181218 -0.31043035083508
 1  11.06046198639864 -0.70043167866787 -1.36854769846985
 1  11.69596961506151  1.40976404820482  0.08670145974597
 1  12.49138989768977  0.30757204050405  1.24775395049505
 1  13.52854359665966  0.68930367316732 -1.84822102690269
 1  14.79365959315932 -1.01523454075408  0.55069016651665
 1  14.00289067556756 -1.66659983888389 -1.01690794489449
 1  15.53904376087609 -0.73042637033703 -1.01714411741174
 1  13.62199144474447  2.44619291849185 -0.43746362366237
 1  14.68051566376638  1.71274768926893  0.90471929922992
 1  16.55610433753375  1.29099456095610 -0.77138495349535
 1  15.29067386288629  1.85098334973497 -2.23095662656266
 1  15.39911137323732  4.27819102680268 -1.08661994199420
 1  16.35868550245024  3.61294725412541  0.41026348514851
 1  18.34508432523252  3.19461296979698 -1.34326871477148
 1  16.45136227302730  4.51691897079708 -3.22926720562056
 1  18.27085947584758  4.22960935413541 -3.29604703830383
 1  16.80629531483148  3.02914782598260 -3.44301485468547
 1  17.98390626462646  5.23015366836684  0.16329549524953
 1  18.95347295809581  5.25402162866287 -1.36001814291429
 1  17.21912448224823  6.11436584668467 -1.30803915601560
 1 -4.98769665426543 -7.92642374177418 -0.23051736773677
 1 -6.39036952825283 -6.96797617901790  0.57565740904090
 1 -4.73867608500850 -6.97956783298330  1.14801767016702
 8 -7.75526842214221  6.99326935833583 -0.58775220362036
 1 -8.77742112591259  6.45675309100910 -2.28290675817582

