%nproc=3
%Mem=2GB
# td=(NStates=1) iop(3/107=0140000000,3/108=0140000000) iop(3/107=0140000000,3/108=0140000000) CAM-B3LYP/6-31G(d,p) 

TD

0 1
12 -5.71113684488449  1.27025705340534  0.12564523332333
 6 -5.14049417121712 -2.16608057275728 -0.25537860296030
 6 -3.35027648754876  1.29797233873387  2.70834227242724
 6 -6.41218764106411  4.49393741684168  0.68921128232823
 6 -8.07096801480148  1.11407008940894 -2.23952804670467
 7 -4.39085617011701 -0.30315623872387  1.02273244024402
 6 -4.26139135953595 -1.65111629302930  0.74528824732473
 6 -3.09398079977998 -2.30600179877988  1.58106369496950
 6 -2.73907806320632 -1.27256792649265  2.61906869346935
 6 -3.51368816881688  0.05140598799880  2.07815847444745
 6 -3.30223233123312 -1.62908960156016  3.98229608900890
 6 -1.89236407970797 -2.72034602780278  0.58930311641164
 6 -0.95052281518152 -3.63031811971197  1.31248512541254
 6  0.33411927932793 -3.89835470757076  0.49557771887189
 8  0.58931278517852 -3.38584827362736 -0.57794781018102
 8  1.11136281848185 -4.69706485128513  1.21627761626163
 7 -5.03032158315832  2.62718295499550  1.41411809840984
 6 -4.11112519971997  2.41642965896590  2.48117334313431
 6 -3.83937447464747  3.73738382088209  3.11748069246925
 6 -4.57851360706071  4.62246071157116  2.48996488068807
 6 -5.37938730113011  3.97184186068607  1.46891204310431
 6 -2.96912553745375  3.81202828652865  4.22428629912991
 6 -4.70924362436244  6.00370040424042  2.81443688048805
 8 -4.13366585388539  6.58535336553655  3.69707367986799
 7 -6.93489513911391  2.59847778027803 -0.73144581228123
 6 -7.02630482828283  3.97710811631163 -0.38403660676068
 6 -8.07288242844284  4.59259031583158 -1.21039384848485
 6 -8.60193322612261  3.65032416251625 -2.06210076247625
 6 -7.84877868936894  2.44876305040504 -1.72434620442044
 6 -8.60221249995000  6.00145151485148 -1.07824895949595
 6 -9.63137961636164  3.75210614891489 -3.13653620222022
 6 -8.93536251695170  4.11218258135814 -4.54161740844084
 7 -6.37415318261826 -0.06933211341134 -1.11304232463246
 6 -7.39892349904991 -0.03606451205121 -2.04479040164016
 6 -7.59553266986699 -1.37683283598360 -2.61343436803680
 6 -6.65970145384538 -2.15541931523152 -1.95569477937794
 6 -5.95914383788379 -1.34792882238224 -1.12526039073907
 6 -8.53899927462746 -1.67433722232223 -3.76353727312731
 6 -6.19901352845285 -3.52778188418842 -1.96463185708571
 8 -6.49442268286829 -4.56055102520252 -2.60283052875288
 6 -5.00879113261326 -3.53293506020602 -0.85660228102810
 6 -5.29444657225723 -4.65212041364136  0.22960011101110
 8 -5.74782896549655 -4.32803873727373  1.40156727702770
 8 -5.04581454465447 -5.91985586968697 -0.25281945334533
 6 -5.31677502670267 -7.03455704680468  0.50193772857286
 6  2.39867654925493 -5.08626488668867  0.47290527182718
 6  3.48001131123112 -4.06381788108811  0.90138142394239
 6  4.14391349504950 -3.15811563246325  0.07599997499750
 6  3.78388328562856 -3.12765595399540 -1.37311498029803
 6  5.24799900590059 -2.29795406360636  0.62377422832283
 6  6.60204580928093 -2.62795774877488  0.06101642754275
 6  7.71557068376838 -1.75132677847785  0.62948678327833
 6  9.05503411191119 -1.92050803280328 -0.06317303050305
 6  9.64974205430543 -3.35585548804880  0.21611473647365
 6  10.07386282188219 -0.92951357225723  0.43835179857986
 6  11.31392454975497 -0.92760555565557 -0.30284559515952
 6  12.30503812441244  0.18414760526053  0.17830861906191
 6  13.60473986808681  0.45942562946295 -0.63359311651165
 6  14.45574374737474 -0.87623835383538 -0.58649533473347
 6  14.33133307150715  1.73609838203820 -0.05676331873187
 6  15.49237851875187  2.14063599889989 -0.95664277197720
 6  16.13859347904790  3.43234574457446 -0.55042613561356
 6  17.41656605130513  3.74379329482948 -1.25722677047705
 6  17.34051303340334  4.02203776647665 -2.75983830383038
 6  18.10024344354435  4.98753687968797 -0.60108106510651
 1 -2.44743024892489  1.33975083868387  3.40819843104310
 1 -6.66174705760576  5.61019722192219  0.83601336403640
 1 -8.79206440554055  1.03751801330133 -3.02119750065007
 1 -3.38430549574958 -3.15982909960996  1.89146488858886
 1 -1.71714280028003 -1.14486209440944  2.59854202020202
 1 -3.10741006620662 -2.55165174607461  4.19022896879688
 1 -2.84507110721072 -0.98039015671567  4.82251838773877
 1 -4.49969164496450 -1.58059597759776  4.05846906950695
 1 -2.41977914351435 -3.25868891389139 -0.17941567616762
 1 -1.10179087878788 -1.91869049644965  0.10497133843384
 1 -0.58782317241724 -3.37185715801580  2.44455899699970
 1 -1.37267674627463 -4.65058189448945  1.40705974267427
 1 -2.12077072917292  3.63533822052205  3.73007538863886
 1 -2.66292394639464  4.79168880798080  4.68221388428843
 1 -3.03708364086409  3.12081527562756  5.04770174697470
 1 -5.49585344464446  6.41793977647765  1.98528064386439
 1 -10.07499148164816  2.57602475437544 -3.14695585018502
 1 -10.27048453135314  4.68980651515152 -3.15652864546455
 1 -9.59198495939594  3.98316621662166 -5.23358966956696
 1 -8.47837180318032  5.17854979557956 -4.50845052685268
 1 -8.06416669156916  3.46376068996900 -4.88750286498650
 1 -8.41120770237024 -1.33592685038504 -4.79050901990199
 1 -8.36169579747975 -2.92115917621762 -3.99848919281928
 1 -9.64113736283628 -1.47497413201320 -3.30398468356836
 1 -4.15038681468147 -3.82696851985199 -1.26104103420342
 1  2.43517146094609 -6.14149144224422  0.84015240314031
 1  2.11852517911791 -4.97434596099610 -0.67184261936194
 1  3.60645662806281 -4.16222634493449  2.02565092919292
 1  2.77757520942094 -3.47906946184618 -1.85129777987799
 1  3.85837317531753 -2.01808650925093 -1.59114733223322
 1  4.59960246764676 -3.78032988928893 -1.94688614591459
 1  5.03214708370837 -1.29415496009601  0.24589498059806
 1  5.35988834723472 -2.30269458665867  1.70684457075708
 1  6.77346656665666 -3.66804110361036  0.39867918961896
 1  6.70000884038404 -2.75082729872987 -1.15509519571957
 1  7.37074787638764 -0.67836439073907  0.39214796809681
 1  7.76910582078208 -1.68926717521752  1.82609008140814
 1  8.91317721732173 -1.84959300000000 -1.12305052375238
 1  8.93413557895790 -4.10631949184919 -0.26387885808581
 1  10.55138816821682 -3.42638599329933 -0.48463604550455
 1  9.82171891949195 -3.56458218681868  1.17071803480348
 1  9.49727078797880  0.03038144854485  0.45802497689769
 1  10.31404036263626 -1.08944726402640  1.42350328762876
 1  11.78674060516052 -1.94082140384038 -0.25566487428743
 1  11.26569250945095 -0.90042167766777 -1.47020786448645
 1  12.06314633273327  1.14419749154916  0.07431022062206
 1  12.41718247694770  0.05330661396140  1.26630580568057
 1  13.42375311761176  0.63491823462346 -1.64703090789079
 1  14.77995822302230 -1.33185620292029  0.40455555305531
 1  13.84808519501950 -1.82844602350235 -1.14949120322032
 1  15.42136199269927 -0.71401472917292 -1.21346374937494
 1  13.72842208780878  2.45745404460446 -0.25813569086909
 1  14.64768238043805  1.47939435393539  0.88570739803980
 1  16.38425715281528  1.30825628712871 -0.83001081608161
 1  15.09119391489149  2.15562381378138 -2.06134966586659
 1  15.48759022112211  4.38240144784478 -0.42182346234623
 1  16.28888852275227  3.50816677607761  0.62507496629663
 1  18.16103592039204  3.08108161666167 -1.10316470437044
 1  16.61666880368037  5.02074935383538 -2.85529980888089
 1  18.28207059695970  4.13952034523452 -3.31031846544654
 1  16.74560924622462  3.03711862306231 -3.07982853605361
 1  18.35038291229123  4.85202585558556  0.42604176987699
 1  18.99933754455446  5.36469269576958 -0.98868100920092
 1  17.50204277407741  5.95807021712171 -0.68938729082908
 1 -4.99786767136714 -7.80456155555555 -0.06768108410841
 1 -6.39963045434543 -6.80511989338934  0.87744758805881
 1 -4.71065328272827 -7.03482335853585  1.41848471687169
 8 -7.98864175947595  6.84484451585158 -0.35194862326233
 1 -9.50435381918192  6.26388380408041 -1.61981044854485

