%nproc=3
%Mem=2GB
# td=(NStates=1) iop(3/107=0140000000,3/108=0140000000) iop(3/107=0140000000,3/108=0140000000) CAM-B3LYP/6-31G(d,p) 

TD

0 1
12 -5.52654838603860  1.19152918061806  0.20390305910591
 6 -5.06400652245225 -2.04222818751875 -0.33017608270827
 6 -3.32287374727473  1.13740628212821  2.78353979217922
 6 -6.16614303660366  4.53776179927993  0.55400776197620
 6 -7.91874279227923  1.14932361476148 -2.36980107400740
 7 -4.32541962646265 -0.22964888798880  0.96390655765577
 6 -4.25168038843884 -1.61403258465847  0.67212093059306
 6 -3.26141754345435 -2.39813101170117  1.53216880548055
 6 -2.89078323372337 -1.30328099779978  2.54057084368437
 6 -3.59885668566857 -0.05082423502350  2.15950660926093
 6 -3.37732984098410 -1.80526721932193  3.94808266766677
 6 -2.00145498879888 -2.76199019221922  0.66876106220622
 6 -0.98054581748175 -3.57693278117812  1.41037491439144
 6  0.29752561996200 -3.86430130223022  0.55649381048105
 8  0.43626748064806 -3.31016070487049 -0.45118513391339
 8  1.01480316251625 -4.73487863266327  1.09734572307231
 7 -4.94437298829883  2.60297053375338  1.53475016161616
 6 -3.99989407660766  2.38648666466647  2.52370759655966
 6 -3.80230076727673  3.58168825132513  3.18098704310431
 6 -4.49877563326333  4.55948441394139  2.61146703090309
 6 -5.32299166156616  3.98950362686269  1.50687583948395
 6 -2.74350297519752  3.87835491919192  4.32099597009701
 6 -4.63548624862486  6.03420345454546  3.07071250805080
 8 -3.99317180448045  6.58796362656266  3.95033900640064
 7 -6.82623427302730  2.57685561806181 -0.78507117481748
 6 -6.90671286908691  4.00582098759876 -0.46262446554655
 6 -7.89556469666967  4.63426448324832 -1.26177898699870
 6 -8.39045207800780  3.65569469956996 -2.07426197859786
 6 -7.70260407190719  2.38022619671967 -1.73134690449045
 6 -8.27008928762876  5.96682805250525 -1.14645578017802
 6 -9.42417889628963  3.82415335363536 -3.07949049764976
 6 -8.77361634233423  4.05458682178218 -4.55507875457546
 7 -6.29215498279828 -0.08878405860586 -1.15676669706971
 6 -7.30994460116012 -0.03891479707971 -2.11129705230523
 6 -7.64417753435344 -1.33530868356836 -2.63407643224322
 6 -6.78638412211221 -2.25152892619262 -2.00889009890989
 6 -5.93705162866287 -1.43368739823982 -1.13259112381238
 6 -8.58648402310231 -1.62384217281728 -3.83242416181618
 6 -6.22050567766777 -3.57029613561356 -2.02704809870987
 8 -6.44727796839684 -4.58261323142314 -2.73953419911991
 6 -5.03522377587759 -3.55305707240724 -0.88077469826983
 6 -5.36639376697670 -4.71514671627163  0.11592874387439
 8 -5.93422760536054 -4.50953688708871  1.20755787608761
 8 -5.00507047024702 -5.88819270337034 -0.29800397179718
 6 -5.52658600780078 -6.90026361746175  0.49921745654565
 6  2.26369305090509 -5.06045230543054  0.51039902120212
 6  3.31747505760576 -4.07286878617862  0.99899118491849
 6  4.02456155985598 -3.18705852675268  0.26859923492349
 6  3.88428332563256 -3.09144233263326 -1.29517718651865
 6  5.17248145414541 -2.42091635983598  0.84195604650465
 6  6.58575418011801 -2.67653260626063  0.06411673757376
 6  7.67227635433543 -1.79216086188619  0.61286512111211
 6  9.06104471297130 -2.08466444844484 -0.01846856005601
 6  9.62334941504150 -3.47051695419542  0.42132525752575
 6  9.94001943754376 -0.84469509040904  0.49174713811381
 6  11.36858001530153 -0.88119091419142 -0.16988229882988
 6  12.09042666326633  0.34004319481948  0.13361414961496
 6  13.48984837893789  0.52957264416442 -0.54387414461446
 6  14.33985215821582 -0.72645337533753 -0.21355804100410
 6  14.27352729092909  1.80410518271827 -0.16905454785479
 6  15.47262654355436  2.08717065236524 -1.00806791449145
 6  15.99413903360336  3.61344385438544 -0.80655174817482
 6  17.28308270297030  3.87902681818182 -1.48738978677868
 6  16.96149513161316  4.20788635133513 -3.00108242824282
 6  17.95901932113211  5.13333145914592 -0.85627658465847
 1 -2.75969147504750  0.97615447904790  3.83543115431543
 1 -6.33355423832383  5.48441464366437  0.74711447414742
 1 -8.62755795489549  1.05812007350735 -3.18571395229523
 1 -3.98531559675968 -3.31531464816482  1.93674941704170
 1 -1.88359944594459 -1.16682429062906  2.59068123412341
 1 -2.83293261846185 -2.64563114401440  4.14725467136714
 1 -3.30849744984498 -1.07302942064206  4.63587972387239
 1 -4.38009968576858 -1.97611552955296  3.91823504610461
 1 -2.23242040764076 -3.32562560756076 -0.13059079367937
 1 -1.50381108080808 -1.86701532893289  0.47525836713671
 1 -0.53741813191319 -3.04933490579058  2.31127566866687
 1 -1.29814929352935 -4.68772560886089  1.90846988368837
 1 -1.67889654175418  4.23659834653465  3.71508388948895
 1 -3.03542119611961  4.79733937303730  4.71009667256726
 1 -2.47251718421842  2.92108530263026  5.06807378417842
 1 -5.28457231653165  6.59505748824883  2.29535165096510
 1 -10.18397237973797  2.99222637453745 -3.26549770437044
 1 -10.13454093699370  4.74660219471947 -2.85890888348835
 1 -9.62388814971497  3.85439333933393 -5.33105941654165
 1 -8.36003996999700  5.04345628622862 -4.86723640544054
 1 -8.06924719961996  3.26307062096210 -4.70135425012501
 1 -8.47445402700270 -0.74741799949995 -4.53515348434843
 1 -8.47804743264326 -2.62603966426643 -4.32050139403940
 1 -9.46928017711771 -1.66445307990799 -3.36768105320532
 1 -4.10727250325033 -3.80854667766777 -1.55770070017002
 1  2.58350629442944 -6.08229552265226  0.75542393029303
 1  2.07746107270727 -4.87247577397740 -0.63507894299430
 1  3.50119610201020 -4.05750587288729  2.20548891299130
 1  2.78248570047005 -3.11787334223422 -1.58849149924992
 1  4.34014135213521 -2.09286398699870 -1.57047526502650
 1  4.69684219161916 -3.66045790209021 -1.71991344864486
 1  4.91321519051905 -1.34510005460546  0.83460385148515
 1  5.31105346374637 -2.61981629882988  1.87453133943394
 1  6.77619683968397 -3.90084438393839  0.05909523122312
 1  6.27873671317132 -2.57937015301530 -1.08012769896990
 1  7.29095989758976 -0.78669522382238  0.52168092139214
 1  7.78194710491049 -1.86739498799880  1.69484695709571
 1  8.99509540914092 -2.01278931963196 -1.21541976067607
 1  8.91939410481048 -4.26894575447545  0.21249877967797
 1  10.62863589298930 -3.52060541524152 -0.11688927082708
 1  9.92627937553755 -3.17862359095910  1.53795475847585
 1  9.36949801070107  0.15918432883288  0.08566774117412
 1  10.06720567916792 -0.94143246254625  1.61358229552955
 1  11.85557748884889 -1.62184950665067  0.15582627482748
 1  11.35579151935194 -1.03678531403140 -1.39778062176218
 1  11.39726974507451  1.26049912171217 -0.38399560996100
 1  12.28683944264426  0.76670795409541  1.14579375447545
 1  13.30741148344834  0.33669841264126 -1.54496070087009
 1  14.62636286348635 -0.77689070637064  0.82143724122412
 1  13.76629701620162 -1.72222540144014 -0.48740499459946
 1  15.40693054955496 -0.96320964866487 -0.81121352435244
 1  13.58031727732773  2.69961826102610 -0.27114699199920
 1  14.48057566976698  1.65095150965096  0.95955478277828
 1  16.29957868496849  1.60880634213421 -0.93928174317432
 1  15.17232202770277  2.18033628502850 -2.10100363126313
 1  15.17152861496150  4.39317252495249 -0.98315959595960
 1  16.31979161306131  3.65103106250625  0.20501296009601
 1  18.07178699549955  2.93496700520052 -1.35185957385739
 1  16.17998513531353  4.93616089498950 -3.14474875377538
 1  17.93227561746174  4.46233262646265 -3.50450788438844
 1  16.65580026532653  3.14829974117412 -3.39162971617162
 1  18.31510938493849  4.76652730573057  0.05931509720972
 1  18.93849145994599  5.16908313481348 -1.37159930103010
 1  17.36199876967697  6.00909531963196 -0.89990834293429
 1 -5.21531941654166 -7.97653875327533 -0.11866618261826
 1 -6.67557804910491 -6.90731011241124  0.52919276257626
 1 -5.08209042644264 -6.72571244744474  1.71257412581258
 8 -7.62908580388039  6.82330236163616 -0.45325875427543
 1 -8.94856824062406  6.31565898159816 -1.85410387788779

