%nproc=3
%Mem=2GB
# td=(NStates=1) iop(3/107=0140000000,3/108=0140000000) iop(3/107=0140000000,3/108=0140000000) CAM-B3LYP/6-31G(d,p) 

TD

0 1
12 -5.66725245644564  1.28154818251825  0.22398506730673
 6 -5.14267438923892 -2.18914287898790 -0.34216728182818
 6 -3.42527398729873  1.05106764826483  2.72275371357136
 6 -6.27176359865987  4.56128415151515  0.73478583978398
 6 -7.93451436943694  1.23931261366137 -2.37456155005501
 7 -4.34938202270227 -0.23626955005501  0.99610977797780
 6 -4.34383960436044 -1.62684386578658  0.65313903240324
 6 -3.21278267996800 -2.37635883448345  1.47678326692669
 6 -3.00090424582458 -1.33661433113311  2.66659344594459
 6 -3.61392819281928 -0.12236138873887  2.16219687828783
 6 -3.54616672467247 -1.77270396299630  4.04968282768277
 6 -2.03839868316832 -2.64140813401340  0.70473465956596
 6 -0.97656541944194 -3.57964305220522  1.46823069997000
 6  0.15488135553555 -3.96554142624262  0.60656881798180
 8  0.34629848374837 -3.46698638743874 -0.46923693909391
 8  1.06574825702570 -4.73441858665867  1.28449443794379
 7 -4.91238978997900  2.59621985868587  1.48225491209121
 6 -3.90041412861286  2.32438045404540  2.40132535833583
 6 -3.57733827102710  3.60622070457046  3.11149009340934
 6 -4.58349410511051  4.55102356785679  2.63234911911191
 6 -5.31236059845985  3.93043772027203  1.55272042394239
 6 -2.71280990589059  3.87043412711271  4.26106997749775
 6 -4.63701640164016  5.88088812301230  3.07209264606461
 8 -4.05884837213721  6.51009583978398  3.92633660616062
 7 -6.93063471307131  2.60508844134413 -0.69096176387639
 6 -6.93244544234423  3.92570297579758 -0.39391759485949
 6 -7.96035117531753  4.62602365916592 -1.28191100020002
 6 -8.33069610241024  3.64624375447545 -2.17800235263526
 6 -7.73931774327433  2.40682885698570 -1.80950472027203
 6 -8.25070734943494  6.03687505720572 -1.21224235883588
 6 -9.26415289368937  3.89695063336334 -3.33250579917992
 6 -8.59216819751975  4.03245460856086 -4.63360660736074
 7 -6.40275604290429 -0.08062324252425 -1.04172519291929
 6 -7.40582418911891 -0.01381228682868 -2.03910983358336
 6 -7.55208832543254 -1.35410056275628 -2.63074609920992
 6 -6.67895337903790 -2.18841261456146 -2.09101831173117
 6 -6.01603952745274 -1.45047907740774 -1.13951181588159
 6 -8.51226660136014 -1.67742753135314 -3.81677259665967
 6 -6.25896952405241 -3.62187129312931 -2.00965635953595
 8 -6.59969320992099 -4.60071504160416 -2.61116136183618
 6 -5.09791004450445 -3.65321708840884 -0.93884050485049
 6 -5.37909503710371 -4.65127032863286  0.12429958095810
 8 -5.87530171277128 -4.46824275767577  1.17491461176118
 8 -5.01702166536654 -5.88786267036704 -0.34319849124912
 6 -5.39915326452645 -6.85230882198220  0.54446198099810
 6  2.34059074067407 -5.03604986518652  0.61919990129013
 6  3.48332164226423 -4.07781928122812  1.06084737053705
 6  4.08678778247825 -3.24613443434343  0.29463183818382
 6  3.70239513681368 -2.97851103950395 -1.17276494529453
 6  5.21385559155916 -2.40128439663966  0.79993184408441
 6  6.51921752645265 -2.60023497649765  0.14917524342434
 6  7.74977410411041 -1.70178182398240  0.75252908750875
 6  9.06042465096510 -1.94989097109711 -0.05801251445145
 6  9.66978405850585 -3.35077497999800  0.16251937693769
 6  10.15469090469047 -0.83567418831883  0.25047301070107
 6  11.35258841614161 -0.87421021612161 -0.47521283188319
 6  12.29790741134113  0.24245343584358  0.14308509670967
 6  13.57821721582158  0.46933662056206 -0.57161691889189
 6  14.49582775577558 -0.85093582358236 -0.55246193139314
 6  14.31067100530053  1.76497126932693 -0.08889653205321
 6  15.46145542644264  2.14577651295130 -1.07769487718772
 6  16.02400201990199  3.60639314931493 -0.58657975097510
 6  17.36861125582558  3.92818173367337 -1.41151219901990
 6  16.96797577967797  4.16949251195119 -2.87442976297630
 6  17.89520293949395  5.13469159515952 -0.73385434243424
 1 -2.57487299319932  1.04533139673967  3.42979059025903
 1 -6.50883176607661  5.57114331653165  0.88690845354535
 1 -8.58149334843484  1.09886414791479 -3.10982636353635
 1 -3.70350741594159 -3.28161127782778  1.93670941304130
 1 -1.92897398339834 -1.06077368556856  2.76179834583458
 1 -2.96797612281228 -2.57369395029503  4.50593053895390
 1 -3.39710631073107 -0.97474959265927  4.75305144104410
 1 -4.66150782658266 -2.02310022802280  3.95315853845385
 1 -2.44394155975598 -3.03739678467847 -0.34636237083708
 1 -1.51688238793879 -1.82032065946595  0.40248108940894
 1 -0.76620101020102 -2.96787675997600  2.37126166726673
 1 -1.57228670727073 -4.36476331263126  1.86172520922092
 1 -1.65345399749975  3.44209889658966  4.02736511761176
 1 -2.79775742974297  4.82722236133613  4.59084474737474
 1 -3.08474840734073  3.12318551265127  5.05476245304530
 1 -5.41358521782178  6.31863984648465  2.42114423022302
 1 -10.03264724722472  3.05671282318232 -3.36759791439144
 1 -10.18744622752275  4.56916445094509 -3.12907590019002
 1 -9.21783754465446  4.27118501850185 -5.59032534313431
 1 -7.78645261126113  4.80582252285228 -4.56391607340734
 1 -7.82893316821682  3.12720703460346 -4.74344845954595
 1 -8.34104068566857 -0.82849610731073 -4.64249421842184
 1 -8.46624625252525 -2.76128318861886 -4.06060540444044
 1 -9.45485873497350 -1.51415805040504 -3.46331061616162
 1 -4.20877265326533 -3.95210103310331 -1.46799172927293
 1  2.43863180698070 -6.28115540864086  0.82749113701370
 1  2.26656998359836 -5.03868239463946 -0.43236867196720
 1  3.86889287168717 -4.36626674897490  1.98340670477048
 1  2.60973842574257 -3.05775733063306 -1.48367101720172
 1  3.70024736273627 -1.95841054165417 -1.51002922042204
 1  4.43353586098610 -3.57573943024303 -1.75465692299230
 1  5.01942581158116 -1.31208675327533  0.55226561766177
 1  5.16390874927493 -2.51135545274527  1.93430731703170
 1  6.78452767276728 -3.72382668216822  0.10798011971197
 1  6.43159199869987 -2.40174239023902 -0.95297498369837
 1  7.18672947454745 -0.66759331363136  0.84305305860586
 1  7.85039394959496 -1.97570581908191  1.77668514091409
 1  8.77898379797980 -1.72965100580058 -1.17346556525653
 1  9.05488765416542 -4.19893875377538 -0.33384585478548
 1  10.70501353075307 -3.49066242094209 -0.21587916981698
 1  9.74163091069107 -3.53509923852385  1.21728269126913
 1  9.62359342024202  0.23030144054405  0.06209538393839
 1  10.17275623422342 -0.94857317661766  1.36904784208421
 1  11.98197012811281 -1.85112243394339 -0.50580988878888
 1  11.34347028722872 -0.55979761526153 -1.48508935263526
 1  11.71761177927793  1.18757182898290  0.03331612121212
 1  12.50696145484548  0.03155443874387  1.19414858995900
 1  13.09308005030503  0.57408215101510 -1.64291049584958
 1  14.61756198339834 -1.15079809710971  0.33167826532653
 1  14.02163254975498 -1.55700887978798 -0.82080833493349
 1  15.39301915841584 -0.56228955665567 -1.28909131213121
 1  13.53244248984898  2.58036633583358  0.04349447214721
 1  14.79412702490249  1.74098051255125  0.96482530983098
 1  16.34083281038104  1.28703416491649 -1.31334914991499
 1  15.10368516401640  2.07653590499050 -2.13461699259926
 1  15.26172763486348  4.25281848954895 -0.80926220622062
 1  16.40062969686969  3.49060501990199  0.38109056785679
 1  17.90599041584159  2.95245875437544 -1.26957134503450
 1  16.07943508030803  4.67770504940494 -3.12678695759576
 1  17.97447983788379  4.31068746194619 -3.41399883348335
 1  16.83004769006901  3.06500141134113 -3.27666822002200
 1  17.56656453045304  5.09322997599760  0.37836700240024
 1  18.95426303710371  5.67917414391439 -1.07230937203720
 1  17.29906247604761  6.05007941804180 -1.02903125522552
 1 -4.93067095169517 -7.83140423982398  0.28084376837684
 1 -6.37793828512851 -6.66829621102110  0.54438428172817
 1 -5.01990420782078 -6.33277315351535  1.55920878927893
 8 -7.73728662396240  6.89986001740174 -0.46403983238324
 1 -9.07625100890089  6.45855327102710 -1.78660712821282

