%nproc=3
%Mem=2GB
# td=(NStates=1) iop(3/107=0140000000,3/108=0140000000) iop(3/107=0140000000,3/108=0140000000) CAM-B3LYP/6-31G(d,p) 

TD

0 1
12 -5.68707443864386  1.23506353405341  0.24667733653365
 6 -5.09604972677268 -2.08740270497050 -0.45912897799780
 6 -3.52086354625463  1.15262780428043  2.87593903210321
 6 -6.06473289558956  4.59812783588359  0.63749611081108
 6 -7.91755267326733  1.26949563196320 -2.38427252115211
 7 -4.45013209770977 -0.25781170427043  1.06857702470247
 6 -4.23598881928193 -1.63896507790779  0.61179489798980
 6 -3.26265766746675 -2.42148334693469  1.45756134473447
 6 -3.06321047644764 -1.45929659935994  2.65060184678468
 6 -3.69414621462146 -0.07310646324632  2.13057371597160
 6 -3.60491259925993 -1.82943963656366  4.01600946034603
 6 -2.04754959825983 -2.70444443764376  0.71746593269327
 6 -1.05686344924492 -3.62552764066407  1.37318119501950
 6  0.25967183458346 -3.92162703480348  0.60945910701070
 8  0.54597845174517 -3.46136582538254 -0.37842785818582
 8  1.00860254245425 -4.80411555635564  1.34728071657166
 7 -4.93408195919592  2.61494173087309  1.50138682528253
 6 -4.02256634383438  2.42978099409941  2.51268649444944
 6 -3.67508804600460  3.60594067656766  3.26744568896890
 6 -4.40104586028603  4.63273173867387  2.55727161136114
 6 -5.15109447184718  3.98666334283428  1.46206135803580
 6 -2.78342696759676  3.89202628632863  4.41157502800280
 6 -4.44040674067407  6.09894992919292  2.78305374217422
 8 -3.90031251855186  6.63837866806681  3.74021799429943
 7 -6.81230287988799  2.69404733723372 -0.73039570727073
 6 -6.89648184598460  3.99357976347635 -0.38275647874787
 6 -7.87977311751175  4.54661571837184 -1.10440324942494
 6 -8.42983601640164  3.55420455055506 -1.96506105850585
 6 -7.75844965646565  2.47279545364536 -1.68180194999500
 6 -8.27075935463546  5.94688605830583 -1.19197033163316
 6 -9.44026050445045  3.73826476477648 -3.09467201580158
 6 -8.85650463116312  3.95334669776978 -4.49382262896290
 7 -6.37091285858586 -0.09816499669967 -1.17378839923992
 6 -7.28268187488749  0.01660075447545 -2.10761668426843
 6 -7.53374649124912 -1.35617076977698 -2.72931595619562
 6 -6.66956243994400 -2.21065483878388 -2.10895010491049
 6 -6.00518844234423 -1.40160418991899 -1.12769063376338
 6 -8.51956733143314 -1.62651243984398 -3.83138405780578
 6 -6.25591921902190 -3.54189329532953 -2.07920331423142
 8 -6.58174141474147 -4.55533050315031 -2.71159140484048
 6 -5.05594584808481 -3.51223298999900 -0.86977359815982
 6 -5.40717784538454 -4.60710591219122  0.09388653965397
 8 -5.78437261986199 -4.56501243464346  1.26923404370437
 8 -5.03886384958496 -5.82138602270227 -0.41317548894889
 6 -5.28227157635764 -6.96838042914291  0.45110264506451
 6  2.33127980958096 -5.12191845204520  0.70444842614261
 6  3.46786009610961 -4.18615011431143  1.16368765456546
 6  4.09632873657366 -3.32311213211321  0.26614898989899
 6  3.71569646694669 -3.07626081448145 -1.18214588338834
 6  5.14715892189219 -2.40597486568657  0.75398724962496
 6  6.47912351705170 -2.63641859485949  0.05953627952795
 6  7.59849897659766 -1.80507215301530  0.66380021462146
 6  8.98531714021402 -1.94385036703670 -0.01292800600060
 6  9.64389146924692 -3.32417231973197  0.07209033403340
 6  9.89379481508151 -0.80310093099310  0.43449141254125
 6  11.33324648194819 -0.82773556865687 -0.27793310391039
 6  12.33429104970497  0.27486667716772  0.10659144734473
 6  13.56261565566557  0.47378706560656 -0.67227698489849
 6  14.52379055205521 -0.79848057805781 -0.62439912511251
 6  14.25534547274727  1.73848862106211 -0.29488713111311
 6  15.55164444534453  2.12534446974697 -0.87624473217322
 6  15.95438505820582  3.54178668866887 -0.60477157015702
 6  17.22787718241824  3.99209812531253 -1.35938698649865
 6  17.17816679877988  4.05993155585559 -2.81441376137614
 6  17.78830224942494  5.31649977597760 -0.76332728972897
 1 -2.74889039493949  1.19745660926093  3.60435804700470
 1 -6.11264214711471  5.64854105630563  0.60945070777078
 1 -8.68402360146015  1.14353861536154 -3.28245362626263
 1 -3.61370843604360 -3.46559967666767  1.64067981008101
 1 -2.00220130613061 -1.26250385858586  2.77343950995100
 1 -3.14397372257226 -2.68153473437344  4.46219616551655
 1 -3.50974757485749 -1.03078519621962  4.72994913081308
 1 -4.88656033183318 -2.08979689768977  3.79195241784178
 1 -2.30295746134613 -3.09894293929393 -0.15383311791179
 1 -1.55969666936694 -1.61666029342934  0.57412825412541
 1 -0.77576196629663 -3.29347932023202  2.40410495159516
 1 -1.48338781738174 -4.58123495979598  1.59424846154615
 1 -1.78580723282328  3.56207089378938  4.25577795889589
 1 -2.60165781978198  5.00375001410141  4.74584024692469
 1 -2.85000493299330  3.34252744684468  5.31271824862486
 1 -5.11191505080508  6.76809479197920  1.98342045784579
 1 -10.24718870137014  2.77797494939494 -3.41885303990399
 1 -10.11523900680068  4.62829036353635 -2.76639963256326
 1 -9.56555231613161  4.17834573457346 -5.27700401100110
 1 -8.16453041904190  4.61992393299330 -4.52409209100910
 1 -8.36416669156916  2.82961727562756 -4.82785690039004
 1 -8.44975155675568 -1.02851610931093 -4.73476344534453
 1 -8.37549717761776 -2.74432149244924 -4.34168351225123
 1 -9.64758800790079 -1.44082071667167 -3.76246053115311
 1 -4.07917969396940 -3.64018984198420 -1.51106603670367
 1  2.57485542934293 -6.17641493459346  0.94107249514951
 1  2.14694802140214 -4.88461698809881 -0.40807624272427
 1  3.98784476687669 -4.37989811211121  2.02299066316632
 1  2.76081353325333 -3.26822837773777 -1.46916956705671
 1  3.77742508050805 -1.98261296189619 -1.49519773727373
 1  4.29075158255826 -3.77110896719672 -1.75327678497850
 1  4.69681355035504 -1.46904244884488  0.74684507560756
 1  5.26517887628763 -2.67549186638664  1.90730461676168
 1  6.70103932393239 -3.59864416391639  0.12719204090409
 1  6.41110995049505 -2.47462967896790 -1.07394708090809
 1  7.25527632923292 -0.70066662096210  0.37712646594659
 1  7.89812872307231 -1.96385463396340  1.78337580998100
 1  8.69902580218022 -1.76257429812981 -1.10361858055806
 1  8.95527769316932 -4.05299415931593 -0.27945041524152
 1  10.50639366876688 -3.41072442714271 -0.44944252615262
 1  9.73072982058206 -3.44390011861186  1.10386134913491
 1  9.41427248814881  0.22577098749875  0.19713888828883
 1  10.17447640624062 -0.85102342164216  1.53945488278828
 1  11.68396032713271 -1.93772109380938 -0.38833814161416
 1  11.22451839203920 -0.77847948344835 -1.43547439113911
 1  11.83928394649465  1.31489456125613  0.17966075567557
 1  12.59562032073207  0.10006128942894  1.14141331643164
 1  13.26001674397440  0.54555929872987 -1.69917612241224
 1  14.72851307850785 -0.83848686598660  0.43334843234323
 1  13.90120050655065 -1.62425560446045 -1.02258851295129
 1  15.55960581708171 -0.62893622132213 -1.14872727572757
 1  13.55407465306531  2.64280257945795 -0.16260613791379
 1  14.41682929512951  1.43317973247325  0.73886271357136
 1  16.41979070617062  1.41141660316032 -0.63016083108311
 1  15.46991178667867  2.17816606800680 -1.96869039993999
 1  15.20700216231623  4.18194140184018 -1.00793207320732
 1  15.88149778367837  3.72803876327633  0.40725318411841
 1  17.98000781758176  3.13837734623462 -1.09712410031003
 1  16.31442857965796  4.79875715461546 -3.28379265816582
 1  18.01536392629263  4.28167456065606 -3.47750518411841
 1  17.05252993829383  3.10398530973097 -3.15528608180818
 1  17.96428430243024  5.07569822282228  0.32830199589959
 1  18.66969458025802  5.77777400390039 -1.23392553365337
 1  17.01839440924092  6.07853226332633 -1.03364171627163
 1 -5.06533441804180 -7.76085718511851 -0.26571088708871
 1 -6.42631312261226 -6.93306268766877  0.89105894919492
 1 -4.59278149554955 -6.97174705090509  1.33472634103410
 8 -7.69974286958696  6.82730276167617 -0.54249767816782
 1 -8.87202058585859  6.06016343204320 -1.93665213271327

