%nproc=3
%Mem=2GB
# td=(NStates=1) iop(3/107=0140000000,3/108=0140000000) iop(3/107=0140000000,3/108=0140000000) CAM-B3LYP/6-31G(d,p) 

TD

0 1
12 -5.70127585878588  1.21067109480948  0.21321399019902
 6 -5.04269439123912 -2.14639860456046 -0.36413947904790
 6 -3.45081654155416  1.20810335183518  2.73185462366237
 6 -6.21008743104310  4.62232025512551  0.70426278747875
 6 -8.10077099509951  1.07276595899590 -2.26721081498150
 7 -4.35339242374237 -0.24078000110011  0.96651681868187
 6 -4.25635085548555 -1.55552673407341  0.61622534103410
 6 -3.23943534523452 -2.29819101770177  1.37549313791379
 6 -3.02229638503850 -1.19758042774277  2.64041082768277
 6 -3.66101290129013 -0.05985513811381  2.15836649524952
 6 -3.54558666666667 -1.74414110671067  3.86820467986799
 6 -1.95588043134313 -2.69600359355936  0.69545373147315
 6 -0.97531529442944 -3.56063115101510  1.38469234613461
 6  0.18392425982598 -3.83362823492349  0.56855501660166
 8  0.42358621252125 -3.40621030983098 -0.52728274367437
 8  1.03220490269027 -4.58194333913391  1.33336932543254
 7 -5.03335188618862  2.68762899959996  1.50726741334133
 6 -3.98890297749775  2.40872888888889  2.42572779857986
 6 -3.70890142734273  3.67498758125813  3.09488843324332
 6 -4.54813056875688  4.63790225572557  2.58727461166117
 6 -5.28959832223222  4.03589826632663  1.59169432133213
 6 -2.64519314421442  3.82408949264926  4.14044791529153
 6 -4.70014271427143  5.91362139633963  3.01448688548855
 8 -4.01568405570557  6.43263809400940  3.98671264376438
 7 -6.91337298689869  2.60191812431243 -0.67013968166817
 6 -6.94119631743174  3.95669607510751 -0.29832803590359
 6 -7.97929306950695  4.57170822762276 -1.13975678477848
 6 -8.46690972377238  3.61260039013901 -2.04596914931493
 6 -7.78882269376938  2.39625779987999 -1.69446321612161
 6 -8.38910118881888  5.95269663936394 -1.16991812641264
 6 -9.43758023642364  3.71493243154315 -3.13392594119412
 6 -8.86985596629663  4.03444480758076 -4.44366761346135
 7 -6.36507227452745 -0.11115629582958 -1.12114313471347
 6 -7.39815342204220 -0.05600650625062 -2.09785570817082
 6 -7.56224934153415 -1.32295744844484 -2.77709073367337
 6 -6.64874035773577 -2.22986675997600 -2.12283149304931
 6 -5.99931785528553 -1.42134616411641 -1.19687755245525
 6 -8.58613398809881 -1.76894668326833 -3.84755567496750
 6 -6.12935656275628 -3.59032813881388 -2.10384577847785
 8 -6.44895813641364 -4.55137010711071 -2.77080732643264
 6 -5.01446169966997 -3.57105887258726 -0.91569819061906
 6 -5.29558668626863 -4.67068226982698  0.07401455245525
 8 -5.70265444804480 -4.42038797219722  1.18466558685869
 8 -5.01603156635664 -5.83130701480148 -0.31739591099110
 6 -5.14285763496350 -7.00752434353435  0.47395493029303
 6  2.39240592219222 -4.91915817601760  0.70164814611461
 6  3.50020333043304 -3.98789028832883  1.07629891569157
 6  4.10711981568157 -3.17467728862886  0.20299267426743
 6  3.75245014231423 -2.91000418881888 -1.29471714051405
 6  5.20492469846985 -2.30974524272427  0.87223907480748
 6  6.50269587428743 -2.55461041404140  0.12007233313331
 6  7.65343447014702 -1.66545819161916  0.69474330893089
 6  9.01385999449945 -1.90632661466147 -0.06238295149515
 6  9.55342242234223 -3.32687258975898  0.32697582258226
 6  10.03419885548555 -0.81529215011501  0.40642860626063
 6  11.34780793809381 -0.80973376847685 -0.38161347194719
 6  12.25550317091709  0.30145933643364  0.13202399059906
 6  13.50691008510851  0.40501018791879 -0.60127988518852
 6  14.47835600860086 -0.77122785278528 -0.42386907210721
 6  14.25580551875188  1.65279005120512 -0.22840048244824
 6  15.56530581148115  1.92063399869987 -1.04232133983398
 6  16.08054767446745  3.34385689568957 -0.61967306030603
 6  17.43749814451445  3.73743265876588 -1.36027707550755
 6  17.28728771087109  3.88564412711271 -2.91386370637064
 6  17.87113053225323  5.09615774177418 -0.78319927692769
 1 -2.82414792069207  1.38047491109111  3.40576818801880
 1 -6.38784966786679  5.74005020722072  0.79067883058306
 1 -9.10959615871587  1.04378864036404 -2.89779516041604
 1 -3.64584164936494 -3.30345346204620  1.89798554065407
 1 -1.96681776777678 -1.11811942014202  2.77408957495750
 1 -3.02318164336434 -2.61803838473847  4.34320426632663
 1 -3.42853945404540 -0.85736785448545  4.72991912781278
 1 -4.57829950575058 -1.89819773777378  3.84350757335734
 1 -1.99672683828383 -3.17006005100510 -0.56702443704370
 1 -1.39457015671567 -1.73219184658466  0.25104594589459
 1 -0.76583097319732 -3.02736270857086  2.33639818091809
 1 -1.40267974657466 -4.66895373167317  1.71901093779378
 1 -1.52393104520452  3.61091577827783  3.82398477957796
 1 -2.39755740974097  4.88584822392239  4.49238490139014
 1 -2.86666659915992  3.12268546264626  4.93145012181218
 1 -5.08289214851485  6.60108809130913  2.47823993979398
 1 -10.07838182068207  2.83930108200820 -3.24700585518552
 1 -10.25937342024203  4.55926346084608 -2.82929592219222
 1 -9.54331009190919  3.95873377337734 -5.30533684428443
 1 -8.22607657365736  4.82464440504050 -4.55643532533253
 1 -8.13637391229123  3.14153846774677 -4.74626874157416
 1 -8.52316889848985 -1.11848510621062 -4.76355632463246
 1 -8.13600322822282 -2.96641370167017 -4.13672301620162
 1 -9.60713396249625 -1.74211084568457 -3.30852513761376
 1 -4.07991976797680 -3.96896271927193 -1.51134606470647
 1  2.73768171197120 -5.80783807690769  0.97158554645465
 1  2.54430775737574 -4.87730625702570 -0.51131656675668
 1  3.74386036843684 -3.97050717301730  2.32432079617962
 1  2.68929638153815 -3.13705526042604 -1.36815946604660
 1  3.89753709170917 -1.74108880948095 -1.55950416791679
 1  4.53867637503750 -3.48336019231923 -1.90918237553755
 1  5.06323019201920 -1.11704724932493  0.53498388948895
 1  5.20027238563856 -2.68352266946695  1.82942682898290
 1  6.87713693369337 -3.49771407090709  0.35316463816382
 1  6.59185802530253 -2.55473768976898 -0.98986867306731
 1  7.43363416501650 -0.63189974427443  0.49641839513951
 1  7.90801971217122 -1.84584283278328  1.72485995839584
 1  8.81475737533753 -1.78427646834683 -1.06023424212421
 1  8.92391455685569 -4.08407726762676  0.23723125292529
 1  10.44878790819082 -3.39357271197120 -0.23201078297830
 1  9.81744849244924 -3.54996072467247  1.29838080108011
 1  9.42306336723672  0.06015442584258  0.22128130253025
 1  10.31925088368837 -0.66318463776378  1.55755669296930
 1  11.92706463756376 -1.84261158285829 -0.20616992479248
 1  11.14537047724773 -0.94428606410641 -1.48634947864786
 1  11.78239825792579  1.33863693549355  0.17140993059306
 1  12.37749850855086 -0.12014073077308  1.35757493259326
 1  13.10174091639164  0.62621736453645 -1.61847805260526
 1  14.62087231443144 -0.79810282758276  0.62741783928393
 1  14.18922930943094 -1.68613179207921 -0.68596485058506
 1  15.43337319381938 -0.68271159885989 -1.27096949994999
 1  13.46822606820682  2.62874117331733 -0.18105798309831
 1  14.34760237243724  1.42147856235623  0.77111593889389
 1  16.39522824992499  1.00740620212021 -0.91031884688469
 1  15.28149294479448  2.14490274167417 -2.22236576747675
 1  15.27419888198820  3.97189039673967 -0.87116839683968
 1  16.24251388528853  3.43523948334833  0.55417787658766
 1  18.16518633543355  2.89693320182018 -1.23671805970597
 1  16.39398653545355  4.61104838373837 -2.94766904580458
 1  18.10715310521052  4.26282267546755 -3.32931036463646
 1  16.94467915321532  2.99936484768477 -3.32846339953995
 1  18.10104797879788  5.01144179717972  0.22919208490849
 1  18.76443405420542  5.50819704620462 -1.49247138823882
 1  16.88197076687669  5.82195660576058 -0.86182453455346
 1 -4.76096398099810 -7.69566066546655 -0.34267858385839
 1 -6.14325481678168 -6.95350473187319  0.72372221552155
 1 -4.44798701610161 -6.98486836303630  1.38565143354335
 8 -7.93506640194019  6.83054308570857 -0.43095652405241
 1 -9.29141252505251  6.36046346204621 -1.84868333583358

