%nproc=3
%Mem=2GB
# td=(NStates=1) iop(3/107=0140000000,3/108=0140000000) iop(3/107=0140000000,3/108=0140000000) CAM-B3LYP/6-31G(d,p) 

TD

0 1
12 -5.53711944314431  1.31320134783478  0.16441911071107
 6 -5.03835395719572 -2.12360632533253 -0.34711777687769
 6 -3.32872433233323  1.17374991649165  2.81424286248625
 6 -6.18020444274427  4.53754177727773  0.65432779397940
 6 -8.12172309030903  1.16370505290529 -2.27967206110611
 7 -4.33988107260726 -0.29133505660566  1.00489065606561
 6 -4.22242746314631 -1.60483166456646  0.68089180768077
 6 -3.22228363006301 -2.39650084868487  1.56084167276728
 6 -2.94164832023202 -1.22811348104810  2.64197098369837
 6 -3.59949674967497 -0.08430758335834  2.14358501710171
 6 -3.44349645764576 -1.70513720632063  3.98919677907791
 6 -2.00313515681568 -2.78509250245025  0.64632881898190
 6 -1.05127289018902 -3.62136722462246  1.40975485238524
 6  0.21095696309631 -4.05173004510451  0.61952011311131
 8  0.43563741764176 -3.64706439523952 -0.47811782718272
 8  0.99079076127613 -4.87155230003000  1.30452644114411
 7 -4.82969152015202  2.62451268796880  1.51507819441944
 6 -3.92935702290229  2.37775579157916  2.45318054385439
 6 -3.60764130133013  3.65210529302930  3.02199114351435
 6 -4.38041379707971  4.61268973447345  2.49524540874087
 6 -5.19301866426643  3.88127280378038  1.43360851275127
 6 -2.71898052295229  3.87883496719672  4.29101297179718
 6 -4.56965966596660  6.04338437263726  2.78244368116812
 8 -3.97121960926093  6.65841067126713  3.63281725422542
 7 -6.79179082868287  2.71972990549055 -0.72563523122312
 6 -6.89909210701070  4.01201160666067 -0.35245344844484
 6 -7.87105224542454  4.64901595839584 -1.15428823792379
 6 -8.51738477127713  3.70379951005101 -2.01954650705071
 6 -7.87969178067807  2.41994016811681 -1.62691646144614
 6 -8.25679795849585  6.03509487918792 -1.20307144174417
 6 -9.40724720312031  3.83775471377138 -3.11384393299330
 6 -8.71098007870787  3.99254061716172 -4.50689393609361
 7 -6.33945971327133 -0.11112629282928 -1.06641766216622
 6 -7.41872547924793 -0.00576148174817 -2.07065298789879
 6 -7.61339445604560 -1.30046519921992 -2.63745677027703
 6 -6.79368485218522 -2.26506027932793 -2.05046425632563
 6 -6.05885380888089 -1.42017604710471 -1.06139400410041
 6 -8.62564793949395 -1.63925371397140 -3.80988190759076
 6 -6.21574520162016 -3.60131923792379 -1.90062545644564
 8 -6.59887312791279 -4.63831880198020 -2.41557180288029
 6 -4.99050930443044 -3.60804257095710 -0.92249887068707
 6 -5.14713184078408 -4.62871807340734  0.06197334833483
 8 -5.53752793539354 -4.43736967036704  1.26078319861986
 8 -4.89552951615162 -5.79903378747875 -0.44549872127213
 6 -5.16717006620662 -6.98717230833083  0.37482501730173
 6  2.27959464106411 -5.14008026822682  0.54686266756676
 6  3.36079939003900 -4.19853135243524  0.91000228602860
 6  3.97877698139814 -3.28744856575658  0.12208458345835
 6  3.69807470477048 -3.19598278667867 -1.29095676447645
 6  5.02786699269927 -2.34800906910691  0.74370622152215
 6  6.45162076677668 -2.54871982498250  0.04484481038104
 6  7.59380850755076 -1.66563820962096  0.60462429702970
 6  8.95323393189319 -1.98715469746975 -0.03752046524652
 6  9.51006808690869 -3.41437133963396  0.17672079707971
 6  9.98201363696370 -0.86691731263126  0.38499646304630
 6  11.28051120842084 -0.92012480758076 -0.39777508810881
 6  12.16655427602760  0.24484367486749  0.07851864006401
 6  13.56750614471447  0.47250693759376 -0.60717047424742
 6  14.44210238323832 -0.74380511051105 -0.36251293649365
 6  14.21043098129813  1.79746451865187 -0.15551319371937
 6  15.49891917281728  2.08472040734073 -0.85897300500050
 6  15.97668728842884  3.53774628462846 -0.51525261826183
 6  17.28408280298030  3.96883579907991 -1.31050209800980
 6  17.04002298439844  4.16081164386439 -2.86661898189819
 6  17.83129654885488  5.26383450945095 -0.67985894289429
 1 -2.81466697259726  0.91636850045004  3.80950856205621
 1 -6.42142302520252  5.63961016321632  1.01166092879288
 1 -9.17787298639864  1.01976623812381 -2.90468584948495
 1 -3.78023508870887 -3.24681779847985  1.92688843094309
 1 -1.87481856785679 -1.41465907410741  2.66014818081808
 1 -3.02285161036104 -2.72694927582758  4.05242518841884
 1 -3.32857945804580 -0.95421753945395  4.85212134803480
 1 -4.40106178197820 -2.02972089008901  3.96687991059106
 1 -2.49136630223022 -3.35426847184718 -0.23896163076308
 1 -1.35991669136914 -1.96906553395340  0.16961780308031
 1 -0.80318470857086 -3.23963393569357  2.28477301840184
 1 -1.48498797739774 -4.58353518981898  1.53571260796080
 1 -1.57918657075708  3.48204289098910  4.25194757585759
 1 -2.73116077007701  4.95535517461746  4.45643130603060
 1 -3.09064899739974  3.43317651175118  5.34029100590059
 1 -5.35306916621662  6.72335031753175  2.07949006480648
 1 -10.17322130463046  3.07492464436444 -3.10890204480448
 1 -10.10993847674768  4.64949248374838 -2.98468146074608
 1 -9.58042380328033  3.91868976897690 -5.24888119871987
 1 -8.14224819081908  5.09008094869487 -4.56566624842484
 1 -7.82017229212921  3.20520483438344 -4.75226934163416
 1 -8.45653223482348 -0.83134639233923 -4.72543251225123
 1 -8.56546617451745 -2.75274233453345 -3.91706105000500
 1 -9.76138938803880 -1.45504213881388 -3.35405969106911
 1 -4.19796157215722 -3.87121294429443 -1.55913084318432
 1  2.62285022882288 -6.03498079117912  0.91484987288729
 1  2.15828915551555 -5.26756528292829 -0.53148858395840
 1  3.57872385478548 -4.22535265756576  1.95993435753575
 1  2.60866831873187 -3.81499305420542 -1.50484313441344
 1  3.32263960196020 -2.01538623922392 -1.34873309080908
 1  4.45328783618362 -3.48434029032903 -2.17582904020402
 1  4.74707857685769 -1.27899344394439  0.37737812891289
 1  4.97042940134013 -2.24033835103510  1.82985687198720
 1  6.69599881988199 -3.59307360686069  0.06199552125213
 1  6.32703154265427 -2.53845606160616 -1.01112079827983
 1  7.45799660126013 -0.59137569186919  0.38147690099010
 1  7.77113602380238 -1.98431668016802  1.71265873827383
 1  8.90831673127313 -1.93467150785079 -1.11191941064106
 1  9.04188635403540 -4.18188704860486 -0.24899736993699
 1  10.59725275467547 -3.57004035873587 -0.17052463436344
 1  9.38294504210421 -3.76338206680668  1.21522248524852
 1  9.67816887778778  0.10513892429243  0.14168334273427
 1  10.45450440904090 -0.60891921122112  1.43799473677368
 1  12.08930086118612 -1.78198552025202 -0.28071737953795
 1  11.07053299349935 -0.82470410591059 -1.55117596129613
 1  11.53431344944494  1.18214128592859 -0.16047325772577
 1  12.44102486118612  0.22351363466347  1.13188236333633
 1  13.38686942924292  0.51621636443644 -1.76097230203020
 1  14.46855708290829 -0.84001701900190  0.68226332383238
 1  13.93504389088909 -1.52320549944994 -0.68135438953895
 1  15.45642549904990 -0.72319564726473 -0.85076747974797
 1  13.50384963056305  2.62734103330333 -0.25046492379238
 1  14.24511212341234  1.76758317281728  0.99738856615662
 1  16.25019374647465  1.23548901040104 -0.49743755875588
 1  15.13964876037604  1.79577782918292 -1.90901443234323
 1  15.22387384948495  4.19036224392439 -0.63235451545155
 1  16.31097073097310  3.91781774117412  0.55176763556356
 1  18.06569638643865  3.23751726022602 -1.34896928482848
 1  16.08036517331733  4.96830410931093 -2.70200447934794
 1  17.90609299919992  4.75542193539354 -3.47538497209721
 1  16.78641332663266  3.27708261946195 -3.30518107130713
 1  18.29368724272427  5.13336398939894  0.28119728542854
 1  18.52024963576358  5.53588981548155 -1.32956509760976
 1  16.94970754055405  6.06156056615662 -0.62883123522352
 1 -4.77610549514952 -7.93327442684268 -0.29238355435544
 1 -6.37272776407641 -7.20475985738574  0.55086492979298
 1 -4.63031524892489 -6.94766464266427  1.32441530993099
 8 -7.80273316861686  6.89556958835884 -0.52967639603960
 1 -8.85098848264827  6.40077749344935 -2.03205167266727

