%nproc=3
%Mem=2GB
# td=(NStates=1) iop(3/107=0140000000,3/108=0140000000) iop(3/107=0140000000,3/108=0140000000) CAM-B3LYP/6-31G(d,p) 

TD

0 1
12 -5.55184091529153  1.26223625132513  0.16246891569157
 6 -5.02436255805581 -2.20735470017002 -0.27817088218822
 6 -3.40485194509451  1.13079562106211  2.77249868806881
 6 -6.17316373867387  4.53871189428943  0.60844320552055
 6 -7.97532845084509  1.12890157255726 -2.40135422932293
 7 -4.30026711121112 -0.23282920602060  1.04301446844684
 6 -4.29101432183218 -1.63866504790479  0.70044376287629
 6 -3.20519192089209 -2.31149234783478  1.47322291089109
 6 -3.02858701410141 -1.37282795249525  2.71953874047405
 6 -3.64581138113811 -0.12129128172817  2.19743040164016
 6 -3.56718882688269 -1.82485917851785  4.00940880028003
 6 -1.98825366866687 -2.53725771897190  0.66529071517152
 6 -0.97899566246625 -3.49016410431043  1.36724060096010
 6  0.17151301870187 -3.86333120522052  0.54895305640564
 8  0.34995884978498 -3.62459214801480 -0.62105212061206
 8  1.04643632583258 -4.63745889068907  1.27261324982498
 7 -4.87260581158116  2.63382361906191  1.53877056365637
 6 -3.99623371057106  2.35298331433143  2.55162038783878
 6 -3.69404994219422  3.57585766826683  3.20273921832183
 6 -4.53546930263026  4.59021748724872  2.56372225642564
 6 -5.22045140754075  3.95022969946995  1.53502865476548
 6 -2.73342196709671  3.79021610531053  4.35328919941994
 6 -4.53344604460446  6.04275430963096  2.86139157595760
 8 -3.83802628992899  6.54860969116912  3.73712768526853
 7 -6.86141779137914  2.60301823432343 -0.64802747044704
 6 -6.88918111591159  3.93430383588359 -0.37991619471947
 6 -7.84931007120712  4.58728978577858 -1.24182699179918
 6 -8.34436746954695  3.66423555365537 -2.09109366176618
 6 -7.82054586608661  2.35683385748575 -1.73568733853385
 6 -8.18208048674868  6.01750312001200 -1.19049018361836
 6 -9.38940541894189  3.75949688798880 -3.15910845944594
 6 -8.76623560426043  4.09152051515152 -4.51155440214021
 7 -6.37861362866287 -0.12688786898690 -1.14515553595360
 6 -7.34472807950795 -0.09471037663766 -2.11239716231623
 6 -7.60085320192019 -1.29055420812081 -2.86536956155616
 6 -6.70672615631563 -2.25190896419642 -2.07771698159816
 6 -5.97453537703770 -1.37992202170217 -1.12669053375338
 6 -8.48802417711771 -1.53085287388739 -3.97895881528153
 6 -6.14487811491149 -3.56767587358736 -1.95407080098010
 8 -6.65675891649165 -4.63262823292329 -2.46549679537954
 6 -5.04172442594259 -3.62257402410241 -0.87658427922792
 6 -5.21740886848685 -4.69974517611761  0.21405855685569
 8 -5.58122230483048 -4.48306423982398  1.34899201950195
 8 -5.07114707790779 -5.93313719781978 -0.46235040644064
 6 -5.30611396059606 -6.99910350145014  0.49140667546755
 6  2.29232591419142 -4.89898615881588  0.57848582988299
 6  3.42965627572757 -4.03963546284628  0.97259854565457
 6  4.06495559925993 -3.16042586348635  0.08384075907591
 6  3.73346824412441 -3.08450163856386 -1.37374504330433
 6  5.09333353935394 -2.33730799899990  0.64292614351435
 6  6.50324592929293 -2.63865881888189  0.06035636153615
 6  7.55252437913791 -1.76971861766177  0.64101793639364
 6  8.99597820632063 -1.93625960796080 -0.03699041224122
 6  9.47067414751475 -3.36305620812081  0.22298542354235
 6  9.85608104370437 -0.86657727862786  0.55858382178218
 6  11.26411956925693 -0.94803759885989 -0.17449275987599
 6  12.11714933553355  0.37101629212921  0.11904269246925
 6  13.44947434153415  0.45414510141014 -0.60222998019802
 6  14.40065823882388 -0.77821855185519 -0.21091777697770
 6  14.19187912611261  1.76301107330733 -0.29805744814481
 6  15.45991527242724  2.21905384068407 -1.05659276697670
 6  16.06464608430843  3.53418592859286 -0.72539363236324
 6  17.32516691139114  3.89294821032103 -1.33546459425943
 6  17.31214019611961  3.92009757245725 -2.88957127712771
 6  17.82947636683668  5.26974510051005 -0.84719567656766
 1 -2.75674118001800  0.94523138673867  3.80603821502150
 1 -6.46694757765777  5.63915011721172  0.76475623832383
 1 -8.71615681478148  1.13116737823782 -3.27251263216322
 1 -3.65534259945995 -3.40391350805081  1.74943068516852
 1 -1.97074816081608 -1.29139674787479  2.90165233123312
 1 -3.05081440664066 -2.92198877977798  4.18397834373437
 1 -3.46278287838784 -1.12319443714371  4.74347048294829
 1 -4.69960163596360 -1.85901381938194  3.76172939553955
 1 -2.23936110171017 -3.12597564256426 -0.36420415501550
 1 -1.39393009270927 -1.41549017641764  0.49188002930293
 1 -0.62013640374037 -2.97229720202020  2.39527406850685
 1 -1.41466094469447 -4.50082691899190  1.68139717641764
 1 -1.69278793089309  3.57993267996800  4.02019440054005
 1 -2.91836949094910  4.99134877397740  4.45726138903890
 1 -3.07169710221022  3.19644283838384  5.30173715051505
 1 -5.33824768406841  6.67308529102910  2.21475359115912
 1 -10.05171915441544  2.78809596149615 -3.23513466806681
 1 -10.11287877077708  4.55147268176818 -2.81728472107211
 1 -9.65057081798180  4.18460636063606 -5.27903421402140
 1 -8.47619158515852  5.16078801940194 -4.49151883368337
 1 -7.91288156305631  3.33086740064006 -4.74688880358036
 1 -8.18182476407641 -0.66776003370337 -4.78486845584558
 1 -8.45702533043304 -2.51683874417442 -4.27360670457046
 1 -9.41920516961696 -1.34109074367437 -3.49225351045105
 1 -4.12046382238224 -3.72342816581658 -1.39699462956296
 1  2.62603054685469 -5.94222151525152  0.94904329222922
 1  2.27922124872487 -4.75454398079808 -0.38526396149615
 1  3.58630461286129 -4.12370249254925  2.05369373347335
 1  2.72921037293729 -3.42967452235224 -1.36522917301730
 1  3.94882222022202 -1.99936463706371 -1.72377059455946
 1  4.36185869326933 -3.69850170647065 -2.14899635693569
 1  4.84661853085309 -1.28793433803380  0.33461385248525
 1  5.05343770217022 -2.34678899609961  1.83057694399440
 1  6.71981120112011 -3.67755205470547  0.12708202990299
 1  6.31695053455345 -2.61698391439144 -1.05160484668467
 1  7.13627442904290 -0.71938849314931  0.44303305660566
 1  7.75015392559256 -2.07166541504150  1.68055552795279
 1  8.89787568716872 -1.71999003970397 -1.16454467316732
 1  8.72599476487649 -4.08030689058906 -0.01186365656566
 1  10.41629465886589 -3.32387574227423 -0.36391397329733
 1  9.54824157175718 -3.56704243284328  1.41083204620462
 1  9.40957201810181  0.11052946334633  0.61678085248525
 1  9.95153411201120 -1.20697901720172  1.72444338163816
 1  11.68371030213021 -1.95344266596660  0.06147683988399
 1  10.92680862106211 -0.99756139163916 -1.23180402410241
 1  11.42519253735374  1.21691476327633 -0.20277748814881
 1  11.96702746144615  0.53044432773277  1.22001117621762
 1  13.16350709300930  0.40211495429543 -1.57900410521052
 1  14.67093732093209 -0.70484350165017  0.99413451095109
 1  13.78159854635464 -1.73347652655265 -0.42634888898890
 1  15.17124698119812 -0.66094942264226 -0.78039044204420
 1  13.49155840144014  2.53344164336434 -0.64900477777778
 1  14.34307191939194  1.77978439293929  0.80306913421342
 1  16.36400512761276  1.52438790029003 -0.84480229522952
 1  15.46395119061906  2.37242549394939 -2.14304783568357
 1  15.32310377247725  4.19647285498550 -0.96788806880688
 1  16.20224985888589  3.51091705110511  0.28551100990099
 1  18.11487130393039  3.13813732223222 -1.20117450535053
 1  16.65983312011201  4.75173245214522 -3.26008028692869
 1  18.27523991389139  4.37878427162716 -3.30697813141314
 1  17.11527621292129  2.93422833403340 -3.20950150335034
 1  17.85889376337634  5.19032968596860  0.24903406910691
 1  18.94382199299930  5.41760798729873 -0.98921106220622
 1  17.18728129792979  6.26146055615562 -1.04913326542654
 1 -4.87778566316632 -7.77955905530553 -0.13573788978898
 1 -6.38173866516652 -7.15460484188419  0.56006584988499
 1 -4.70450266766677 -6.88446832303230  1.45983885228523
 8 -7.80967386268627  6.82385241664166 -0.33138656705671
 1 -8.89815319911991  6.47076449214921 -1.97092556005601

