%nproc=3
%Mem=2GB
# td=(NStates=1) iop(3/107=0140000000,3/108=0140000000) iop(3/107=0140000000,3/108=0140000000) CAM-B3LYP/6-31G(d,p) 

TD

0 1
12 -5.60952668386839  1.17997802550255  0.17689035783578
 6 -4.98275839763976 -2.18177214191419 -0.42206527162716
 6 -3.23879533943394  1.20748328982898  2.68591002920292
 6 -6.20751717401740  4.53304132723272  0.70714307550755
 6 -8.03033395139514  1.14607328972897 -2.22995708960896
 7 -4.44428151265126 -0.22739866296630  1.05673584058406
 6 -4.23892911331133 -1.57648883028303  0.66116983548355
 6 -3.18023942564256 -2.28201940054005  1.43387897649765
 6 -2.92449660506051 -1.38929959965997  2.63017980458046
 6 -3.59888668866887 -0.05077423002300  2.11187184578458
 6 -3.50478258625863 -1.79896658925893  3.85314317371737
 6 -2.02755759905991 -2.74487848104810  0.57399158525853
 6 -0.86954471737174 -3.43799888778878  1.32527640454045
 6  0.29398526592659 -3.83086795889589  0.58220638173817
 8  0.52797665156516 -3.44480416921692 -0.56182619801980
 8  1.14258594079408 -4.50409555435544  1.28439442794279
 7 -4.88135668666867  2.53020325702570  1.49568625522552
 6 -3.92123621082108  2.44393240924092  2.48506373217322
 6 -3.64456499369937  3.72202228472847  3.12216116051605
 6 -4.53894965066507  4.59228769426943  2.55032091629163
 6 -5.25109447184718  3.94027870437044  1.52783793569357
 6 -2.79290791569157  3.90105718941894  4.36029990049005
 6 -4.57346004600460  6.11528156235624  2.81056649344935
 8 -4.02631511881188  6.63649848004801  3.72362633513351
 7 -6.92443409300930  2.64756268876888 -0.60909357705771
 6 -6.96782898069807  3.94160456595660 -0.34057226032603
 6 -7.96285142534253  4.49933098989899 -1.18951176027603
 6 -8.42140517331733  3.54321345144514 -2.00959551195120
 6 -7.76703051455146  2.39000717481748 -1.66562033183318
 6 -8.36428870757076  5.96792816251625 -1.15256639123912
 6 -9.51219769816982  3.75626656495650 -3.08994154275428
 6 -8.87446642734274  3.93686504960496 -4.50560380708071
 7 -6.39787555485549 -0.16034121432143 -1.05377639803980
 6 -7.38969257595760 -0.08158906450645 -1.99189511211121
 6 -7.55663878047805 -1.36629178187819 -2.69400242484248
 6 -6.64195967966797 -2.24010778407841 -2.12479168906891
 6 -5.90619854335434 -1.45494952445245 -1.15021288598860
 6 -8.54930030473047 -1.57100688928893 -3.76000692009201
 6 -6.20735436253625 -3.52275138113811 -1.96197159105911
 8 -6.63522676327633 -4.52993796389639 -2.51884212991299
 6 -5.11071132463246 -3.59748151485149 -0.97009363016302
 6 -5.32263939153915 -4.64721992359236  0.07870502150215
 8 -5.66722090469047 -4.47436336973697  1.20987810811081
 8 -5.12642260546055 -5.88086197029703 -0.42522669406941
 6 -5.54252760196020 -6.96621021212121  0.50154768956896
 6  2.43400008160816 -5.00444670487049  0.77353533483348
 6  3.43800711081108 -4.07944944424442  0.98620990679068
 6  4.04826393009301 -3.16136595749575  0.17724009900990
 6  3.74467936523652 -3.10057324572457 -1.29068673747375
 6  5.13164737073707 -2.28909317751775  0.65339719061906
 6  6.53724932963296 -2.61706665966597  0.08115844174417
 6  7.62971209790979 -1.82417406320632  0.66286012061206
 6  9.01181979047905 -1.86097207920792 -0.13587030023002
 6  9.46736381648165 -3.35545544804480 -0.12859973497350
 6  10.01318675427543 -0.93710433133313  0.33636159955996
 6  11.37520067736774 -0.92402519761976 -0.25018032863286
 6  12.20384800540054  0.34008319881988  0.15568635683568
 6  13.62808220232023  0.34577426432643 -0.48983874107411
 6  14.49743791679168 -0.82212294229423 -0.10932761796180
 6  14.31266120432043  1.72998777097710 -0.25594323672367
 6  15.59346862776278  2.03785572087209 -0.93894100180018
 6  16.06704632433243  3.48743125312531 -0.53890498349835
 6  17.24991938663866  3.85961487698770 -1.32315336313631
 6  17.00140912301230  4.06256181888189 -2.83022534253425
 6  17.86644006320632  5.19728785478548 -0.74246520352035
 1 -2.51203670957096  1.27959482308231  3.39175678687869
 1 -6.24741562446245  5.66937313951395  0.69699946264626
 1 -8.78399359845985  1.15322958445845 -3.11780716161616
 1 -3.52309937513751 -3.21732484918492  2.22786852895290
 1 -1.87593867986799 -1.32570017821782  2.66344851085109
 1 -3.13926325152515 -2.47607418831883  4.38561850775078
 1 -3.37863446354635 -0.90857297499750  4.34122025792579
 1 -4.86177785358536 -1.80629854785478  3.89541276387639
 1 -2.57442460806081 -3.36006905190519 -0.14045177977798
 1 -1.64646534623462 -1.77966659405941 -0.01402056075608
 1 -0.54539892999300 -3.13430340264026  2.29563410451045
 1 -1.30618009660966 -4.42844968126813  1.48809784648465
 1 -1.68055670777078  3.96380106680668  3.92154453555355
 1 -2.72585023902390  4.76574621372137  4.96217188008801
 1 -2.81824175667567  3.02183537763776  5.07274425122512
 1 -5.19589344864486  6.46338432093209  2.07313942974297
 1 -10.17058104060406  2.81154830673067 -3.03849500410041
 1 -10.17192467536754  4.57543507800780 -2.72945593819382
 1 -9.80029579047905  4.07601550155016 -5.33990030063006
 1 -8.14276824282428  4.87647958855886 -4.60048973077308
 1 -8.25013528842884  3.13398771267127 -4.66889100380038
 1 -8.58626520812081 -0.97342059975998 -4.57711768076808
 1 -8.24365399329933 -2.59287634793479 -4.00821016491649
 1 -9.49373262236224 -1.59991662626263 -3.40241452655266
 1 -4.26534831083108 -3.86154197719772 -1.60914584468447
 1  2.45882382618262 -5.83455074817482  1.34966335423542
 1  2.27757108370837 -5.28622714911491 -0.31124655975598
 1  3.64371035343534 -4.15915603790379  2.01568993309331
 1  2.72103955585558 -3.39417097199720 -1.60998364846485
 1  3.85529286728673 -1.95009971057106 -1.59197741524152
 1  4.50355286268627 -3.64251610791079 -1.91837329462946
 1  4.94144801380138 -1.31854739933993  0.58497888898890
 1  5.29741209960996 -2.41059537673767  1.75983987028703
 1  6.94411363136314 -3.65886018551855  0.29532885458546
 1  6.76979581908191 -2.41398361436144 -1.07048673487349
 1  7.24451525312531 -0.70389694399440  0.57813656695670
 1  7.83551246144614 -1.98306655515552  1.81659913231323
 1  8.79923582318232 -1.52706074677468 -1.40100831953195
 1  9.01225339073907 -4.21279013891389 -0.74152662286229
 1  10.52543557295730 -3.33701705640564 -0.54072165406541
 1  9.52295904350435 -3.69102483108311  1.01233219621962
 1  9.54816587748775  0.10632904330433  0.25250442484248
 1  10.20419937853785 -0.97032535183518  1.48631956925693
 1  11.98886081718172 -1.87114443614361  0.05547623982398
 1  11.28008394859486 -0.82588422392239 -1.48562940664066
 1  11.90178019611961  1.32736580838084 -0.10519773017302
 1  12.26367712641264  0.28640992429243  1.18576775187519
 1  13.40623136543654  0.39811455425543 -1.51314751955196
 1  14.39227945514552 -0.99838285558556  1.00410550805081
 1  13.97815820232023 -1.68353153205321 -0.71425767986799
 1  15.56210606710671 -0.77538086578658 -0.45740814381438
 1  13.60001924752475  2.62611091029103 -0.43506338363836
 1  14.63180079227923  1.52227864236424  0.87077590489049
 1  16.48742746984698  1.28593405490549 -0.65948376337634
 1  15.38975377087709  2.01468972037204 -1.94236776767677
 1  15.24688615071507  4.18788199589959 -0.72250353035304
 1  16.41969160306030  3.49199515891589  0.37669012781278
 1  18.02725254205421  3.00445395389539 -1.36590097799780
 1  16.29075621242124  4.89140641954195 -3.09553383228323
 1  17.90842323222322  4.50207660086009 -3.31355878947895
 1  16.88183286858686  3.25089000020002 -3.59618017121712
 1  18.11045891989199  4.82457311031103  0.51962112781278
 1  18.76647425822582  5.50674690119012 -1.35502764386439
 1  16.97528009780978  5.79102351245125 -0.66746509860986
 1 -5.52723060766077 -7.88565966536654 -0.21581589758976
 1 -6.74044453575357 -6.93166254765477  0.89907975127513
 1 -4.90174239163916 -6.86679655585559  1.45154802320232
 8 -7.88832172747275  6.91525155655566 -0.52263569196920
 1 -9.21402478627863  5.99708712441244 -1.90263873137314

