%nproc=3
%Mem=2GB
# td=(NStates=1) iop(3/107=0140000000,3/108=0140000000) iop(3/107=0140000000,3/108=0140000000) CAM-B3LYP/6-31G(d,p) 

TD

0 1
12 -5.57378310951095  1.22720274797480  0.22372504130413
 6 -4.99409953175318 -2.06554051875188 -0.34444750985098
 6 -3.27022848274828  1.26244878637864  2.62719415761576
 6 -6.26758318061806  4.58501652475248  0.68015037623762
 6 -7.90297121512151  1.16208489088909 -2.35600969486949
 7 -4.24203128762876 -0.22101802490249  1.02619278627863
 6 -4.25445066546655 -1.58673985538554  0.78069178767877
 6 -3.21867326902690 -2.30723192179218  1.59021461006101
 6 -2.76747090249025 -1.14497516721672  2.62356914351435
 6 -3.37398419841984  0.07667851525153  2.13030368896890
 6 -3.45377748574857 -1.57529422202220  4.01560942034203
 6 -1.97308215151515 -2.72228622182218  0.63987817391739
 6 -1.03201096399640 -3.59437452535254  1.38080195709571
 6  0.17275314271427 -4.00035490759076  0.47946610771077
 8  0.25259911381138 -3.57980766956696 -0.57214723012301
 8  1.08465014721472 -4.69419456425643  1.26599258775878
 7 -4.87820637163716  2.69308954565457  1.40708739533953
 6 -3.91909599679968  2.47152516851685  2.46791201700170
 6 -3.70959149634964  3.76999708220822  3.12375131953195
 6 -4.62075783148315  4.61517998349835  2.58336422062206
 6 -5.36081544394439  3.95512018851885  1.54032918481848
 6 -2.77730635553555  3.91014809850985  4.27805167566757
 6 -4.72939563956396  6.06032606680668  2.89817525432543
 8 -4.20762324962496  6.62085691589159  3.84763873637364
 7 -6.87306895649565  2.57052498499850 -0.58589125682568
 6 -6.90597279507951  3.96413681918192 -0.34498270137014
 6 -7.91468660886089  4.66051710851085 -1.21594440354035
 6 -8.41412444524452  3.56340547064706 -2.03381793419342
 6 -7.74987879937994  2.41022919701970 -1.68532230203020
 6 -8.24924720342034  5.94772614231423 -1.25034616921692
 6 -9.46655313371337  3.71953289158916 -3.15748829742974
 6 -8.65950493119312  3.94621598469847 -4.53821706840684
 7 -6.31574734203420 -0.20465564576458 -1.02898391879188
 6 -7.29887349404940 -0.01922282788279 -2.05523144574457
 6 -7.48823193979398 -1.36988214091409 -2.62349537413741
 6 -6.59379486318632 -2.18973274657466 -1.99616882678268
 6 -5.91149907340734 -1.43551758125813 -1.08878674337434
 6 -8.43911928662866 -1.70269005760576 -3.82123304270427
 6 -6.08351197829783 -3.55787489348935 -1.91448684258426
 8 -6.41765500610061 -4.54315928602860 -2.56193643934393
 6 -4.96721697519752 -3.56733850055006 -0.88477509830983
 6 -5.30138726632663 -4.68604380598060  0.09826697769777
 8 -5.66561074367437 -4.44494042744274  1.27827494779478
 8 -4.92277224042404 -5.84666855095510 -0.34165833723372
 6 -5.13324667386739 -6.96931052215221  0.56876441124112
 6  2.26162284388439 -5.05199145934593  0.46572455375538
 6  3.46549986008601 -4.13216471577158  0.73549483528353
 6  3.91691079477948 -3.16250607150715  0.04227660266027
 6  3.64997989528953 -3.06372956135614 -1.48840650945095
 6  5.07253145914591 -2.39702397059706  0.53749560046005
 6  6.46891249594959 -2.77159211221122 -0.01272094619462
 6  7.55785491219122 -1.79228087388739  0.59416325092509
 6  8.91050965946595 -2.03219920192019 -0.05580229342934
 6  9.53254033413341 -3.49388929142914  0.09750287528753
 6  9.95289072467247 -0.94169479037904  0.40390835423542
 6  11.32462561986199 -0.79770256535654 -0.25121043164316
 6  12.22428004860486  0.26980617111711  0.27811860006001
 6  13.45325471957196  0.51412109900990 -0.49085884308431
 6  14.38867704070407 -0.71466219621962 -0.51564825002500
 6  14.15446538473847  1.74225899809981 -0.01120876327633
 6  15.31788106900690  2.12150408570857 -0.96372348004800
 6  15.89911953165316  3.52321483148315 -0.61655274827483
 6  17.17709210391039  3.80110902640264 -1.25193624142414
 6  17.03752273437344  3.94366992969297 -2.80427274727473
 6  17.78959237843784  5.20878900490049 -0.74549550655066
 1 -2.59814532043204  1.22122898649865  3.45360297149715
 1 -6.28989987288729  5.84697089928993  0.74730449314931
 1 -8.73553875297530  1.11723598509851 -3.11578695959596
 1 -3.69197626282628 -3.28286140284028  2.05970171227123
 1 -1.78500958695870 -1.44074168236824  2.76484865086509
 1 -2.94828415361536 -2.53265984688469  4.41651159705971
 1 -3.10862746284628 -0.68761087878788  4.71296743264326
 1 -4.44589626542654 -1.79956787478748  3.94172739533953
 1 -2.19015618121812 -3.43543658865887 -0.37710544514451
 1 -1.56843754345434 -1.75764439183918  0.32589343064306
 1 -0.52535692579258 -3.19491946424642  2.21872641374137
 1 -1.50044952355235 -4.60641747804780  1.86746578327833
 1 -1.78844749684969  3.43721840854085  3.92041442254225
 1 -2.66231388538854  4.92906254535453  4.72079774267427
 1 -3.12933286578658  3.13692688678868  5.03421039783978
 1 -5.37066092539254  6.69235721822182  2.21830394619462
 1 -10.12097608010801  2.82639979187919 -3.22702385698570
 1 -10.08017550045005  4.71441897639764 -2.92463545614561
 1 -9.15430119101910  4.06394429442944 -5.48167447804781
 1 -8.26757072307231  4.93514545514551 -4.37742742454245
 1 -8.00060033493349  3.05042935683568 -4.66194030873087
 1 -8.33211979357936 -0.90924418211821 -4.60377034603460
 1 -8.33088271617162 -2.65303236353635 -4.09188853275328
 1 -9.55542879197920 -1.80269690429043 -3.38442272737274
 1 -4.04820659665967 -3.88290411341134 -1.35840077017702
 1  2.57046499029903 -6.08168546164616  0.69111749964997
 1  2.23180650725073 -4.94870339673967 -0.64277971307131
 1  3.91657764016402 -4.14906502880288  1.78837720182018
 1  2.63055050695069 -3.22617417231723 -1.89977262736274
 1  3.92626996499650 -2.21735643624362 -1.73474169166917
 1  4.17373988138814 -3.70682253855386 -2.18744020132013
 1  4.86083995299530 -1.44177972257226  0.31607199829983
 1  5.17011937033703 -2.41006532373237  1.62965685198520
 1  6.70135935593559 -3.71435573507351  0.24985430713071
 1  6.54911375087509 -2.62391460746075 -1.06979666586659
 1  7.27363816541654 -0.77681423572357  0.24382313561356
 1  7.47276618681868 -2.00459870837084  1.67676514891489
 1  8.61545744534454 -1.91912995369537 -1.07428564726473
 1  9.05443760916092 -4.26523538343834 -0.60160263046305
 1  10.59995302470247 -3.35019837453745  0.08669108720872
 1  9.33452019961996 -3.84866059465947  1.19785074807481
 1  9.39968102900290 -0.14823641324132  0.48953812821282
 1  10.16029498809881 -1.27432575187519  1.51077201450145
 1  11.94145607670767 -1.76624394609461 -0.27396670447045
 1  11.25675161536154 -0.47678931443144 -1.45182602630263
 1  11.56120613871387  1.07879095089509  0.31267405700570
 1  12.49106986568657  0.11277256055606  1.48155733083308
 1  13.08294903720372  0.62399714251425 -1.60745695049505
 1  14.56178640584059 -1.06186920422042  0.53508860636064
 1  13.99735012151215 -1.77551072997300 -0.81492774687469
 1  15.22611246774677 -0.60900422812281 -1.10326272927293
 1  13.34174341994199  2.70818911811181  0.12818294099410
 1  14.55427303950395  1.48204461896190  0.97293612091209
 1  16.25135386248625  1.37874333583358 -0.86577439243924
 1  14.94229902540254  2.07722597399740 -2.00356388728873
 1  15.11457291939194  4.33549675737574 -0.93831511151115
 1  16.19415904980498  3.66306226562656  0.45136759555956
 1  18.01842165896590  3.19317282578258 -0.87575196309631
 1  16.50827796459646  4.69465674457446 -3.27113139203920
 1  17.98495088498850  3.87624401760176 -3.15729316291629
 1  16.73597828312831  2.95501041224122 -3.33049360256026
 1  17.65411328532853  5.21146179917992  0.56961612731273
 1  18.84426203700370  5.38297452395240 -1.12676481758176
 1  17.16323889368937  6.00342475257526 -1.10639899199920
 1 -5.15994387898790 -7.89893099249925 -0.05657997399740
 1 -6.23052354365436 -6.80959034043404  0.95710555385539
 1 -4.32199441684168 -6.81731160736074  1.27727059545955
 8 -7.81107400270027  6.85239527092709 -0.47360078847885
 1 -9.16995037883788  6.27042445814581 -1.83670213771377

