%nproc=3
%Mem=2GB
# td=(NStates=1) iop(3/107=0140000000,3/108=0140000000) iop(3/107=0140000000,3/108=0140000000) CAM-B3LYP/6-31G(d,p) 

TD

0 1
12 -5.60841657285729  1.22269229692969  0.24061673047305
 6 -5.02472259405941 -2.06994095879588 -0.33486655175518
 6 -3.36137759765977  1.15025756725673  2.69605104330433
 6 -6.17983440574057  4.63130115321532  0.68570093129313
 6 -8.02521343934393  1.22410109250925 -2.33799789368937
 7 -4.27680476497650 -0.29982590569057  1.09607977497750
 6 -4.20658587898790 -1.58488967036704  0.65736945544554
 6 -3.17101850355035 -2.41079227782778  1.58254384298430
 6 -2.80570472587259 -1.35165583528353  2.68049483608361
 6 -3.52513931393139 -0.13711286388639  2.14328498709871
 6 -3.23528563656366 -1.87262395499550  4.07414527392739
 6 -1.94971981528153 -2.70853484668467  0.60676486258626
 6 -1.04389215211521 -3.74061914981498  1.32559643654365
 6  0.25350121752175 -3.96407127922792  0.55079324042404
 8  0.46961081498150 -3.60303999279928 -0.54843485888589
 8  1.02611429362936 -4.76683182798280  1.24007999649965
 7 -4.81925047604760  2.63352358905891  1.44329101570157
 6 -3.98408249544954  2.33657167316732  2.43409863566357
 6 -3.70176071327133  3.59428951145115  3.13350229462946
 6 -4.56881263696370  4.61050951645164  2.57648353255326
 6 -5.24132349474947  3.94809948644864  1.45627077897790
 6 -2.66946557145715  3.79854693839384  4.26218008850885
 6 -4.58180088008801  6.05364539873987  2.85970140694069
 8 -4.00423291059106  6.59975480568057  3.81469544204420
 7 -6.83869551915191  2.64012194469447 -0.71778444614461
 6 -6.90854305210521  4.00974137963796 -0.30175837893789
 6 -7.84722986318632  4.68165922272227 -1.30599340844084
 6 -8.34567760056006  3.71486061616162 -2.06871142354235
 6 -7.68993280478048  2.41536971107111 -1.72226599639964
 6 -8.21350362906291  6.06503787348735 -1.26430756535654
 6 -9.32242872127213  3.70534147244724 -3.14208675727573
 6 -8.59202818351835  3.81356271937194 -4.57542078877888
 7 -6.36575234253425 -0.09650483068307 -1.05838685908591
 6 -7.33559716641664  0.00197929232923 -2.09358528112811
 6 -7.59491260786079 -1.26839199189919 -2.61139416401640
 6 -6.65285076877688 -2.11841561486149 -2.04372358225823
 6 -5.92942086558656 -1.43171720122012 -1.09499736443644
 6 -8.60603597829783 -1.68415820442044 -3.63867478687869
 6 -6.11518514561456 -3.51845095109511 -2.06676207010701
 8 -6.56792003260326 -4.54131910201020 -2.59881012671267
 6 -5.06318657215722 -3.47510927762776 -0.98133475427543
 6 -5.33565069266927 -4.61520672227223  0.14039119011901
 8 -5.75653983658366 -4.47829376277628  1.26680380068007
 8 -5.12741270447045 -5.81989587368737 -0.37725189658966
 6 -5.49044239343934 -6.91837542864286  0.54112164696470
 6  2.26245292689269 -5.14803106330633  0.61862984428443
 6  3.37346065616562 -4.12624412371237  1.02296358215822
 6  3.92160126382638 -3.29004882578258  0.11902427742774
 6  3.63547844514451 -3.24593778217822 -1.29477714651465
 6  5.10406461246125 -2.33858812701270  0.62865471637164
 6  6.50206581128113 -2.58334328732873 -0.01820149424943
 6  7.58845797249725 -1.67632927872787  0.67416125072507
 6  9.04080268876888 -1.88673465546555 -0.08731544474447
 6  9.51472855295530 -3.36095599809981  0.16685981098110
 6  9.98977441304130 -0.84543516441644  0.47304526792679
 6  11.22185534283428 -0.79187198229823 -0.34687999859986
 6  12.17329495009501  0.25988517901790  0.17370815901590
 6  13.52707210131013  0.56745643254325 -0.58996875407541
 6  14.43105127812781 -0.61461219121912 -0.16499318451845
 6  14.10279021722172  1.88719349154916 -0.14165180758076
 6  15.33339262016202  2.17001893719372 -0.99965707340734
 6  15.85375499519952  3.58835134513451 -0.70860195319532
 6  17.21968636333633  3.89950886638664 -1.37259830763076
 6  17.12312129422942  4.00443600630063 -2.92724504450445
 6  17.92481590079008  5.16817494349435 -0.69352030903090
 1 -2.66950245614561  1.12597946154615  3.54894250545055
 1 -6.34257514041404  5.82863906610661  0.72529229192919
 1 -8.71646684578458  1.24863912541254 -3.31996737763776
 1 -3.64655172037204 -3.30569368606861  2.01528727082708
 1 -1.79273035903590 -1.17902551075107  2.38661082708271
 1 -2.82600192539254 -2.79582616351635  4.15372531843184
 1 -3.02301890199020 -1.17396951465147  4.82555869176918
 1 -4.40560223602360 -1.98462638063806  4.08424164676468
 1 -2.28691585718572 -3.22672571757176 -0.31491922652265
 1 -1.43927462716272 -1.78285691309131  0.29169001030103
 1 -0.65528991909191 -3.34852482478248  2.14385892699270
 1 -1.53051252985299 -4.69769660596060  1.34324336103610
 1 -1.68442709480948  3.55710039673967  3.98705108620862
 1 -2.80763841784178  4.97471711081108  4.54466012891289
 1 -3.11649158165817  3.21627482158216  5.23349032583258
 1 -5.47213107240724  6.60123810631063  2.15189730553055
 1 -9.99392337483748  2.84160131203120 -3.17808896349635
 1 -9.99018650155016  4.74367190169017 -3.10082307490749
 1 -9.28501426232623  3.94946284628463 -5.43633994459446
 1 -7.98572253825383  4.67168910951095 -4.45490517231723
 1 -8.13215349024902  2.82953726762676 -4.67990210491049
 1 -8.36901348294830 -1.22251550925093 -4.62387235623562
 1 -8.59976960486049 -2.69620668096810 -3.96934627852785
 1 -9.75595884498450 -1.41307794239424 -3.35866015111511
 1 -4.10395217121712 -3.72172799579958 -1.34118904900490
 1  2.68558650245024 -6.08426571967197  1.10647903580358
 1  2.06340966756676 -5.42764129052905 -0.38300373547355
 1  3.58704468686869 -4.35484560686069  1.97404576867687
 1  2.68985643754375 -3.56942849774978 -1.51767441754175
 1  3.70171750975097 -2.27784248484848 -1.66992521002100
 1  4.29875238263826 -3.84913676997700 -1.95398685598560
 1  4.82490635963596 -1.35073061766177  0.38158854995500
 1  5.17227958635864 -2.44615893309331  1.75695958225823
 1  6.61442066206621 -3.64316861636164  0.28254757645765
 1  6.50035887538754 -2.55326754275428 -1.13923360956096
 1  7.26239704130413 -0.65857241154115  0.59352810611061
 1  7.78173708390839 -1.91228947744774  1.68661613401340
 1  8.87032293189319 -1.77381542224222 -1.07996621532153
 1  8.87530969636964 -4.15065392529253 -0.02786525672567
 1  10.61700472987299 -3.50842419711971 -0.23004058595860
 1  9.64061080868087 -3.43561929052905  1.16473743674367
 1  9.57256831773177  0.41396980738074  0.40747992239224
 1  10.14592355095509 -0.98992731203120  1.49108004530453
 1  11.70493242434243 -1.80585790749075 -0.47959726752675
 1  10.97554349454946 -0.62111374687469 -1.37201804550455
 1  11.51643166126613  1.23158623042304  0.06667945754575
 1  12.37698845754575 -0.28005672237224  1.25570474557456
 1  13.37279802210221  0.41256599939994 -1.60292649744975
 1  14.86199642684269 -0.54731774907491  0.93529862736274
 1  14.03822420892089 -1.58217139603960 -0.35716197029703
 1  15.30803065956596 -0.68314164186419 -0.77460986398640
 1  13.37688693429343  2.67992629182918 -0.42658253555356
 1  14.26863447564756  1.86898331283128  0.91011983928393
 1  16.15723445054505  1.46869233073307 -0.92311012601260
 1  15.00419521502150  2.08798705010501 -2.10556408730873
 1  15.22912437453745  4.33263647134713 -1.10246152615262
 1  15.91253088698870  3.77350330973097  0.56741920072007
 1  17.86259607640764  2.90779428792879 -1.18366275417542
 1  16.33499063586359  4.78777605650565 -3.20198447734774
 1  18.19061145104510  4.09713610681068 -3.32915034863486
 1  16.64995968126813  3.04514942614261 -3.32040259345935
 1  18.07879575357536  4.92091274427443  0.24268343404340
 1  19.01272888368837  5.10474670117012 -1.08226036713671
 1  17.38563113291329  6.15456986708671 -0.76363471557156
 1 -5.19044692929293 -7.88380948034804 -0.25873018901890
 1 -6.59682017331733 -7.02882226362636  0.51541138443844
 1 -5.14683690109011 -6.83848372457246  1.48817168556856
 8 -7.78024091939194  6.84498452985298 -0.41368479687969
 1 -9.06205958975898  6.54060147584759 -1.96170463796380

