%nproc=3
%Mem=2GB
# td=(NStates=1) iop(3/107=0140000000,3/108=0140000000) iop(3/107=0140000000,3/108=0140000000) CAM-B3LYP/6-31G(d,p) 

TD

0 1
12 -5.54505023622362  1.22366239393939  0.15528819761976
 6 -5.09093921572157 -2.16426039073907 -0.30544360946095
 6 -3.42610407030703  1.11566410791079  2.68785022322232
 6 -6.27330375267527  4.63397142024202  0.72151451265127
 6 -7.95300621862186  1.15292397479748 -2.25804989888989
 7 -4.33935101960196 -0.31769769286929  1.03051321832183
 6 -4.29443466386639 -1.63602478387839  0.62756647514752
 6 -3.21351275297530 -2.37742894149415  1.35072066066607
 6 -2.83032718811881 -1.34772544224422  2.53881066766677
 6 -3.60168696869687 -0.07068622122212  2.05162582118212
 6 -3.49527163516352 -1.77345403800380  3.97689554895490
 6 -1.89586442974297 -2.70048404160416  0.62926711281128
 6 -0.99243700660066 -3.47925301320132  1.38956283318332
 6  0.29776564396440 -3.82231710381038  0.51888004910491
 8  0.49774362826283 -3.45768545734573 -0.56182619801980
 8  1.16861854405441 -4.57767291209121  1.21363735223522
 7 -4.94385293629363  2.63380361706171  1.40687737433743
 6 -4.00631471867187  2.38543655965597  2.36512173797380
 6 -3.72471300850085  3.60710079257926  3.12328127252725
 6 -4.47577333303330  4.57742620812081  2.58199408360836
 6 -5.25308467086709  4.00598527502750  1.52292744464446
 6 -2.71848047294729  3.79205628932893  4.31638550905090
 6 -4.41683438343834  6.08605864006401  2.90309574637464
 8 -3.98501098839884  6.55448027822782  3.88143211571157
 7 -6.89721137073707  2.72154008650865 -0.70346301400140
 6 -6.95613781158116  4.01241164666467 -0.39461766486649
 6 -7.92769790999100  4.68381943874387 -1.18441125022502
 6 -8.40452348514851  3.70772990309031 -2.09194374677468
 6 -7.80161397289729  2.45529370347035 -1.67501127092709
 6 -8.46856913561356  5.95501687138714 -1.13882501710171
 6 -9.40321680008001  3.79178011631163 -3.12916546514651
 6 -8.71060004070407  3.96225758885889 -4.57475072177218
 7 -6.40860662796280 -0.20759593979398 -1.10527154755476
 6 -7.28249185588559 -0.13178408400840 -2.13277920052005
 6 -7.51769488608861 -1.42290744344434 -2.70317334193419
 6 -6.70780626432643 -2.31229500280028 -2.08530774067407
 6 -6.00569849334934 -1.51352538203820 -1.08084594929493
 6 -8.53086846154616 -1.60808059665967 -3.76843776317632
 6 -6.25982961006101 -3.66659576557656 -1.93765915981598
 8 -6.69084232483248 -4.60983595369537 -2.52604284998500
 6 -5.08088834233423 -3.57841960866087 -0.82565918671867
 6 -5.31746887448745 -4.62372757435744  0.14256140714071
 8 -5.68268245084508 -4.47234316771677  1.30364748504850
 8 -5.03797376057606 -5.81200508460846 -0.26055022642264
 6 -5.32822617181718 -6.96657024812481  0.65114264906491
 6  2.38040472207221 -5.03665992619262  0.44958293959396
 6  3.41116442654265 -4.09141064036404  0.81379266506651
 6  4.02783188688869 -3.17708752965297  0.04816719171917
 6  3.72526742404240 -3.00425361376138 -1.43601126992699
 6  5.18373257925793 -2.38322259045905  0.66044789568957
 6  6.55302090679068 -2.57327228022802  0.10852117801780
 6  7.68220734743474 -1.68740038583858  0.61248508310831
 6  8.96120472897290 -1.97842382438244 -0.08179489268927
 6  9.45111219131913 -3.34786468896890  0.15847897289729
 6  9.91424686028603 -0.81734235513551  0.54434239763976
 6  11.29748290559056 -0.92006480158016 -0.18187349794980
 6  12.21124874547455  0.22278146864686  0.25591637983798
 6  13.56123551765176  0.43520320722072 -0.59810956815682
 6  14.41794996799680 -0.76090682068207 -0.31611829702970
 6  14.15112505070507  1.82468724092409 -0.17196483888389
 6  15.38564784568457  2.17684962026203 -0.97563467116712
 6  15.98319793949395  3.48866137613761 -0.64163525652565
 6  17.42322671737174  3.82615153065307 -1.31829287708771
 6  17.17874685678568  3.92272783548355 -2.80197251725173
 6  17.89571299049905  5.13244137013701 -0.75290624762476
 1 -2.67131263716372  1.14720158375837  3.48291590279028
 1 -6.64521540444044  5.69882608480848  0.83259302200220
 1 -8.78222342144214  1.34452871437144 -2.94346972787279
 1 -3.66037310251025 -3.33676679337934  1.80610635273527
 1 -1.68522960896090 -1.16078368656866  2.67919008500850
 1 -3.05755508070807 -2.56475305620562  4.39211915781578
 1 -3.25058165826583 -0.97467958565857  4.82950908680868
 1 -4.55304698049805 -2.04545246324632  3.89551277387739
 1 -2.38664583018302 -3.54870791579158 -0.23239097369737
 1 -1.45115581528153 -1.77183581098110  0.17678852015202
 1 -0.62049643974397 -2.87613758605861  2.36128066916692
 1 -1.45765524412441 -4.43022985928593  1.74489352605260
 1 -1.72925157725773  3.50233492019202  4.07160954205420
 1 -2.74053170717072  4.84270390949095  4.73087875077508
 1 -3.19680961346135  3.08915210931093  5.11080805760576
 1 -4.84665852515251  6.84880286278628  2.19753186898690
 1 -10.04282826532653  3.04096124802480 -3.21491264586459
 1 -9.88713619651965  4.54814234873487 -2.88862185478548
 1 -9.18510427132713  4.29684758475848 -5.57396370697070
 1 -7.99184315031503  4.85589753035303 -4.56677635943594
 1 -8.18100837573757  3.24511882578258 -4.84233834853485
 1 -8.17783436503650 -1.16473973167317 -4.71818178717872
 1 -8.76547617551755 -2.74461152145214 -4.17462680658066
 1 -9.52298554765476 -1.30209684428443 -3.47452173727373
 1 -3.98435021102110 -3.73646946994700 -1.46126105620562
 1  2.40079802360236 -5.88879617271727  0.97064545244525
 1  2.10275360196020 -5.07803633003300 -0.37526296139614
 1  3.74202018441844 -4.14227434973497  1.76596496059606
 1  2.66833428532853 -3.24137569246925 -1.46565921602160
 1  3.84834217221722 -1.96172087268727 -1.51078929642964
 1  4.48463097049705 -3.31547340364036 -2.16181763906391
 1  4.77211108010801 -1.15928147274727  0.45065545664566
 1  5.18516087448745 -2.33272758995900  1.78577246354635
 1  6.88955817581758 -3.60766506600660  0.39858918061806
 1  6.44909374887489 -2.53450566656666 -1.00495018121812
 1  7.25145594719472 -0.60939749404941  0.60451920522052
 1  7.86632554275427 -1.82907115561556  1.68593606600660
 1  8.97834373397340 -1.79520756145615 -1.18599681838184
 1  8.77346951235124 -4.14684354425443 -0.34013648384838
 1  10.31396442584258 -3.52467582228223 -0.39365694759476
 1  9.58695544314431 -3.64948067666767  1.18400936393639
 1  9.47061812271227  0.17836624702470  0.21909108350835
 1  9.77118607720772 -0.90615893519352  1.73378431573157
 1  11.76411834293429 -2.09000632233223 -0.04796410421042
 1  10.96472241244124 -0.83694533003300 -1.25380622432243
 1  11.74799481758176  1.08043111491149  0.43661645124512
 1  12.57116787548755 -0.06983570027003  1.28942811791179
 1  13.09882062436244  0.39662440524052 -1.64268047284729
 1  14.83433366056606 -0.70746376367637  0.54758985648565
 1  13.63820420692069 -1.56175935483548 -0.49551580568057
 1  15.21775163166317 -0.74326765446545 -1.11051345434543
 1  13.26186543214321  2.65008330753075 -0.14299417671767
 1  14.28370598279828  1.76888330283028  0.93644247154715
 1  16.16843557065706  1.27488294979498 -0.68792660766077
 1  15.38421321682168  2.02674092549255 -1.93599713061306
 1  15.08026948904890  4.24720792849285 -1.08043932393239
 1  16.08696833073307  3.56842280168017  0.36641910071007
 1  18.27850766756676  2.98413192169217 -1.28063245114511
 1  16.41713885068507  4.87398467736774 -3.10277455635564
 1  18.21472386228623  4.04970136333633 -3.31227866146615
 1  16.78538322362236  3.17687259845985 -3.07638819201920
 1  18.10466834083408  5.26591724472447  0.26258542424242
 1  18.83274088488849  5.61028725522552 -1.38310045114511
 1  17.12039460926093  5.93973838393839 -1.00394874697470
 1 -5.28992687728773 -7.82631373077308  0.02904858885889
 1 -6.40128061936194 -6.79752913431343  1.09566941024102
 1 -4.66013823122312 -7.01106098229823  1.51971483988399
 8 -7.90192308760876  6.81960199159916 -0.40427385578558
 1 -9.06064944874487  6.35187260296030 -1.88378684618462

