%nproc=3
%Mem=2GB
# td=(NStates=1) iop(3/107=0140000000,3/108=0140000000) iop(3/107=0140000000,3/108=0140000000) CAM-B3LYP/6-31G(d,p) 

TD

0 1
12 -5.66223195439544  1.34256428412841  0.23089575837584
 6 -4.95991611341134 -2.13806777147715 -0.34924798989899
 6 -3.38317977787779  1.22666520802080  2.66699813801380
 6 -6.41612803510351  4.54394241734173  0.72883524472447
 6 -8.01354227222722  1.18893757615762 -2.46706079998000
 7 -4.40265735023502 -0.29266518961896  1.04544471147115
 6 -4.22422764316432 -1.62299348074807  0.65167888638864
 6 -3.25084648634863 -2.33992519111911  1.51012660126013
 6 -2.94708886428643 -1.22578324802480  2.65457224382438
 6 -3.61387818781878 -0.01754090669067  2.15530618921892
 6 -3.52543465146515 -1.63672036463646  4.06158401780178
 6 -2.00084492779278 -2.77533152635264  0.69543372947295
 6 -1.03630139303930 -3.65374046194619  1.47806168306831
 6  0.23843971137114 -3.86490136223622  0.67390555165517
 8  0.50184403830383 -3.46245593439344 -0.46511652705271
 8  1.07379906210621 -4.76725186998700  1.30993698219822
 7 -4.96545509650965  2.65481571827183  1.50641732833283
 6 -3.98537262446245  2.48000601660166  2.46255148094809
 6 -3.68100863806381  3.72901298379838  3.20771971637164
 6 -4.56274202990299  4.60573903940394  2.69045492969297
 6 -5.26886624902490  4.01694637113711  1.44597974987499
 6 -2.73216184108411  3.84972205590559  4.33003687418742
 6 -4.59160186018602  6.12360239443944  3.03486892369237
 8 -3.81823431073107  6.58030286048605  3.91798577107711
 7 -6.94420607020702  2.64727265976598 -0.74061672937294
 6 -7.11161335913591  3.98524893039304 -0.31715991909191
 6 -7.99611475167517  4.63668472527253 -1.16771958105811
 6 -8.51479451225122  3.61178030813081 -2.07790234263426
 6 -7.85830964246425  2.41690986508651 -1.78915268506851
 6 -8.43726600530053  5.98026939663966 -1.26374750935093
 6 -9.44734121252125  3.73519445774577 -3.24865741434143
 6 -8.73807278797880  3.75532689578958 -4.68301154785479
 7 -6.32437820512051 -0.06481166136614 -1.10563158355836
 6 -7.28353195989599  0.00803989838984 -2.04821074367437
 6 -7.47880099669967 -1.27580273297330 -2.77877090169017
 6 -6.70482596629663 -2.18404217751775 -2.04398360826083
 6 -5.98463638713871 -1.38896292579258 -1.05882374707471
 6 -8.50653602830283 -1.62133192179218 -3.89558047744774
 6 -6.15279890699070 -3.56517562356236 -1.96493188708871
 8 -6.59624286488649 -4.53665863596360 -2.50578082378238
 6 -5.00026027952795 -3.58878064476448 -0.93382000280028
 6 -5.24164129172917 -4.62388759035904  0.05853300430043
 8 -5.73239742234223 -4.48470440384038  1.22038915921592
 8 -4.94812477567757 -5.80111399549955 -0.41570574197420
 6 -5.27486083528353 -6.98348193929393  0.38269580438044
 6  2.30299698129813 -4.98922518271827  0.66560454175418
 6  3.35579888998900 -3.98104960426043  0.99196048184818
 6  4.00522962666267 -3.18027784868487  0.14656703170317
 6  3.76295119241924 -3.23769695809581 -1.37510517931793
 6  5.09520372637264 -2.36552082028203  0.57084893579358
 6  6.57408301300130 -2.83794874787479  0.03736406230623
 6  7.67274640134013 -1.96717836363636  0.47021085568557
 6  9.05544415291529 -2.12325830783078 -0.07473418661866
 6  9.70031711181118 -3.36824672717272  0.11189431443144
 6  9.94671010661066 -0.86386700760076  0.29639760316032
 6  11.35801895919592 -0.88152094719472 -0.26185149574958
 6  12.20144776537654  0.31473066356636  0.12427321552155
 6  13.53906330043004  0.35675536243624 -0.60520027722772
 6  14.44301247424742 -0.81254198419842 -0.26896358155816
 6  14.31347128532853  1.68469324152415 -0.13930157255726
 6  15.52489177007701  2.16386832213221 -0.89618672637264
 6  16.11533115281528  3.54252676267627 -0.59749084208421
 6  17.39747414211421  3.94245316081608 -1.35611665946595
 6  17.17908689078908  3.97946350905090 -2.89052137213721
 6  17.99782320152015  5.30544867086709 -0.84267522452245
 1 -2.75707121302130  1.16524338793879  3.53671128232823
 1 -6.62688357125713  5.66636283848385  0.85748551125113
 1 -8.80366556565657  1.26169043054305 -3.18638401930193
 1 -3.54361142634263 -3.26880999769977  2.22340808290829
 1 -1.82643372937294 -0.92109971817182  2.83937610361036
 1 -2.72700202540254 -2.35596217711771  4.51321126702670
 1 -3.49257585768577 -0.85187730543054  4.61103723962396
 1 -4.59699137493749 -2.02613053105310  3.89398262086209
 1 -2.50290745634563 -3.26442948794879 -0.18150588518852
 1 -1.31489218891889 -1.93312193959396  0.23064390569057
 1 -0.56757114721472 -3.25477544984498  2.25166970807081
 1 -1.39558903750375 -4.63183001930193  1.78087712441244
 1 -1.67966661876188  3.65748043474347  3.99159154025403
 1 -2.63040069406941  4.79119875897590  4.73491915481548
 1 -3.17481741424142  3.15857905200520  5.16008298509851
 1 -5.29889374867487  6.91822980548055  2.59349146494649
 1 -9.99301328382838  2.83811096299630 -3.32400355495550
 1 -10.07859534243424  4.65511304580458 -3.11714470707071
 1 -9.55743150405040  3.77678557855786 -5.31738804940494
 1 -8.00521448744874  4.42915485608561 -4.81820150195019
 1 -8.18732900780078  2.71646596049605 -4.84135825052505
 1 -8.33472005360536 -0.88027128482848 -4.64986495549555
 1 -8.09800942884288 -2.54765182548255 -4.05325466936694
 1 -9.36522977207721 -1.49364599919992 -3.62383666876688
 1 -4.13905568156816 -3.75234105710571 -1.57571250135013
 1  2.65813375717572 -5.82892018511851  0.97406579447945
 1  2.24446777337734 -5.15914444084408 -0.48690412551255
 1  3.69591557395740 -3.81798192049205  2.05854421852185
 1  2.79585703760376 -3.59207076197620 -1.84684733483348
 1  3.96658399639964 -2.23773847444744 -1.83752196969697
 1  4.54961746914691 -4.11001285758576 -1.71772322962296
 1  4.93601747074707 -1.36515205980598  0.20746113721372
 1  5.30100245864586 -2.20666498369837  1.66542042834283
 1  6.55723494349435 -3.94216851635164  0.31977129882988
 1  6.60758959845985 -2.74535675167517 -1.08314800100010
 1  7.47953875547555 -0.88536509080908  0.50525927922792
 1  7.72843175337534 -2.04210245874587  1.60956842924292
 1  8.98653455305531 -1.85458349904991 -1.13221143984398
 1  9.14347651305131 -4.28508736863686 -0.13824629482948
 1  10.73804683408341 -3.60647400210021 -0.39949753165317
 1  9.93352009960996 -3.59445517411741  1.03420438343834
 1  9.44153521442144  0.12449085948595  0.02538171257126
 1  9.93464242284228 -0.74489280858086  1.39853079037904
 1  11.86841877297730 -1.94135145684568 -0.08383769156916
 1  11.36264220442044 -0.93952558805881 -1.46343718741874
 1  11.39438945704570  1.01507457925793  0.05674846444644
 1  12.55722648134813  0.25596687998800  1.38723789888989
 1  13.51590233253325  0.49319406220622 -1.67703390819082
 1  14.66503673087309 -0.78657167446745  0.79359445694569
 1  13.88662904940494 -1.80577375627563 -0.52148840294029
 1  15.28917877437744 -0.67251057875788 -0.79839224222422
 1  13.52506175177518  2.49353765296530 -0.04339421672167
 1  14.52537014921492  1.55548196269627  0.93337216451645
 1  16.30143887098710  1.43249871137114 -0.64095191019102
 1  15.26366116161616  2.08642689408941 -1.88758228912891
 1  15.36172763486348  4.21211441914191 -0.77066834683468
 1  16.31947158105810  3.66885284468447  0.51988444724472
 1  18.14253407020702  3.24958846734673 -1.22423681158116
 1  16.52869000580058  4.79157643654365 -3.27714199309931
 1  18.25571796169617  4.10555694889489 -3.30066750035003
 1  16.84230891619162  2.92698760996100 -3.08780933413341
 1  18.10352822682268  5.16717737073707  0.23933309900990
 1  19.22556016681668  5.17193341984198 -1.33038517961796
 1  17.40928349814982  6.25375978607861 -0.91409976207621
 1 -4.51153903850385 -7.73127422682268  0.00660634463446
 1 -6.36275676697670 -7.34222360376038  0.15683552685269
 1 -5.25413763116312 -6.70234011021102  1.60671353975397
 8 -8.25960885618562  6.80529056045605 -0.30577400580058
 1 -9.08009139293929  6.34962237793779 -2.11819028652865

