%nproc=3
%Mem=2GB
# td=(NStates=1) iop(3/107=0140000000,3/108=0140000000) iop(3/107=0140000000,3/108=0140000000) CAM-B3LYP/6-31G(d,p) 

TD

0 1
12 -5.65594132533253  1.17002703040304  0.22203487228723
 6 -5.07679780158016 -2.18624258895890 -0.45123818891889
 6 -3.48685014491449  1.12401494299430  2.79175061326133
 6 -6.31767819011901  4.48784680778078  0.77308967016702
 6 -7.97057797579758  1.13694237663766 -2.38334242814281
 7 -4.49449653415342 -0.32585850895090  1.10942110911091
 6 -4.33970919131913 -1.63943512491249  0.61419513801380
 6 -3.24836623832383 -2.31418261686169  1.46602219081908
 6 -3.10197435283528 -1.34050472017202  2.74551133773377
 6 -3.78828562856286 -0.13254240684068  2.20762142074207
 6 -3.98964107210721 -1.85163185578558  3.99146700610061
 6 -1.90596543984398 -2.61171516471647  0.67778196429643
 6 -0.88461622452245 -3.43560864876488  1.49100297719772
 6  0.30135600300030 -3.76825169726973  0.58657681878188
 8  0.49020287418742 -3.26952664146415 -0.40292030743074
 8  1.08565024722472 -4.66668181298130  1.27125311381138
 7 -4.98299685068507  2.61082131883188  1.45855254185419
 6 -4.05724981218122  2.44710272627263  2.52539776557656
 6 -3.75616615381538  3.57113719621962  3.20975992039204
 6 -4.38996475217522  4.59854832033203  2.51139702390239
 6 -5.29903926632663  3.95297997449745  1.57671282318232
 6 -2.73732235713571  3.74205128882888  4.33778764926493
 6 -4.58564126412641  6.00456049024903  2.93421885868587
 8 -4.00447293459346  6.58928375857586  3.83076704920492
 7 -6.88776042564256  2.62114004650465 -0.76652932063206
 6 -6.92898509630963  3.88469887538754 -0.36280448354836
 6 -7.95208034823482  4.60378143494349 -1.17117992709271
 6 -8.43641667446745  3.66021515161516 -2.01151570397040
 6 -7.68260207170717  2.43883205730573 -1.81239500930093
 6 -8.31706398509851  5.91554292399240 -1.11472260686069
 6 -9.39454593299330  3.71135207350735 -3.14937748634864
 6 -8.71949092979298  4.03108447154715 -4.62768601530153
 7 -6.43973974127413 -0.13848902910291 -1.05102612301230
 6 -7.34775838253825 -0.00943184878488 -2.11075699829983
 6 -7.69899301590159 -1.26348150085009 -2.71404442904290
 6 -6.69371485518552 -2.13376715001500 -2.12654186408641
 6 -6.04351227472747 -1.36235026452645 -1.15583344804480
 6 -8.55889126382638 -1.65670545914591 -3.72231315071507
 6 -6.33475710281028 -3.53574268026803 -2.08870426432643
 8 -6.49361260186019 -4.56100107020702 -2.74622486818682
 6 -5.12587284078408 -3.58901066776678 -0.91484810561056
 6 -5.45764289188919 -4.65798099969997  0.09829698069807
 8 -5.88470265286529 -4.39970590399040  1.17271439173917
 8 -5.07638760196020 -5.88364224832483 -0.36974114551455
 6 -5.48268161736174 -6.97117070817082  0.58278581338134
 6  2.33262994459446 -5.01609786998700  0.60176815811581
 6  3.45729904000400 -4.06055755505550  0.95185647144714
 6  4.15349445314531 -3.24970479137914  0.20420279527953
 6  3.82485738303830 -3.11597478587859 -1.27761543034303
 6  5.30443464946495 -2.41025529372937  0.64943679457946
 6  6.70183578827883 -2.71374632763276  0.03271359725973
 6  7.73777290399040 -1.84774642044204  0.58794262886289
 6  9.08769737823782 -1.99849583158316  0.01773506030603
 6  9.82140922102210 -3.42040194269427  0.19009213421342
 6  9.95619105470547 -0.83470409130913  0.49364732813281
 6  11.38248140544054 -0.79492228732873 -0.29473478407841
 6  12.29242686328633  0.31815100560056  0.16262705090509
 6  13.62930232433243  0.46089577647765 -0.41072082928293
 6  14.59638781178118 -0.72018274827483 -0.16765345054505
 6  14.32161209940994  1.83059783198320 -0.16143378577858
 6  15.56355563646365  2.10853278857886 -0.99468657635764
 6  16.08199781948195  3.60523303330333 -0.77283837683768
 6  17.46796119081908  3.87306622212221 -1.51007205500550
 6  17.20864984708471  3.93951951465146 -2.96252857285729
 6  17.98616203540354  5.18765689168917 -0.99178013501350
 1 -3.04756026192619  1.29066593019302  3.71804941614161
 1 -6.59530041294129  5.45984218641864  0.73897366006601
 1 -8.68982418151815  1.14046830833083 -3.26981236213621
 1 -3.58408547374738 -3.32496561326133  1.81642738483848
 1 -1.96264735073507 -1.33382099029903  2.92516468246825
 1 -3.50769009420942 -2.65182176307631  4.34770471637164
 1 -3.91071767186719 -1.00272238993899  4.67847398329833
 1 -5.08316999279928 -1.89571748974898  3.94465768836884
 1 -2.20208737433743 -3.16484952995300 -0.23566130073007
 1 -1.47942864256426 -1.65578420582058  0.22018285958596
 1 -0.55175956605661 -2.71700167246725  2.38518305940594
 1 -1.27026650525053 -4.28548538483848  1.73077211391139
 1 -1.79011766386639  3.63272795949595  3.81780416151615
 1 -2.90130778477848  4.60095973507351  4.93432909580958
 1 -2.74886481898190  2.83861705580558  5.02412938973897
 1 -5.43523738303830  6.56948493099310  2.51654377017702
 1 -10.19967394989499  3.08136528842884 -3.01055220982098
 1 -10.04763224612461  4.65986352085208 -2.89272226482648
 1 -9.44171993289329  4.19184708470847 -5.42895920652065
 1 -8.06543050905090  4.94197613821382 -4.43193287508751
 1 -7.84022429732973  3.36467078097810 -4.79120323502350
 1 -8.15138171977198 -1.30050330803080 -4.88939890889089
 1 -8.46459608750875 -2.63057011731173 -3.96171551545155
 1 -9.71508475757576 -1.48541517611761 -3.62794707980798
 1 -4.27350912691269 -4.01834765776578 -1.29118404850485
 1  2.68332627642764 -6.11573886698670  0.95282367026703
 1  2.38365169176918 -4.98036656305631 -0.39017445254525
 1  3.50032601500150 -4.21906202850285  2.11689005310531
 1  2.70042749464946 -3.20125168006801 -1.45955860596060
 1  3.95619295729573 -2.16450115071507 -1.79722794029403
 1  4.13551605900590 -3.80153200950095 -2.23116457375738
 1  4.98141201020102 -1.36520206480648  0.55591598269827
 1  5.54492685108511 -2.43803812101210  1.77673155945595
 1  6.74745396539654 -3.86498079757976  0.07095641734173
 1  6.60262910241024 -2.50647286328633 -0.84640432663266
 1  7.51156195779578 -0.82652920722072  0.63383213651365
 1  7.93379228942894 -2.06801505000500  1.61142861526153
 1  9.09313521312131 -1.98699674037404 -1.06232445114511
 1  9.10881304670467 -4.43932279217922  0.12324985478548
 1  10.74046707610761 -3.45468882358236 -0.49637721962196
 1  10.20162691029103 -3.42530825942594  1.42452341534153
 1  9.67937899879988  0.10069848024803  0.13055222962296
 1  10.20885984458446 -0.74505282458246  1.60347128442844
 1  11.99190112121212 -1.57231455315532 -0.23515282308231
 1  11.08494443464346 -0.83179481498150 -1.37276812051205
 1  11.70898091619162  1.29952302410241  0.04795758535854
 1  12.55315607430743  0.28988027132713  1.21443061816182
 1  13.62950369266927  0.42293703650365 -1.68477468226823
 1  15.04321454865487 -0.74242726002600  0.87322241974197
 1  14.07480786728673 -1.75412859175918 -0.55314156825683
 1  15.46938679517952 -0.69707303500350 -0.78719112211221
 1  13.51738098369837  2.59902820202020 -0.09848972627263
 1  14.39770738293829  1.80328674317432  0.94528335563556
 1  16.44854358145814  1.30455591709171 -0.88801661666167
 1  15.34592938843884  2.12310056145615 -2.19361289218922
 1  15.29864132623262  4.51651485918592 -0.96079735973597
 1  16.31879151305130  3.62805876527653  0.17661011981198
 1  18.11264108090809  2.98960246874687 -1.18984337223722
 1  16.37800493729373  4.56225350425043 -3.16914119301930
 1  18.16676906680668  4.14162055525552 -3.49248668226823
 1  16.92880756605661  2.99187409860986 -3.27057761096110
 1  18.21750962496250  4.96097675067507  0.06332549824982
 1  19.05205281608161  5.40151637813781 -1.44361650275028
 1  17.38774134393439  6.12286669676968 -1.20701905400540
 1 -5.12678056265627 -7.80762186158616  0.21628731273127
 1 -6.62030252155216 -6.84519390079008  0.64080392369237
 1 -4.97747996539654 -6.60845072127213  1.54338720712071
 8 -7.80313320862086  6.81420145154515 -0.41406483488349
 1 -9.17514089788979  6.26333374907491 -1.74337280478048

