%nproc=3
%Mem=2GB
# td=(NStates=1) iop(3/107=0140000000,3/108=0140000000) iop(3/107=0140000000,3/108=0140000000) CAM-B3LYP/6-31G(d,p) 

TD

0 1
12 -5.66109184038404  1.27574760246025  0.27493016181618
 6 -5.08401852365236 -2.11220518521852 -0.36320938603860
 6 -3.35490695059506  1.13087562906291  2.73877531573157
 6 -6.16125254755476  4.53609163226323  0.58193055425543
 6 -8.01082200020002  1.18264694709471 -2.33064715861586
 7 -4.39449653415342 -0.27600352345235  1.06988715571557
 6 -4.27176239663966 -1.64739592099210  0.73802752125213
 6 -3.20690209190919 -2.41743294189419  1.51302689128913
 6 -2.86973112851285 -1.28596926662666  2.63656044264426
 6 -3.53232003200320  0.02217306470647  2.08562922152215
 6 -3.59843195119512 -1.77107379998000  3.98105596499650
 6 -2.01543638693869 -2.70776476967697  0.59657384348435
 6 -1.02215997889789 -3.62373746164616  1.33151702860286
 6  0.28426429382938 -3.92473734583458  0.60739890099010
 8  0.55958981288129 -3.39683937273727 -0.37255727112711
 8  1.10033171537154 -4.73770891569157  1.37817380588059
 7 -4.88530708170817  2.63381361806181  1.52632931953195
 6 -3.94521860906091  2.41268928492849  2.57189241504150
 6 -3.72022255945595  3.63673375587559  3.17169611401140
 6 -4.56734248994900  4.59925839133913  2.62668855305531
 6 -5.32034139653965  3.92650732723272  1.47156230813081
 6 -2.75823444834483  3.84571165486549  4.32578644914491
 6 -4.74023672367237  5.96429646384639  2.92803824062406
 8 -4.15882837013701  6.49853468366837  3.91119509200920
 7 -6.90301195079508  2.63085101760176 -0.68125079277928
 6 -6.95161735953595  3.97875828132813 -0.39387759085909
 6 -7.77183232343234  4.72960401720172 -1.34965777487749
 6 -8.30585361816182  3.72762189228923 -2.09604415681568
 6 -7.80134394589459  2.37745591969197 -1.67171094089409
 6 -8.13312559125913  6.12582395209521 -1.33065420002000
 6 -9.34385086348635  3.83615455375538 -3.13346589518952
 6 -8.78762774347435  3.94414577767777 -4.58563180988099
 7 -6.29237500480048 -0.15273045324532 -1.06689771017102
 6 -7.30677428412841 -0.09046995259526 -1.98164408700870
 6 -7.59347246384638 -1.35248040074007 -2.60003302790279
 6 -6.65731121482148 -2.22534630793079 -2.03500271017102
 6 -5.91793971747175 -1.46374040354035 -1.13289115381538
 6 -8.55639101380138 -1.76538632723272 -3.71170208960896
 6 -6.28176180328033 -3.58987809380938 -2.03702909680968
 8 -6.59758299889989 -4.55884085418542 -2.69379962566257
 6 -5.11325157865787 -3.59069083578358 -0.91972859365937
 6 -5.37654478207821 -4.62785798739874  0.12674982598260
 8 -5.75192937553755 -4.44957089048905  1.23422054235424
 8 -5.12957292049205 -5.81939582368237 -0.43994816621662
 6 -5.38538188738874 -6.84255784688469  0.50800833563356
 6  2.30455713731373 -5.21671793199320  0.81848983028303
 6  3.41058436853685 -4.05191669096910  1.03221450725072
 6  4.03582268596860 -3.35314513541354  0.12433480848085
 6  3.69002389968997 -3.25782897129713 -1.31954962376238
 6  5.10989519551955 -2.43477774597460  0.65177702860286
 6  6.53667927262726 -2.68704365736574 -0.09968964306431
 6  7.70905003170317 -1.88110975677568  0.54344817941794
 6  9.02708131663166 -1.92976895889589 -0.15978269146915
 6  9.56889396949695 -3.43111301380138 -0.03140001500150
 6  9.92245768136814 -0.88805942684268  0.34922288568857
 6  11.41213437073707 -0.89798259335934 -0.33322863346335
 6  12.19537715831583  0.33006219671967  0.13122391059106
 6  13.60317971207121  0.48871855875588 -0.59759951715172
 6  14.55267344034404 -0.59694042404240 -0.32235892109211
 6  14.18015795399540  1.83628840104010 -0.21276891929193
 6  15.41376065696570  2.22008394369437 -0.95304241194119
 6  15.84615423512351  3.64174668466847 -0.68313940694069
 6  17.30819521422142  3.94593350885089 -1.22189323712371
 6  17.24447342944294  4.03746930963096 -2.85872819281928
 6  17.99837325652565  5.16257438343834 -0.74819577657766
 1 -2.67706321222122  1.24805166876688  3.59217682888289
 1 -6.09459034193419  5.67290349254925  0.52050181288129
 1 -8.74536973607361  1.02081634313431 -3.14702008290829
 1 -3.65374243944394 -3.28350146684668  2.05822156425643
 1 -1.83870495649565 -1.13759136733673  2.65770793679368
 1 -3.10068939413941 -2.66578315921592  4.37125707160716
 1 -3.61791839193919 -1.01455357305731  4.80067620352035
 1 -4.57650932673267 -1.90856877487749  3.81453467606761
 1 -2.45792295789579 -3.04086713171317 -0.39107684228423
 1 -1.50623132283228 -1.77100572797280  0.62814365566557
 1 -0.77593198329833 -3.17736770907091  2.35975051615162
 1 -1.44939441804180 -4.60890772707271  1.60942997969797
 1 -1.64100275237524  3.43494818151815  4.01704408550855
 1 -2.91129878387839  4.87038667776778  4.63771943484348
 1 -2.92973290579058  3.23387658175818  5.15779275607561
 1 -5.36486034533453  6.57531551405140  2.24150626642664
 1 -10.06561054355435  3.03683083498350 -3.16525768036804
 1 -9.90720820372037  4.73039057355736 -2.91691468406841
 1 -9.54073983488349  3.92687058705871 -5.34615092569257
 1 -8.34075804180418  4.87985992659266 -4.74264394619462
 1 -8.04012428732873  3.11206552045204 -4.72194630933093
 1 -8.37900448204821 -1.10016327402740 -4.50455042404240
 1 -8.41975160306031 -2.74792185248525 -3.79299864376438
 1 -9.52009525862586 -1.54873150775077 -3.38106239133913
 1 -4.27443921992199 -3.82283810681068 -1.41501643174317
 1  2.62734067786779 -6.11311860496050  1.56474486238624
 1  2.09851317791779 -5.38422694909491 -0.27137257235724
 1  3.81738772117212 -4.15356547884788  2.00965933003300
 1  2.62932038393839 -3.43554510941094 -1.27081973207321
 1  3.93544088208821 -2.16402110271027 -1.65601381888189
 1  4.28490099749975 -3.83218507480748 -1.95343680098010
 1  4.77375124412441 -1.53673921852185  0.37082747384738
 1  5.30478283668367 -2.70825514271427  1.77005089138914
 1  6.80484970497050 -3.73917821732173 -0.11274195249525
 1  6.31017985748575 -2.60027224322432 -1.27671735793579
 1  7.22887368896890 -0.85318187248725  0.70736949024902
 1  7.89191810201020 -2.18453670217022  1.46487395979598
 1  9.02197809740974 -1.93369140984098 -1.21226944564456
 1  8.86887905330533 -4.14222308220822 -0.27179965016502
 1  10.49511254065406 -3.43676703140314 -0.46138372027203
 1  9.92884963256326 -3.45536126472647  1.13177414041404
 1  9.40687174807481  0.05509391979198  0.04333350775077
 1  10.11918087668767 -0.77362568186819  1.34265520282028
 1  12.20992292339234 -1.75940326202620  0.01931262346235
 1  11.29932587278728 -0.80510214571457 -1.43930477417742
 1  11.58352837093709  1.13862693449345  0.05009779937994
 1  12.40209096779678  0.02847413071307  1.21171034613461
 1  13.35497623992399  0.59973471627163 -1.66467267206721
 1  14.86977720492049 -0.51431444874487  0.66197129462946
 1  14.11252163866387 -1.51228440734073 -0.56021227532753
 1  15.57064692119212 -0.51436476417642 -0.91251365436544
 1  13.29731897749775  2.48516681588159 -0.16466634393439
 1  14.55135274747475  1.61658807330733  0.91999082638264
 1  16.22589131623162  1.52986844834483 -0.76471428642864
 1  15.14386918241824  2.23818206960696 -2.02614614551455
 1  15.09786124822482  4.29034224192419 -1.04980626062606
 1  15.91265089898990  3.78275423482348  0.46475893469347
 1  17.91372118891889  2.98934244274427 -0.96191057895790
 1  16.42132926972697  4.79002628152815 -3.14520879977998
 1  18.05606799669967  4.32121851505151 -3.41970940454045
 1  16.79672435773577  3.10466537773777 -3.45875642884288
 1  18.31185905990599  4.98879953295330  0.33387255295530
 1  18.87613522432243  5.49596582308231 -1.18740088118812
 1  17.34044661446145  5.96517092719272 -0.90438879097910
 1 -5.16855474007401 -7.80414151355135  0.04953063706371
 1 -6.55603609490949 -6.79220860226023  0.63027287058706
 1 -4.76245846324633 -6.72138201440144  1.55910877927793
 8 -7.70482337763776  6.92321235263526 -0.56602003040304
 1 -8.73375675947595  6.48350576627663 -1.84070253775378

