%nproc=3
%Mem=2GB
# td=(NStates=1) iop(3/107=0140000000,3/108=0140000000) iop(3/107=0140000000,3/108=0140000000) CAM-B3LYP/6-31G(d,p) 

TD

0 1
12 -5.57372310351035  1.28850887858786  0.13076574537454
 6 -4.96550667246725 -2.04570853555356 -0.35541860696070
 6 -3.28210967086709  1.19341188268827  2.56996843504350
 6 -6.09893631593159  4.61289931303130  0.59904226542654
 6 -7.98277919591959  1.18585726812681 -2.36414050795080
 7 -4.18635572007201 -0.27867379047905  0.94563473047305
 6 -4.19868508890889 -1.59967114851485  0.59973369186919
 6 -3.23777517921792 -2.28829002760276  1.52540812941294
 6 -2.85580973637364 -1.31772244194419  2.51899868646865
 6 -3.44423122312231 -0.02807195979598  1.97832849144915
 6 -3.41161326932693 -1.61098779137914  3.86076393579358
 6 -1.97290213351335 -2.81458545174517  0.62969715581558
 6 -0.91653941684168 -3.48874396229623  1.43434731163116
 6  0.22354822222222 -4.03481835393539  0.47923608470847
 8  0.48864271817182 -3.50115980478048 -0.60760077547755
 8  1.01210289248925 -4.90459560436044  1.10512650115011
 7 -4.80887943894389  2.68277851455146  1.36354304090409
 6 -3.82045613281328  2.42582059805981  2.36406163196320
 6 -3.64366490369037  3.66562664516452  3.15264420882088
 6 -4.44532028772877  4.61060952645265  2.53465935013501
 6 -5.13266262866287  3.95379005550555  1.37507265916592
 6 -2.70457908280828  3.76607369106911  4.32042591309131
 6 -4.54330703070307  5.97682771697170  2.99065450225023
 8 -4.00083257055706  6.57848267846785  3.79442341484148
 7 -6.84338598819882  2.63216114861486 -0.72727539523952
 6 -6.90641283908391  3.89916032153215 -0.32599080218022
 6 -7.80392553275328  4.60695175197520 -1.19375218431843
 6 -8.42446547934794  3.72126125622562 -2.02388694109411
 6 -7.81156496799680  2.44075224932493 -1.71849561936194
 6 -8.26883916261626  6.03037440714071 -1.14256539113911
 6 -9.56616309470947  3.71305224352435 -3.10284283288329
 6 -9.02978195889589  3.96332769586959 -4.40408365506551
 7 -6.26604237153715 -0.08504368456846 -1.10002102250225
 6 -7.35314892159216 -0.00360126572657 -2.08253417601760
 6 -7.67860097669767 -1.30611576427643 -2.63058608320832
 6 -6.82374785848585 -2.17748152145215 -1.96012522242224
 6 -6.05275319881988 -1.46598062756276 -1.03256112081208
 6 -8.60142551725173 -1.70395018361836 -3.70221114051405
 6 -6.25865949304931 -3.56030513651365 -1.93103849774977
 8 -6.57788102870287 -4.48230320042004 -2.53936418211821
 6 -5.10660091359136 -3.52291405810581 -0.81169779057906
 6 -5.23875100270027 -4.62426762836284  0.13094024502450
 8 -5.61941612421242 -4.51782771617162  1.28385550585059
 8 -5.02418238143814 -5.84099798389839 -0.42885705710571
 6 -5.38212156135614 -6.82972656375638  0.38116565136514
 6  2.34463114471447 -5.18242450265026  0.49891787308731
 6  3.32963627372737 -4.25660716001600  0.96885817161716
 6  4.06455555925593 -3.40261008190819  0.16054842984298
 6  3.83777867516752 -3.19747293569357 -1.27562523132313
 6  5.16648085408541 -2.53994826302630  0.80481233213321
 6  6.54195980068007 -2.89767472047205  0.12812313821382
 6  7.57863699039904 -1.94469611541154  0.73610744534453
 6  8.93273188168817 -2.05638162016202  0.10296358315832
 6  9.54073115321532 -3.36365626812681  0.38927205220522
 6  9.85430086568657 -0.80157077797780  0.44536249964996
 6  11.27127028432843 -0.82667546264626 -0.20017532813281
 6  12.06204382498250  0.47912710321032  0.18491928012801
 6  13.40531992609261  0.59545923282328 -0.57178693589359
 6  14.29051722472247 -0.67446817681768 -0.17631431663166
 6  14.07675761396140  1.95760053225323 -0.24881252365237
 6  15.27897717861786  2.14038597389739 -0.98672578027803
 6  16.05545516521652  3.48617112711271 -0.72667376037604
 6  17.30265466016602  3.88907782328233 -1.40580162796280
 6  17.09450843294330  4.25813137583758 -2.91593391339134
 6  17.96766018521852  5.06942506850685 -0.72900385738574
 1 -2.49081458735874  1.16037290089009  3.22766037723772
 1 -6.33530441334133  5.63733993619362  0.95007477017702
 1 -8.66140133923392  1.13667792929293 -3.24824020492049
 1 -4.03858092329233 -3.17181029772977  1.83182892499250
 1 -1.83618470447045 -1.35278288648865  2.57616978297830
 1 -2.87921724692469 -2.47368394929493  4.30692063796380
 1 -3.03251985208521 -0.61662378007801  4.61315745164516
 1 -4.50656233203320 -1.68149606760676  4.01477470007001
 1 -2.30119728532853 -3.32415546054605 -0.14203193779378
 1 -1.29493019271927 -1.91800042744274  0.32854369566957
 1 -0.42435682578258 -2.90676064836484  2.20879542064206
 1 -1.38548802740274 -4.24196103240324  2.11492052875287
 1 -1.60564921702170  3.63083777047705  3.88523090419042
 1 -2.95280293429343  4.82495213431343  4.62889855275527
 1 -2.96824675717572  2.98388158225823  4.99242621942194
 1 -5.39307316661666  6.49982796529653  2.30961307710771
 1 -9.75946992949295  2.63959111101110 -3.16613776837684
 1 -10.47839532243225  4.25381291579158 -2.98485147774778
 1 -9.74879063996400  3.94730263026303 -5.11720803140314
 1 -8.38252221822182  4.85433737433743 -4.61626130793079
 1 -8.50359063396340  3.17799211311131 -4.82302641734173
 1 -8.71507808940894 -0.87143040074007 -4.58198816781678
 1 -8.45996562446245 -2.70987804810481 -3.96779612351235
 1 -9.67259050815082 -1.75137177177718 -3.41382566766677
 1 -4.23879565556556 -3.43850967396740 -1.58122305240524
 1  2.32280022382238 -6.46759405250525  0.83453184108411
 1  2.10135346194619 -5.09316784318432 -0.63568900400040
 1  3.58721470387039 -4.20481060336034  2.01314967906791
 1  2.84088154005401 -3.36700825572557 -1.51637428752875
 1  3.94055139313931 -2.18755345594559 -1.56516473397340
 1  4.29918242564256 -3.90160201650165 -1.80972242954295
 1  4.85580944994499 -1.48516406100610  0.46216660776078
 1  5.22052441084108 -2.54349866706671  1.93497738403840
 1  6.64572379237924 -3.87688198769877  0.58408773047305
 1  6.47704654415441 -2.75456767276728 -0.91590127632763
 1  7.36430723232323 -0.98692524682468  0.79099785308531
 1  7.68039694989499 -2.11364961346135  1.77510498289829
 1  8.81396729632963 -1.77023506420642 -0.81869008770877
 1  9.05766793219322 -4.15098395829583 -0.21106357655766
 1  10.73162619201920 -3.65141849654965 -0.20744832673267
 1  9.85224197179718 -3.22944867346735  1.47751871487149
 1  9.37054811571157  0.27252566296630  0.14588376277628
 1  10.15819477807781 -0.68709702900290  1.49487042434243
 1  11.65228715981598 -1.81370869256926  0.28949964216422
 1  11.10809674987499 -0.87372900840084 -1.18866971067107
 1  11.54849486758676  1.42805587738774 -0.06159336973697
 1  12.13349410811081  0.56806809010901  1.25951512661266
 1  13.24439518181818  0.77439218201820 -1.83384958975898
 1  14.26503673087309 -0.83279629692969  0.97872296979698
 1  13.92434282078208 -1.68280145904590 -0.67747400150015
 1  15.49489934643464 -0.51558488618862 -0.47420982398240
 1  13.28118736433643  2.78366666586659 -0.47739761706171
 1  14.14248186038604  1.80366678117812  0.74010283758376
 1  15.97924665176518  1.21887734923492 -0.89347716271627
 1  15.19195399089909  2.28719697109711 -2.06507003790379
 1  15.20659212131213  4.23831703940394 -1.06905818581858
 1  16.12517215111511  3.36792275167517  0.56763922272227
 1  18.17002681948195  3.04328783728373 -1.34664905280528
 1  16.36712384918492  5.10317759665967 -3.03685796469647
 1  18.11275366526652  4.42700909410941 -3.36676411001100
 1  16.49750443574357  3.47475238643864 -3.63888444164416
 1  18.08433630763076  5.16423707670767  0.28900806650665
 1  19.01699931073107  5.24519074557456 -1.14070621172117
 1  17.22713528332833  5.91532594269427 -0.85766411851185
 1 -5.12696058065807 -7.78415951535153 -0.05740005600560
 1 -6.53400389168917 -6.92925230663066  0.78512835613561
 1 -4.90025224262426 -6.74502437863786  1.25633850225022
 8 -7.77072996829683  6.86268630003000 -0.38778220662066
 1 -8.98766215001500  6.38677609330933 -1.85190365786579

