%nproc=3
%Mem=2GB
# td=(NStates=1) iop(3/107=0140000000,3/108=0140000000) iop(3/107=0140000000,3/108=0140000000) CAM-B3LYP/6-31G(d,p) 

TD

0 1
12 -5.71110684188419  1.05591561926193  0.32507517631763
 6 -4.92833295509551 -2.11709567426743 -0.34086715181518
 6 -3.48402986288629  1.10645318681868  2.86516795499550
 6 -6.20136655895590  4.55774379747975  0.67111947314731
 6 -7.84503542154215  1.20134881728173 -2.45086918081808
 7 -4.31691877637764 -0.30153607670767  1.09190935793579
 6 -4.20922614301430 -1.60849203060306  0.72136585508551
 6 -3.16617801950195 -2.46190738933893  1.57643323192319
 6 -2.86954110951095 -1.42989365906591  2.62768955555556
 6 -3.51362816281628 -0.08330748334834  2.15904656325633
 6 -3.56644875287529 -1.81977867046705  4.00604846424642
 6 -1.92810765406541 -2.64744873807381  0.72734692079208
 6 -0.94429219211921 -3.63964905280528  1.51807568446845
 6  0.20727659505951 -4.00301517361736  0.61868002910291
 8  0.33477733163316 -3.62276196499650 -0.55797581298130
 8  1.12800448264826 -4.76191133593359  1.24256024452445
 7 -4.92067061806181  2.66254649134913  1.42716940354035
 6 -3.98010209740974  2.36375439143914  2.44592981878188
 6 -3.76903744094409  3.61960204270427  3.26020496489649
 6 -4.51365712141214  4.60286875237524  2.47079296349635
 6 -5.23049241164116  3.88931360786079  1.47873302520252
 6 -2.80419904480448  3.73677076077608  4.41002487298730
 6 -4.63091579157916  6.05292532673267  2.90463590039004
 8 -3.88469095639564  6.64174900510051  3.76618059055906
 7 -6.86601825142514  2.56663459595960 -0.70309297699770
 6 -6.99169136693669  3.99157956345635 -0.30132833593359
 6 -7.90429556975698  4.63440449724972 -1.23805661476148
 6 -8.37255028782878  3.67465659575958 -2.09533408580858
 6 -7.65095890739074  2.36145431953195 -1.78668243804380
 6 -8.23803608230823  6.02739410911091 -1.20873200780078
 6 -9.30692717111711  3.88907984628463 -3.26896944554455
 6 -8.60642962366237  4.16647801090109 -4.67528077477748
 7 -6.28905467276728 -0.19832501270127 -1.08850987138714
 6 -7.29128273497350 -0.04282518811881 -2.06827274987499
 6 -7.54756787338734 -1.27676282898290 -2.68804182878288
 6 -6.64352983668367 -2.18105187848785 -2.03477268716872
 6 -5.91646957045705 -1.37283131263126 -1.06684454915492
 6 -8.58379375407541 -1.61912170077008 -3.69814073347335
 6 -6.26619024612461 -3.49286839283928 -2.00196559045905
 8 -6.53790703130313 -4.53512848294829 -2.55591583728373
 6 -5.05998625212521 -3.50234200090009 -0.84273089388939
 6 -5.32826995459546 -4.58292349394940  0.17117426842684
 8 -5.68975315791579 -4.34929086248625  1.34309142944294
 8 -5.05816577977798 -5.76518040214021 -0.41115528692869
 6 -5.27000034923492 -6.89800339143914  0.50674820962096
 6  2.34543122472247 -5.07305356555656  0.60121810311031
 6  3.42663597369737 -4.10471197049705  0.96813809960996
 6  4.13846294999500 -3.28534835573557  0.11046342134213
 6  3.78979387668767 -3.23441663006301 -1.43809147794779
 6  5.15126933293329 -2.35401967016702  0.59606145704570
 6  6.51756736143614 -2.75259021202120  0.06077640354035
 6  7.51624075077508 -1.82606425222522  0.57353118771877
 6  8.93287189568957 -1.92576855885589 -0.15325203840384
 6  9.56089316941694 -3.39997990049005  0.05679880488049
 6  9.92901833743374 -0.69925054595460  0.34338230163016
 6  11.27679083638364 -0.72754554965497 -0.39496480708071
 6  12.14371199179918  0.33187237773777  0.16590737893789
 6  13.57560695479548  0.46270595749575 -0.49686944414441
 6  14.38752692569257 -0.82086281628163 -0.25109179437944
 6  14.14298423662366  1.81374614681468 -0.15403304570457
 6  15.48065734663466  2.11778371367137 -0.93011011871187
 6  15.92608222792279  3.46980949094910 -0.52652374537454
 6  17.10634502920292  3.91153006850685 -1.36536758455846
 6  16.88585756785679  4.09930549324933 -2.88866118611861
 6  17.80876429562956  5.26687481348135 -0.87478843584358
 1 -2.93792929882988  1.13369023262326  3.61189880108011
 1 -6.47563844674467  5.58213441564156  0.80107987068707
 1 -8.65304050315032  1.46196045754575 -3.26267164806481
 1 -3.73319038423842 -3.37141025772577  1.62938868096810
 1 -1.93094418041804 -1.22352996119612  2.79278144414441
 1 -2.89642896809681 -2.68456503740374  4.35641558745875
 1 -3.62782938303830 -0.86235835353535  4.61784792069207
 1 -4.60296197199720 -2.09153707170717  4.00030325292529
 1 -2.37922508810881 -3.23218626362636 -0.20033776837684
 1 -1.49856055575558 -1.82103073047305  0.36804764606461
 1 -0.59363375347535 -3.23095306760676  2.46763130423042
 1 -1.50083956255626 -4.61573841014101  1.77008604530453
 1 -1.79037768986899  3.38798348504851  4.13951633273327
 1 -2.73925157915792  4.82021166026603  4.91752741564156
 1 -3.11782171467147  3.23222641674167  5.16957393419342
 1 -5.22221608090809  6.72395037753775  2.38919103490349
 1 -9.94247823032303  2.92207935983598 -3.54828598319832
 1 -9.85849333223323  4.84057159165916 -3.13147614021402
 1 -9.28831459235924  4.44891279127913 -5.36438274887489
 1 -7.83673763976398  4.91681362196220 -4.60756043784378
 1 -8.11640191509151  3.29067338123812 -5.23341745644565
 1 -8.12103868546855 -1.24338759645965 -4.72622259125913
 1 -8.72560218811881 -2.75721278157816 -3.76552589648965
 1 -9.62305555465547 -0.77128376297630 -3.40134441954195
 1 -4.20021179717972 -3.87319314231423 -1.50473540364036
 1  2.38927687148715 -6.14583187628763  1.16180456835684
 1  2.15142846944694 -5.16759528592859 -0.38217365246525
 1  3.32569855225523 -3.92943306560656  2.11327969206921
 1  2.59434688658866 -3.21329288418842 -1.42557520762076
 1  4.02571990999100 -2.31954665526553 -1.81832004950495
 1  4.31865437283728 -4.12664452075207 -1.98218967626763
 1  4.92824669366937 -1.41220676527653  0.18703909500950
 1  5.32534489288929 -2.38241255845585  1.68792267856786
 1  6.69712893289329 -3.87387168666867  0.41046036773677
 1  6.60036887638764 -2.58882109810981 -0.93995368156816
 1  7.12937373897390 -0.77045359965997  0.49781853515352
 1  7.72195110531053 -1.77345559405941  1.65912338473847
 1  8.65188108770877 -2.00129817051705 -1.27919613831383
 1  8.91421358675868 -4.28690755065507 -0.23550602080208
 1  10.55127815721572 -3.32691604630463 -0.34247182908291
 1  9.66364311191119 -3.44573030163016  1.23071403440344
 1  9.34569563046305  0.25144355475548  0.13059223362336
 1  10.06169512811281 -0.99080740004000  1.45908684598460
 1  11.73458538963896 -1.83423074477448 -0.25133444124412
 1  11.16539247944795 -0.61805344084408 -1.49950079377938
 1  11.76824684278428  1.36341941374137  0.01536432603260
 1  12.33504426312631  0.12917420072007  1.28508768386839
 1  13.30961170347035  0.69632437523752 -1.41313751855186
 1  14.52224245144514 -1.01243426072607  0.82670776827683
 1  13.79343973047305 -1.79697287618762 -0.67377363146315
 1  15.19624948144815 -0.78557188488849 -0.79477188018802
 1  13.50432967856786  2.63975227442744 -0.24831470877088
 1  14.30497811001100  1.90442685718572  0.88527735503550
 1  16.45288401550155  1.44966042754275 -0.85685350035003
 1  15.24163895939594  2.21444969636964 -2.02501603250325
 1  14.98927038913891  4.26886009370937 -0.56739801980198
 1  16.12758239213921  3.37808376777678  0.51575403420342
 1  18.15136495329533  3.28651215971597 -1.20412480038004
 1  16.07938507530753  5.02189946884688 -3.05457973687369
 1  17.72897528742874  4.55695208840884 -3.50105753935394
 1  16.60376506180618  3.23927883908391 -3.34652520572057
 1  17.85293316731673  5.18686933993399  0.15220438613861
 1  18.71925953675368  5.45086131263126 -1.31556369746975
 1  17.21941451125112  6.17246165626563 -0.98346669876988
 1 -4.91613949854986 -7.88796989638964  0.03945962996300
 1 -6.48597908920892 -7.10512989438944  0.69515935923592
 1 -4.98896111351135 -6.70050992719272  1.49634250265027
 8 -7.64918781408141  6.90383041444144 -0.59500292869287
 1 -9.21494487828783  6.24755217091709 -1.88347681518152

