%nproc=3
%Mem=2GB
# td=(NStates=1) iop(3/107=0140000000,3/108=0140000000) iop(3/107=0140000000,3/108=0140000000) CAM-B3LYP/6-31G(d,p) 

TD

0 1
12 -5.75187091829183  1.25968599629963  0.27672034083408
 6 -4.96200632243224 -2.18167213191319 -0.38896196129613
 6 -3.56051751165116  1.10574311581158  2.79112055025503
 6 -6.29569599189919  4.55467349044905  0.73751611281128
 6 -8.06288720672067  1.18068675107511 -2.31480557445745
 7 -4.39520660516052 -0.32021794489449  0.97278744574457
 6 -4.20621584198420 -1.57454863626363  0.54217793629363
 6 -3.12876427812781 -2.25624682328233  1.30530611921192
 6 -2.86225038043804 -1.31246191589159  2.57593438003800
 6 -3.71147794779478 -0.07040619321932  2.15669632823282
 6 -3.29821192919292 -1.79833652625263  3.83349120852085
 6 -1.91046588988899 -2.56086007920792  0.56131031713171
 6 -0.88550631353135 -3.43843893179318  1.39868374527453
 6  0.33090895829583 -3.79348422052205  0.64662282338234
 8  0.52520637453745 -3.33546323512351 -0.51485150055006
 8  1.15449713191319 -4.62664780958096  1.36495248374837
 7 -5.08068661966197  2.61405164186419  1.54797148374837
 6 -4.17490157735774  2.36608462446245  2.50601582738274
 6 -3.90512104930493  3.66510659315932  3.20447939233923
 6 -4.52347810351035  4.68900736623662  2.56745262946295
 6 -5.41737109950995  3.99087376387639  1.50887603950395
 6 -2.85526415131513  3.88942602630263  4.27241111161116
 6 -4.58711141114111  6.18598863306331  2.94282971977198
 8 -4.08692117941794  6.59593442364236  3.89142311481148
 7 -6.91163281288129  2.57202513501350 -0.71438410611061
 6 -7.00051224902490  3.94108451395140 -0.34064226732673
 6 -7.92312745294529  4.66808786558656 -1.21897470657066
 6 -8.54619765256526  3.64308343844384 -2.06147069946995
 6 -7.83520733223322  2.41214938903890 -1.70601437123712
 6 -8.40125240394040  6.04202557225723 -1.07865900050005
 6 -9.53563004140414  3.74543548184818 -3.22423497209721
 6 -8.79998897959796  3.80663202630263 -4.51013426012601
 7 -6.32551831913191 -0.16125130533053 -1.26257727812781
 6 -7.37945155185519 -0.06936784238424 -2.08549447204720
 6 -7.58420153675368 -1.29132428512851 -2.73736676127613
 6 -6.64893037673767 -2.17393116641664 -2.15408461836184
 6 -5.92923084658466 -1.45233926342634 -1.15900376507651
 6 -8.65943131783178 -1.66464625322532 -3.71373229262926
 6 -6.24894852195220 -3.56976608260826 -1.99790518441844
 8 -6.77908114871487 -4.57992296239624 -2.51804204990499
 6 -5.01970222372237 -3.54978674537454 -0.97638425922592
 6 -5.34109123672367 -4.69863506510651  0.08472562356236
 8 -5.65160934353435 -4.45906183958396  1.20222734303430
 8 -4.90983094629463 -5.85950983508351 -0.43753792519252
 6 -5.27692104130413 -6.91638522962296  0.42098963376338
 6  2.38341502310231 -5.02163842404240  0.65687366866687
 6  3.45315862596260 -4.06802830213021  1.01497278307831
 6  4.00196930063006 -3.18215803670367  0.19411178617862
 6  3.64767966526653 -3.13775696409641 -1.27188485728573
 6  5.04991919791979 -2.19215348354835  0.62486433733373
 6  6.62030763546355 -2.57066201920192  0.15436576247625
 6  7.72851197789779 -1.66232787858786  0.66645047964796
 6  9.08720732923292 -2.00299628162816 -0.02453916711671
 6  9.51866894699470 -3.37741764426443  0.26044916991699
 6  10.08161359695970 -0.97378799969997  0.45606356975698
 6  11.44603776107611 -0.89398219331933 -0.32824813541354
 6  12.31040866146615  0.18573776427643  0.21775256345635
 6  13.76271566566657  0.32050173707371 -0.57390714791479
 6  14.66695486848685 -0.91860259025903 -0.29200588578858
 6  14.32056199439944  1.65507027922792 -0.07590523292329
 6  15.58450773167317  2.06427836313631 -1.01193830153015
 6  16.11736135583558  3.43349585958596 -0.76215730873087
 6  17.39348374307431  3.87898681418142 -1.45007605540554
 6  17.06107508960896  4.00248581128113 -2.92006432643264
 6  18.01469488868887  5.16470459645965 -0.76717767476748
 1 -2.67534304020402  1.22491935553555  3.47517512871287
 1 -6.19365024792479  5.68658486068607  0.82062182488249
 1 -8.74693989308931  1.11933619511951 -2.95373075397540
 1 -3.56212327752775 -3.34921803850385  1.78221396349635
 1 -1.69012009800980 -1.15620322852285  2.41529369536954
 1 -2.86003532873287 -2.84979156005601  3.97427737363736
 1 -3.14969156925693 -1.02101421912191  4.70684682058206
 1 -4.39552122792279 -2.18847676567657  3.98178140074007
 1 -2.08572573817382 -3.06923996899690 -0.35957369196920
 1 -1.50229092879288 -1.74156278367837  0.32326316761676
 1 -0.76398078817882 -3.00682065436544  2.41608614971497
 1 -1.54935441404140 -4.22069890619062  1.63848288498850
 1 -1.70804945704570  3.52829751645164  4.22713509460946
 1 -2.89746740074007  4.79403904300430  4.96280194309431
 1 -2.97564749724972  3.22076527062706  5.14450142694269
 1 -5.31600545984598  6.78006598909891  2.51218333413341
 1 -10.16196017851785  2.84553170507051 -3.18631978657866
 1 -10.15804328722872  4.51378891339134 -3.10682367496750
 1 -9.45006076697670  3.96671457145715 -5.24766107670767
 1 -8.12058602460246  4.65852779337934 -4.56239592139214
 1 -8.25024529942994  2.79154346824683 -4.96123023772377
 1 -8.54262084368437 -1.23669692739274 -4.57171714071407
 1 -8.65446507440744 -2.74901196149615 -3.75594493839384
 1 -9.71878512761276 -1.38810544514451 -3.29665395049505
 1 -4.21575335133513 -3.74687051005101 -1.62368729882988
 1  2.72335027882788 -6.15062235533553  0.63093148104810
 1  2.18546187278728 -5.01855038143815 -0.27998343344334
 1  3.64315029742974 -4.12000212251225  2.17075543964396
 1  2.64786223812381 -3.31813336823682 -1.51368401850185
 1  3.69190652865286 -1.89398409900990 -1.45987420492049
 1  4.23614612201220 -3.70086194249425 -1.81387284458446
 1  4.86065993499350 -1.28234377897790  0.04955534663466
 1  5.15171753015302 -2.07549186638664  1.74435832213221
 1  6.90300952095209 -3.67310160966097  0.43095241694169
 1  6.74346318581858 -2.56271848784879 -0.95381506770677
 1  7.60463126472647 -0.50903745804580  0.34316306960696
 1  7.71371028122812 -1.68926717521752  1.79472694509451
 1  9.10259615921592 -1.91722976367637 -1.14702292099210
 1  8.86191835723572 -4.24443330323032 -0.15583805400540
 1  10.59950297969797 -3.62910626532653 -0.06947452935294
 1  9.56872361996200 -3.43339906850685  1.27086804980498
 1  9.52871393229323 -0.02414400400040  0.29331850625062
 1  10.34699365796580 -0.94544286358636  1.57017795509551
 1  12.04401633273327 -1.77261458315832 -0.26650595839584
 1  11.36545248544854 -0.72789442494249 -1.38951979567957
 1  11.94761477957796  1.24110718251825 -0.04876208660866
 1  12.53454421312131  0.23449473277328  1.20546972207221
 1  13.54177491979198  0.45288003080308 -1.65753195799580
 1  14.92514274147415 -0.99550256755676  0.63948904640464
 1  14.28612899939994 -1.74188736763676 -0.52594884898490
 1  15.62577243374337 -0.84178750645065 -0.71802420542054
 1  13.53622286788679  2.57164546374637 -0.20717059435944
 1  14.72384999719972  1.50838725322532  1.04066289358936
 1  16.52574130123012  1.43420888238824 -0.68525634063406
 1  15.34055885138514  1.89333758515852 -1.97520105100510
 1  15.04858632073207  4.02004521222122 -0.91342262226223
 1  16.25645527942794  3.71209716911691  0.28323078187819
 1  18.07853767056706  2.99694320282028 -1.37975236313631
 1  16.46943408020802  4.74315159405941 -3.07784206310631
 1  17.88650104000400  4.27698409160916 -3.51904933853385
 1  16.51789647494750  3.13293820502050 -3.25623617681768
 1  18.50218809280928  4.66449710271027  0.27074624032403
 1  18.73095070587059  5.60385661216122 -1.44366650775078
 1  17.10434300410041  5.82677708780878 -0.62478083018302
 1 -5.11170905550555 -7.69053015241524 -0.12929724572457
 1 -6.35393588488849 -6.92679206060606  0.89717956125613
 1 -4.51663388078808 -7.10522039823982  1.18357122552255
 8 -7.94269716501650  6.82020205160516 -0.34889831823182
 1 -9.20310369416942  6.32300971667167 -1.79779824732473

