%nproc=3
%Mem=2GB
# td=(NStates=1) iop(3/107=0140000000,3/108=0140000000) iop(3/107=0140000000,3/108=0140000000) CAM-B3LYP/6-31G(d,p) 

TD

0 1
12 -5.67340307150715  1.19984001170117  0.17913058185819
 6 -4.96410653245325 -2.06936090079008 -0.32358542364236
 6 -3.35608706860686  1.25483802530253  2.74270570877088
 6 -6.10917734003400  4.59959798289829  0.54002636383638
 6 -7.98381929992999  1.23057173957396 -2.44308840274027
 7 -4.30977806230623 -0.21048697179718  1.07615778277828
 6 -4.25577079747975 -1.52242342374237  0.70018373687369
 6 -3.26890829252925 -2.30651184978498  1.45059064766477
 6 -2.85824998039804 -1.32531320102010  2.56492327892789
 6 -3.48864566456646 -0.00767992059206  2.12184284288429
 6 -3.56934904290429 -1.83554024662466  3.85673353275328
 6 -2.02201704500450 -2.72334632783278  0.59416360246025
 6 -1.00840860376038 -3.47941302920292  1.42881675857586
 6  0.24968083548355 -3.96912178427843  0.65819398049805
 8  0.49104295819582 -3.49384907370737 -0.46511652705271
 8  1.00292197439744 -4.84184932973297  1.34770075857586
 7 -4.83874242524252  2.67068730543054  1.44050073667367
 6 -3.93968805600560  2.42606062206221  2.43550877667767
 6 -3.67073761096110  3.68341842434243  3.11764070847085
 6 -4.44668042374237  4.64366283178318  2.56496238043804
 6 -5.14763412581258  3.97698237473747  1.52966811871187
 6 -2.74209283418342  3.75603268696870  4.40028389888989
 6 -4.56836953695370  6.08232826702670  3.08240367716772
 8 -4.07042953025303  6.48751358155816  4.09766373887389
 7 -6.87800945054505  2.59189712221222 -0.64316698439844
 6 -6.96892909070907  3.97720812631263 -0.42907111021102
 6 -7.94250939113911  4.74254531133113 -1.23740654975498
 6 -8.44556758955896  3.68234736483648 -2.14671922432243
 6 -7.73803761526153  2.42090026412641 -1.71166493629363
 6 -8.40554283298330  6.00431180088009 -1.14766590119012
 6 -9.43641011941194  3.79641057935794 -3.15145769436944
 6 -9.03673265396540  3.87475883898390 -4.59524277097710
 7 -6.33160892819282 -0.07722290249025 -1.22080310071007
 6 -7.37803140984098  0.01189028342834 -2.10079600220022
 6 -7.53969708630863 -1.31879703240324 -2.82121514611461
 6 -6.64475995969597 -2.12323609690969 -2.12240145004500
 6 -5.88982690619062 -1.38859288878888 -1.21083894859486
 6 -8.51078645334534 -1.76314610321032 -3.80595151455146
 6 -6.17603123022302 -3.55105421142114 -1.97450284418442
 8 -6.62620586118612 -4.57751272137214 -2.50377062276228
 6 -5.02788304180418 -3.50782254895490 -0.96406302710271
 6 -5.36647377497750 -4.67606280788079  0.05361251225123
 8 -5.85399958255826 -4.38868480188019  1.13002012231223
 8 -4.95447541074107 -5.87538142224222 -0.36082025342534
 6 -5.28944229342934 -6.95303889498950  0.52954048884888
 6  2.25246192779278 -5.14214047424742  0.69494747604760
 6  3.39563287338734 -4.10233173247325  1.07536882268227
 6  4.07597670137014 -3.35660548144814  0.22343471847185
 6  3.80613551085108 -3.31971515991599 -1.25366303510351
 6  5.18609281528153 -2.49037330553055  0.69291114201420
 6  6.53941954665467 -2.73894884788479  0.01962228812881
 6  7.55652477917792 -1.88116976277628  0.70688452305231
 6  9.03957256575658 -1.94075005700570  0.00403369016902
 6  9.61759883998400 -3.31156105860586  0.27381050605061
 6  9.99975541114111 -0.81957257815782  0.54378234163416
 6  11.25449860716072 -0.74354714981498 -0.27180249084908
 6  12.10829845044504  0.40011920242024  0.05089587778778
 6  13.50586998109811  0.54017370427043 -0.54658441564156
 6  14.34623279627963 -0.73042377237724 -0.42459914511451
 6  14.17345728392839  1.86785155735574 -0.23172081448145
 6  15.48799808070807  2.12704463976398 -1.07329443714371
 6  16.12500211991199  3.53934644464446 -0.62438353135314
 6  17.35723011771177  3.83903281878188 -1.34971601940194
 6  17.23881286338634  3.93743930663066 -2.92929524952495
 6  17.92611603080308  5.23158128412841 -0.86857781478148
 1 -2.85569107500750  1.10840770437044  3.75143275447545
 1 -6.45529641254125  5.52757896009601  0.92483224592459
 1 -8.71527672677268  1.19265352685269 -3.12287766866687
 1 -3.92035910111011 -3.23915703240324  2.05304104620462
 1 -1.77727881388139 -1.29830743894389  2.60936310231023
 1 -2.90348967416742 -2.62163874477448  4.22925287118712
 1 -3.48746534663466 -1.00416253395340  4.66052218811881
 1 -4.52803447924792 -2.01497941594159  3.72440566316632
 1 -2.31810897649765 -3.39101214621462 -0.26090382498250
 1 -1.32086278597860 -1.85026365376538  0.31847268856886
 1 -0.68033242334233 -3.01268124042404  2.27282182328233
 1 -1.54657413601360 -4.37323415971597  1.76052508920892
 1 -1.68445709780978  3.59754444114411  4.19492187328733
 1 -3.00987864186419  4.89036867596760  4.79751541444144
 1 -3.12367229972997  2.92680587468747  5.03965094189419
 1 -5.33007686698670  6.75170315281528  2.69024113991399
 1 -10.05945992849285  2.91429858175818 -2.95912706730673
 1 -10.20713819671967  4.77768530303030 -3.06651964456446
 1 -10.01602736363636  3.78357625762576 -5.09686599719972
 1 -8.54259822582258  4.85737767836784 -4.68465814761476
 1 -8.32844311921192  3.06999131303130 -5.13455757045705
 1 -8.28781536313631 -1.22578583628363 -4.70926089508951
 1 -8.50659028692869 -2.69806686698670 -4.00961030493049
 1 -9.45021827092709 -1.46526316091609 -3.55440972607261
 1 -4.13051482748275 -3.88226404940494 -1.55374030413041
 1  2.42868081188119 -6.08790608370837  0.98594698259826
 1  2.08633195979598 -5.21001952835284 -0.39417485258526
 1  3.82929891229123 -4.04962508480848  2.04772313641364
 1  2.72554000590059 -3.36355791069107 -1.38414106420642
 1  4.11355869386939 -2.28676337693769 -1.67927614511451
 1  4.49734224162416 -3.88734059035904 -1.93993545084508
 1  4.78793266226623 -1.64399994459446  0.68529892099210
 1  5.28917127552755 -2.72245656285629  1.74008789508951
 1  6.80977019701970 -3.85675997549755  0.11628094979498
 1  6.55997483698370 -2.36418863486349 -1.14871455765577
 1  7.40466126772677 -0.82243879817982  0.43745249854985
 1  7.78895780598060 -2.08800704920492  1.73558103050305
 1  9.01258715831583 -1.81501954265427 -1.07331555025503
 1  8.99006117151715 -4.32426128602860  0.11956948674868
 1  10.59290231963196 -3.49946330103010 -0.21359894179418
 1  9.81425817341734 -3.15048077667767  1.35666662966297
 1  9.37652871377138  0.15493390379038  0.29605878027803
 1  10.20082904150415 -1.13602192149215  1.61498243554355
 1  11.81794372547255 -1.67193451515151 -0.08722803060306
 1  11.07473341354135 -0.95692732823282 -1.28974981868187
 1  11.56656667476748  1.45833890569057 -0.24624183458346
 1  12.16420717941794  0.36150743404340  1.21926110121012
 1  13.24783552585258  0.55154989778978 -1.77395360016002
 1  14.81487171437144 -0.90763378067807  0.60827592509251
 1  13.90734112061206 -1.64144732363236 -0.62017827192719
 1  15.32736259275928 -0.80067339503950 -1.11717412041204
 1  13.56621586718672  2.81817011621162 -0.62304218151815
 1  14.31142875507551  1.90431684618462  0.94535336263626
 1  16.15054378147815  1.49800526202620 -1.14650246524653
 1  15.21799659515952  2.15026327772777 -2.18393192409241
 1  15.30441190329033  4.36125933363336 -0.92633391339134
 1  16.25514514841484  3.69637559695970  0.49541200000000
 1  18.31038085488549  3.22865637413741 -0.93340772867287
 1  16.46123326012601  4.47442472137214 -3.04059833873387
 1  18.27890027992799  4.08273466666667 -3.52802023562356
 1  17.11040572587259  2.98225313651365 -3.38431898509851
 1  17.97575544954495  5.23182383538354  0.17498666436644
 1  18.96259387018702  5.23107933443344 -1.35917805890589
 1  17.23605617541754  6.15092950305031 -0.79568792089209
 1 -5.11221910651065 -7.94876597599760  0.04889057305731
 1 -6.31459195049505 -7.03573295469547  0.75729557285729
 1 -4.65938815621562 -6.77841771797180  1.42539540794079
 8 -7.86705960126013  6.79814984638464 -0.32993642204220
 1 -9.31401478527853  6.30399781548155 -1.87846631413141

