%nproc=3
%Mem=2GB
# td=(NStates=1) iop(3/107=0140000000,3/108=0140000000) iop(3/107=0140000000,3/108=0140000000) CAM-B3LYP/6-31G(d,p) 

TD

0 1
12 -5.68852458365837  1.13349337703770  0.19108177697770
 6 -5.00214033583358 -2.08815277997800 -0.35480854595460
 6 -3.47583904380438  1.12014455595560  2.85175661386139
 6 -6.10300672297230  4.50018804190419  0.70643300450045
 6 -7.99107002500250  1.14889357175718 -2.34252834673467
 7 -4.36304338883888 -0.24622054515452  1.05672583958396
 6 -4.29708492889289 -1.60938211961196  0.74062778127813
 6 -3.23603500520052 -2.36303750235024  1.59837542614261
 6 -2.95951010641064 -1.40175084478448  2.78156494309431
 6 -3.70192699269927 -0.05428458105811  2.19368002660266
 6 -3.53283539153915 -1.80418711131113  4.05271313071307
 6 -1.93800864416442 -2.68754274747475  0.67145133123312
 6 -1.01151891479148 -3.59940502840284  1.47577145404540
 6  0.28509437683768 -3.90652552465246  0.64429259035904
 8  0.39596345024502 -3.48664835363536 -0.53569358475848
 8  1.10283196539654 -4.62722786758676  1.28823481198120
 7 -5.00661921292129  2.54636487318732  1.53748043464346
 6 -4.03881796899690  2.36537455345535  2.50772599839984
 6 -3.75480601780178  3.58493857635764  3.17886683108311
 6 -4.44393014871487  4.65855432093209  2.54804068826883
 6 -5.25309467186719  3.88327300380038  1.55964111601160
 6 -2.89335796069607  3.77606469016902  4.38635250575058
 6 -4.55098779877988  6.01743177737774  2.77413285008501
 8 -3.91894438173817  6.54653948414841  3.72397637013701
 7 -6.86768841844184  2.57687562006201 -0.67566023372337
 6 -6.99310150795080  3.96306671217122 -0.29113731683168
 6 -7.83565870607061  4.61826288308831 -1.28413122222222
 6 -8.36029906270627  3.65773490359036 -2.03663821622162
 6 -7.71586539803980  2.49004717881788 -1.70683445324532
 6 -8.22427470617062  6.12386375607561 -1.19155028962896
 6 -9.41323780218022  3.79252019031903 -3.13609615821582
 6 -8.77387636833683  3.85882724582458 -4.57369061576158
 7 -6.54929069636964 -0.11808698889889 -1.09960098049805
 6 -7.37265087178718 -0.06834774037404 -2.04801072367237
 6 -7.59097221382138 -1.43181833453345 -2.76028905350535
 6 -6.68401388508851 -2.22373614691469 -2.14384359425943
 6 -6.06168409190919 -1.42701673117312 -1.04866273097310
 6 -8.58927430213021 -1.62901268986899 -3.77401832123212
 6 -6.13962758985899 -3.49857896389639 -1.99671506540654
 8 -6.35372861346135 -4.54985995609561 -2.67803804950495
 6 -5.01940219371937 -3.53735550225023 -0.91287790859086
 6 -5.28458558615862 -4.62385758735874  0.12307945894589
 8 -5.79749393199320 -4.42488842224222  1.21939906020602
 8 -5.05675563876388 -5.83119700380038 -0.39438360976098
 6 -5.39481283048305 -6.91574516561656  0.45272280708071
 6  2.37648433003300 -5.00347660786079  0.68059604090409
 6  3.43411672177218 -4.02231373067307  0.95303658945895
 6  3.95798490219022 -3.09608942984298  0.12171454645465
 6  3.71973687098710 -3.00224341274127 -1.32083975277528
 6  5.18229243524352 -2.29600386858686  0.56370822172217
 6  6.55411101580158 -2.68353330633063 -0.02326200030003
 6  7.60799992669267 -1.67019866566657  0.54693852845285
 6  9.03423203170317 -1.99521550355036 -0.08609532273227
 6  9.55396247634763 -3.44601450395040  0.15140826582658
 6  10.00993642924293 -0.89223984488449  0.36915487888789
 6  11.26527968526853 -0.76392918801880 -0.38418372897290
 6  12.23347096769677  0.38483767426743  0.06870765896590
 6  13.54517391149115  0.45002468936894 -0.63112286948695
 6  14.43013118611861 -0.81948267826783 -0.20694737993799
 6  14.29194913311331  1.71782655485549 -0.22193983638364
 6  15.55694497539754  2.03787572287229 -0.95846295399540
 6  16.11708132783278  3.51279378937894 -0.66602769576958
 6  17.35980037473747  3.94954386988699 -1.36673772157216
 6  17.16931591369137  4.06215177787779 -2.82573489348935
 6  17.91960537973797  5.23005113111311 -0.76768772577258
 1 -2.77262276817682  1.20778764236424  3.70840845204520
 1 -6.47193807670767  5.58318452065207  0.63354311701170
 1 -8.76862206130613  1.34202846434643 -3.23920930183018
 1 -3.68301536673667 -3.26219933663366  1.97342308440844
 1 -1.78762984898490 -1.20570817901790  2.80105227122712
 1 -3.12562188738874 -2.74136071697170  4.21769171507151
 1 -3.43711031113111 -1.04227634533453  4.82451858775878
 1 -4.66251792759276 -1.93131104910491  4.10972419501950
 1 -2.17199436503650 -3.10277332233223 -0.37953568816882
 1 -1.57528822852285 -1.69121774917492  0.50922176347635
 1 -0.60167455755576 -3.09462943524352  2.50987552865287
 1 -1.29565904450445 -4.39622645894589  1.92580161686169
 1 -1.90185883798380  3.68074276097610  4.28562094319432
 1 -3.04479213321332  4.83350298939894  4.67097276017602
 1 -3.34775470797080  3.23910710481048  5.26373335013501
 1 -5.19077293659366  6.62931091359136  2.11482359815982
 1 -10.20796477897790  2.98788594049405 -3.28361951655166
 1 -10.01100858375838  4.73488102260226 -3.03305629822982
 1 -9.62961872277228  3.93257115711571 -5.30542685328533
 1 -8.12444641064106  4.74390633123312 -4.69955963776378
 1 -8.28917919281928  3.02251656555656 -4.71585570027003
 1 -8.35134171577158 -1.10131338903890 -4.65923589258926
 1 -8.44171379927993 -2.74005106540654 -4.12904224812481
 1 -9.67074032313231 -1.39554618921892 -3.49307359245925
 1 -4.12897467346735 -3.91411723472347 -1.54079901000100
 1  2.68712665646565 -5.94964225732573  1.17056544444444
 1  2.27789111571157 -5.10630915731573 -0.32127756285629
 1  3.97655363776378 -4.09076919921992  1.97285564966497
 1  2.84736218811881 -3.63794534943494 -1.90353300340034
 1  3.83786112411241 -1.94696939753975 -1.50160837833783
 1  4.65444795219522 -3.50495235153515 -1.69637109440944
 1  4.96650051905191 -1.29138468306831  0.25979637073707
 1  5.42162452085209 -2.43894821202120  1.82359624592459
 1  6.92130135013501 -3.59562386188619  0.30198952065207
 1  6.43525236473647 -2.67182939893989 -1.17843752995300
 1  7.36040684228423 -0.70013656795680  0.53856260956096
 1  7.50263917411741 -1.68173642214221  1.65702317471747
 1  9.01424732433243 -1.89796783748375 -1.10992921162116
 1  8.85121728712871 -4.33000186008601 -0.33342581278128
 1  10.48945197459746 -3.69832318701870 -0.17641522342234
 1  9.58851559915992 -3.69840556915692  1.24206516951695
 1  9.46898795969597 -0.06293788338834  0.16577575197520
 1  10.28702766136614 -0.86893521282128  1.40877181448145
 1  11.66485841694169 -1.94290161186119 -0.39533884168417
 1  10.88770471067107 -0.56071770727073 -1.45381622532253
 1  11.59037905600560  1.17742081388139 -0.14593180358036
 1  12.50168092679268  0.17569885318532  1.20928010311031
 1  13.32179292159216  0.42801754455446 -1.59561576637664
 1  14.58099832703270 -0.83946696399640  0.99378447594759
 1  13.71551193769377 -1.75493867276728 -0.40984723882388
 1  15.46472632913291 -0.69185251295130 -0.60989339233923
 1  13.59100834643464  2.50068836803680 -0.55517539483948
 1  14.55764337653765  1.81390780528053  0.85413424072407
 1  16.26564529162916  1.25336079757976 -0.72733054805481
 1  14.97619241474147  2.02979123052305 -1.97243077397740
 1  15.22393385548555  4.25392860056006 -0.93079435943594
 1  15.97348698259826  3.39171513091309  0.46195865466547
 1  18.11582139893989  3.11284479297930 -1.00197458535854
 1  16.66022315911591  5.09362664156416 -3.03179745864586
 1  18.14420681058106  3.93624001720172 -3.38596603020302
 1  16.54880956625662  3.14796970817082 -3.35965651885189
 1  18.08326620062006  5.21148180118012  0.34767393309331
 1  18.85023263406341  5.51858808530853 -1.17227936903690
 1  17.12538510831083  5.93828823892389 -0.94409276137614
 1 -5.03923180778078 -7.73158425782578 -0.12865718171817
 1 -6.40688117941794 -6.97968735013501  0.63010285358536
 1 -5.01178339573957 -6.85365524172417  1.50904377277728
 8 -7.66878977427743  6.91102113351335 -0.51306473487349
 1 -9.02374575837584  6.57077449314932 -1.98450691819182

