%nproc=3
%Mem=2GB
# td=(NStates=1) iop(3/107=0140000000,3/108=0140000000) iop(3/107=0140000000,3/108=0140000000) CAM-B3LYP/6-31G(d,p) 

TD

0 1
12 -5.52250798199820  1.18186821452145  0.21727439623962
 6 -5.02079220102010 -2.13445741044104 -0.38826189128913
 6 -3.46787824772477  1.12815535703570  2.82867430563056
 6 -6.26047246954696  4.52917094019402  0.58176053725373
 6 -7.86039695769577  1.13796247864786 -2.46913100700070
 7 -4.38657574207421 -0.31064698779878  1.06496666366637
 6 -4.22648786918692 -1.59610079147915  0.69346306480648
 6 -3.18732013371337 -2.28375957455746  1.52701829042904
 6 -2.86783093849385 -1.37224789448945  2.63242002860286
 6 -3.53921072107211 -0.08567772037204  2.13225388398840
 6 -3.39576168416842 -1.76482317491749  3.97569542894289
 6 -1.95842068536854 -2.66396038923892  0.64242842894289
 6 -0.98926668956896 -3.64655974387439  1.41343522042204
 6  0.25191105850585 -3.90182505460546  0.52689085018502
 8  0.42934678857886 -3.43205289408941 -0.55747576297630
 8  1.08838052025203 -4.76438158295830  1.18183417191719
 7 -4.90991954295430  2.49873010971097  1.49530621722172
 6 -3.99592367956796  2.40113812981298  2.48190341614161
 6 -3.73334387158716  3.62213229572957  3.20338928332833
 6 -4.55273102880288  4.58347681318132  2.66755263946395
 6 -5.32736209860986  3.95627030353035  1.60253540544054
 6 -2.87261588648865  3.80275735943594  4.39312318281828
 6 -4.68378107810781  6.02107214141414  2.98661409820982
 8 -3.95713820112011  6.59477430763076  3.87623159565957
 7 -6.85199684928493  2.60881881438144 -0.73876654435444
 6 -6.97541973977398  3.92901330683068 -0.35187339043904
 6 -7.86042118231823  4.56673773057306 -1.32043485258526
 6 -8.41395442824282  3.58879800990099 -2.09686423882388
 6 -7.75605941744174  2.31699987408741 -1.75995976577658
 6 -8.32401468016802  5.98327969766977 -1.21022215681568
 6 -9.47098357675768  3.80147108540854 -3.19329187778778
 6 -8.91510049074908  4.03813517661766 -4.55375862256226
 7 -6.37637340464046 -0.12879806000600 -1.07845886628663
 6 -7.20362396909691 -0.06114702030203 -2.15092101470147
 6 -7.47987110371037 -1.31948710141014 -2.68975199979998
 6 -6.58522400610061 -2.19680345364536 -2.10996020592059
 6 -5.99101702520252 -1.44857888738874 -1.12159002370237
 6 -8.36672204690469 -1.63171295989599 -3.85375629502950
 6 -6.24661828892889 -3.66500560656066 -2.03013840774077
 8 -6.56836007660766 -4.64417938803880 -2.55619586528653
 6 -5.13205345884588 -3.57966973367337 -0.86877349814981
 6 -5.43487061466147 -4.54946014761476  0.21737888888889
 8 -5.87201138373837 -4.42400833423342  1.34576169646965
 8 -5.33628359155916 -5.86209009310931 -0.26591076247625
 6 -5.62383573277328 -6.92519611071107  0.65760329512951
 6  2.42575925752575 -5.06053231343134  0.64089207050705
 6  3.41325463556356 -4.04697619691969  0.97614890069007
 6  4.03364246794679 -3.20235005590559  0.12608498349835
 6  3.66972186948695 -2.91702489088909 -1.30864853365337
 6  5.10976518251825 -2.32364663286329  0.69085093599360
 6  6.52217782248225 -2.53107806080608 -0.04359403350335
 6  7.58892801950195 -1.55560720652065  0.47563139773977
 6  9.00228883738374 -1.80880686268627 -0.10945765896590
 6  9.52186926702670 -3.31772167466747  0.18842196719672
 6  9.99284472007201 -0.79502012291229  0.31463942734273
 6  11.37603076037604 -0.86560935603560 -0.39967527812781
 6  12.21360898149815  0.34989417991799  0.15127591579158
 6  13.55177457155716  0.43304299119912 -0.63418317551755
 6  14.55911408440844 -0.70433116311631 -0.39945663086309
 6  14.26726666486649  1.80559533173317 -0.11191883428343
 6  15.54125340624062  2.11180311561156 -1.08124523222322
 6  16.03189280898090  3.51220373037304 -0.63438453145315
 6  17.35158955365537  3.75427434293429 -1.23531457925793
 6  17.39246822892289  3.95535109780978 -2.73974629462946
 6  18.02590600980098  5.02723084908491 -0.67544850185018
 1 -2.70828633453345  1.27175403900390  3.57649526072607
 1 -6.53689457235724  5.58590479267927  0.78425818851885
 1 -8.44384958405841  1.14642890439044 -3.36742212311231
 1 -3.56375344054405 -3.22961607830783  1.98877461956196
 1 -1.73260434643464 -1.26130373857386  2.81858402440244
 1 -2.80152947814781 -2.56048262916292  4.38141808770877
 1 -3.29557615771577 -1.11788390609061  4.96670280618062
 1 -4.54345602140214 -1.84737265526553  4.05225844844484
 1 -2.29525669126913 -3.20370341534153 -0.12656039063906
 1 -1.40860155985599 -1.84468309570957  0.27642848414842
 1 -0.82882727282728 -3.05696566886689  2.29825436653665
 1 -1.42998247684768 -4.64425126142614  1.67010604730473
 1 -1.77998665076508  3.49283397009701  4.23216559765977
 1 -3.08007566156616  4.77911755085509  4.83555921882188
 1 -3.35936586908691  3.13027622172217  5.27929490629063
 1 -5.51550540984098  6.71783976647665  2.58526064186419
 1 -9.98023200570057  2.77717486938694 -3.32051320592059
 1 -10.16833431633163  4.51446898139814 -3.16620961356136
 1 -9.69479524042404  3.90573847384738 -5.39640595119512
 1 -8.56594056005600  5.10796273687369 -4.56156583838384
 1 -7.94097437233723  3.56478079197920 -4.67019113381338
 1 -8.20661724332433 -0.92554581228123 -4.78878884788479
 1 -8.15101472937294 -2.66467352765277 -4.27211655555555
 1 -9.35830908000800 -1.74368100270027 -3.61748603370337
 1 -4.13804558055806 -3.97432325532553 -1.40454538463846
 1  2.68013595739574 -6.11995928902890  1.07681606950695
 1  2.34727805440544 -5.15606413281328 -0.42426786188619
 1  3.64010999339934 -4.10888101040104  1.94630299439944
 1  2.65783323522352 -3.09797135203520 -1.50041269136914
 1  3.76267360536054 -1.97216191679168 -1.80690890839084
 1  4.17399990739074 -3.74340619691969 -2.02824428172817
 1  4.65962983198320 -1.29239478407841  0.56335672677268
 1  5.44970732913291 -2.09668398559856  1.75271915821582
 1  6.64257347734773 -3.62951725122512  0.09763908560856
 1  6.36820566006601 -2.23271548754876 -1.21070075627563
 1  7.36474727632763 -0.57433398769877  0.34730348364836
 1  7.51462037223722 -1.68691694019402  1.67846531893189
 1  8.58217411701170 -1.87004504520452 -1.11529974867487
 1  8.90238240364036 -4.24873373327333 -0.16104857505751
 1  10.57787081648165 -3.33899725442544 -0.33914149604961
 1  9.62453920152015 -3.33418914751475  1.27742870587059
 1  9.68791985288529  0.20383879427943  0.00955012941294
 1  10.25269422802280 -0.83573189248925  1.49675061236124
 1  11.82477440854085 -1.73314063576358 -0.13614292209221
 1  11.57225316551655 -0.76134777027703 -1.57168801250125
 1  11.67008702680268  1.25606867866787 -0.01631884228423
 1  12.42786354505451  0.17345862916292  1.12722189728973
 1  13.30430117241724  0.58346308910891 -1.56182238703870
 1  14.86558678587859 -0.80334335163516  0.65690078757876
 1  14.14454484098410 -1.63742692159216 -0.75374162826283
 1  15.40492034853485 -0.35777910561056 -1.11411381438144
 1  13.65201444704470  2.58750704990499 -0.31228110541054
 1  14.67980559275928  1.82810922542254  0.75529435673567
 1  16.31575030213021  1.32486794829483 -0.99115693069307
 1  15.34990978647865  2.06072432383238 -2.12803633453345
 1  15.19521098319832  4.23283649134913 -0.87801908190819
 1  16.20776040994099  3.59127508690869  0.49439189798980
 1  18.22281209800980  2.88183169166917 -1.38430281818182
 1  16.66848398519852  4.86101338023802 -3.00097437633763
 1  18.51376376627663  4.10072646584658 -3.24252168576858
 1  17.00848553385338  2.92885779697970 -3.19020957415742
 1  18.44739261326133  4.91736238923892  0.14611377707771
 1  19.13278088888889  5.11321754825483 -1.45821796289629
 1  17.44517708750875  6.09700411051105 -0.60290864296430
 1 -5.47033491809181 -7.59142024142414  0.07431311531153
 1 -6.58536902820282 -6.96147552895290  0.80828067136714
 1 -5.10687290469047 -6.76532640884088  1.49059192759276
 8 -7.93169606490649  6.86563659505951 -0.48883231163116
 1 -9.20338372217222  6.20488790449045 -1.98937740524052

