%nproc=3
%Mem=2GB
# td=(NStates=1) iop(3/107=0140000000,3/108=0140000000) iop(3/107=0140000000,3/108=0140000000) CAM-B3LYP/6-31G(d,p) 

TD

0 1
12 -5.60328605980598  1.17837786548655  0.19312198099810
 6 -5.14919504130413 -2.10928489318932 -0.36706977207721
 6 -3.29341080098010  1.12519506100610  2.69392083028303
 6 -6.20505692799280  4.51305932903290  0.70128248944895
 6 -8.00100101810181  1.20775945834583 -2.43205729962996
 7 -4.33040012451245 -0.30152607570757  0.97606777377738
 6 -4.25866108650865 -1.66004718611861  0.64584830333033
 6 -3.25392679437944 -2.37857905650565  1.47965355395540
 6 -2.89303345874587 -1.33525419511951  2.66306309290929
 6 -3.47650445044504 -0.08360751335133  2.04967562616262
 6 -3.65786789478948 -1.78318501110111  3.96113397279728
 6 -2.01067591089109 -2.70981497469747  0.68503268936894
 6 -1.04633239613961 -3.65233032093209  1.32588646554655
 6  0.21077694509451 -3.84154902700270  0.51182934403440
 8  0.35290914481448 -3.46495618441844 -0.56925694109411
 8  1.07335901810181 -4.62795794059406  1.22758874737474
 7 -4.86981553255325  2.60266050275027  1.45009169576958
 6 -3.94099818701870  2.31733974997500  2.39847507330733
 6 -3.67492803000300  3.57641772427243  3.06510545494549
 6 -4.59791554725473  4.56474493999400  2.58966485068507
 6 -5.23584294669467  3.96479115561556  1.53505865776578
 6 -2.68631725662566  3.71015809950995  4.13907777827783
 6 -4.55961866186619  5.95777581178118  2.97637307410741
 8 -3.84014650195020  6.49964479467947  3.78481245374537
 7 -6.78328997859786  2.56778471097110 -0.71725439313931
 6 -6.92706490429043  3.85052545804581 -0.35397360046005
 6 -7.78636377657766  4.62308336513651 -1.25040784988499
 6 -8.31594462726273  3.75783491359136 -2.12680723312331
 6 -7.74816862836284  2.42351052515252 -1.77305107490749
 6 -8.12885516421642  6.03270464016402 -1.05803693829383
 6 -9.36375285368537  3.83290422872287 -3.19711225982598
 6 -8.72027100780078  3.98296966006601 -4.57090033673367
 7 -6.45743151045104 -0.20524570477048 -1.14791581198120
 6 -7.41023463016302 -0.03617452305231 -2.07225314791479
 6 -7.74360747734773 -1.28019317201720 -2.75796882148215
 6 -6.79799528322832 -2.17923169646965 -2.03369257915792
 6 -6.02695061856186 -1.49762379187919 -1.10393825852585
 6 -8.76595196989699 -1.70007979657966 -3.76021694109411
 6 -6.40893452055206 -3.64003310931093 -2.01241663556356
 8 -6.77394063466347 -4.54655962606261 -2.71949219491949
 6 -5.15955620912091 -3.63032479917992 -0.94307092789279
 6 -5.40227735533553 -4.65255045664567  0.10958810981098
 8 -5.77167134973497 -4.42569850325033  1.28338545884588
 8 -5.13613357655766 -5.83770765486549 -0.30908507990799
 6 -5.39062241144114 -6.81641523262326  0.66440397519752
 6  2.37261394299430 -4.93887014721472  0.66709469076908
 6  3.46017932803280 -4.05962746204620  1.11391267706771
 6  4.01365046874687 -3.21392121302130  0.24210658565857
 6  3.74778967626763 -3.03356654505451 -1.19216688548855
 6  5.24050825682568 -2.42162643084308  0.78638048894889
 6  6.54945054975498 -2.58958391139114  0.06988731463146
 6  7.72893201990199 -1.67567921372137  0.53834766936694
 6  9.04256286478648 -1.86746272827283 -0.09274598779878
 6  9.53657073717372 -3.35691559405941  0.27637076207621
 6  10.03615905150515 -0.90349096999700  0.44160212361236
 6  11.47023018031803 -0.98706150125013 -0.11700701130113
 6  12.25314293489349  0.36146533703370  0.29799058725873
 6  13.57434682878288  0.48651833873387 -0.57019677687769
 6  14.55821399439944 -0.60150088008801 -0.42251893709371
 6  14.29452939113911  1.79520429262926 -0.14356199859986
 6  15.45237451835184  2.17575951125113 -1.11886899459946
 6  15.99438905860586  3.64682719271927 -0.71679277227723
 6  17.34666906160616  3.87476639213921 -1.37133818161816
 6  17.29074805690569  3.96833239593959 -2.87540986098610
 6  17.75310873007301  5.26616474247425 -0.78286924392439
 1 -2.36184169006901  1.10086695029503  3.72174978617862
 1 -6.24958584148415  5.58661486368637  0.73447321002100
 1 -8.77564276337634  1.01599586108611 -3.04952033293329
 1 -3.79187625282528 -3.25288840554055  1.94028977107711
 1 -1.81518260426043 -1.29669727792779  2.93674584058406
 1 -3.22681200640064 -2.77004358525853  4.28072801870187
 1 -3.53259986008601 -0.93593571127113  4.69712584848485
 1 -4.62805448124812 -1.97286520452045  3.64956817941794
 1 -2.30885805140514 -3.16057910291029 -0.13359109370937
 1 -1.79852055175518 -1.70153878127813  0.33808464976498
 1 -0.65438982908291 -3.31459143144314  2.31722626372637
 1 -1.23649312791279 -4.70531736803680  1.56111514821482
 1 -1.53908256035604  3.44045873257326  3.87953033413341
 1 -2.77999565356536  4.71344098319832  4.37846350925092
 1 -2.95802573507351  3.18797199129913  5.08412538933893
 1 -5.25662952225222  6.60600858335834  2.32446456225623
 1 -10.10621460396040  3.04991214311431 -2.98914006860686
 1 -9.85712319521952  4.87150468496850 -3.02421541414141
 1 -9.37861362226223  4.48611651165116 -5.25642195279528
 1 -8.02666663266327  4.97774971557156 -4.27127680948095
 1 -8.01912218711871  3.29377369126913 -5.11695581028103
 1 -8.67762434403440 -1.21435469316932 -4.68084805380538
 1 -8.68428805670567 -2.84701176147615 -4.24165350925093
 1 -9.81634488358836 -1.57934456905691 -3.36588087318732
 1 -4.33031480748075 -3.96400222322232 -1.61666659675968
 1  2.64928287208721 -5.96687398049805  1.14361274917492
 1  2.10414374097410 -5.21282980938094 -0.35925136023602
 1  3.73137912031203 -4.18079820212021  2.11724008810881
 1  2.65138259015902 -3.22141369626963 -1.49384203430343
 1  4.13700103810381 -1.97968266886689 -1.51116933443344
 1  4.41406391379138 -3.73731558785879 -1.71379283658366
 1  5.17096096509651 -1.21874741934193  0.89817020812081
 1  5.38726108450845 -2.86574089128913  1.89989387568757
 1  6.88229744974497 -3.80545484498450  0.07507682938294
 1  6.31017985748575 -2.44590680668067 -1.16827651385139
 1  7.38369917151715 -0.58090464476448  0.61394014731473
 1  7.67468637883788 -1.87007525602560  1.65985345774577
 1  9.12378827842784 -1.84042208290829 -1.14712293099310
 1  8.72288445384538 -4.16569542944294  0.04038156795680
 1  10.48948197759776 -3.65666902160216 -0.18934651655166
 1  9.66662340994099 -3.35418114671467  1.34573553655366
 1  9.64830589148915  0.22228063846385  0.31206038043804
 1  10.23548250685069 -0.93116143544354  1.39955089238924
 1  12.09324125522552 -2.00622794449445  0.24174486668667
 1  11.37628356855686 -0.94113574907491 -1.25383622732273
 1  11.67992801090109  1.12076514831483 -0.03771098149815
 1  12.42397315601560  0.25511679497950  1.29553872897290
 1  13.28685942824282  0.65104984778478 -1.65628183298330
 1  14.71444167136714 -0.78177119441944  0.69792488998900
 1  13.87801818831883 -1.60863404230423 -0.78179443354335
 1  15.59777963446345 -0.42809613731373 -0.94999740274027
 1  13.55337458305831  2.50478877807781 -0.53171304860486
 1  14.57337494969497  1.82234864936494  0.95597442474247
 1  16.18622734983498  1.24000946244624 -1.03349116411641
 1  15.33994879037904  2.08247649904991 -2.19544307520752
 1  15.30779224132413  4.44835804350435 -0.80364164416442
 1  16.21490112401240  3.78779473887389  0.30742320112011
 1  17.99080889768977  3.08426193469347 -1.13113750165016
 1  16.46343348014801  4.58640591949195 -3.19506378527853
 1  18.29239162906291  4.26049244244424 -3.34613204680468
 1  17.02539722502250  2.91858676987699 -3.13974452765276
 1  17.78606648064806  4.96215686868687  0.29321848754875
 1  18.80882849364937  5.50530675717572 -1.02671481258126
 1  16.90361293109311  6.17980239033903 -1.06771512361236
 1 -5.18622650725073 -7.57758885828583 -0.05367968396840
 1 -6.43181367266727 -7.10928030943094  1.08822866616662
 1 -4.65029724712471 -6.91423129932993  1.52475534393439
 8 -7.72720561586159  6.83690372177218 -0.25971940034003
 1 -8.96122950675067  6.35837325302530 -1.62066053355336

