%nproc=3
%Mem=2GB
# td=(NStates=1) iop(3/107=0140000000,3/108=0140000000) iop(3/107=0140000000,3/108=0140000000) CAM-B3LYP/6-31G(d,p) 

TD

0 1
12 -5.52762849404940  1.19264929262926  0.15801847064706
 6 -5.02124224602460 -2.17092105680568 -0.38325139023902
 6 -3.49476093599360  1.10517305880588  2.77709914811481
 6 -6.19768619091909  4.47193521662166  0.69918227942794
 6 -7.81703262126213  1.23902258465847 -2.44431852575257
 7 -4.44212129662966 -0.34274019711971  1.12263243024302
 6 -4.30075529592959 -1.69589077047705  0.65788950745075
 6 -3.26668807050705 -2.38435963456346  1.48835442404240
 6 -2.93304746014601 -1.39606027572757  2.60864765136514
 6 -3.59570637063706 -0.13945309790979  2.16254691329133
 6 -3.40301240924092 -1.78467516011601  4.08126598599860
 6 -1.97984282758276 -2.59446343954395  0.60684487058706
 6 -1.11588935183518 -3.66610169806981  1.30591446834683
 6  0.22609847724772 -3.80466533863386  0.57061522262226
 8  0.36542039593959 -3.50193988278828 -0.59544956035604
 8  1.03646532873287 -4.71581672647265  1.17903389188919
 7 -4.90865941694169  2.62003223992399  1.53740042664266
 6 -4.00022410961096  2.35723373937394  2.60431565736574
 6 -3.74670520772077  3.59433951645165  3.16209515391539
 6 -4.56755251095109  4.58160662616262  2.57353323752375
 6 -5.27263662606261  3.93859853635364  1.56280143204320
 6 -2.82572119701970  3.71349843354335  4.32985685618562
 6 -4.50609330933093  5.99950998519852  2.88565400220022
 8 -3.93370585788579  6.49084391459146  3.92709668216822
 7 -6.77779942954295  2.66486441894189 -0.73954662236224
 6 -6.86561875967597  3.90668107360736 -0.39529773287329
 6 -7.83978911911191  4.62207326412641 -1.26164897399740
 6 -8.36084911771177  3.67486661676168 -2.05530008240824
 6 -7.64676848834883  2.43944211831183 -1.75690946074607
 6 -8.27563984268427  5.98412978267827 -1.15971710631063
 6 -9.41221770017002  3.89648058635864 -3.19177172577258
 6 -8.81049002970297  3.96233759685969 -4.57354060076008
 7 -6.32781854915492 -0.16512169236924 -1.12347336773677
 6 -7.27440104680468 -0.06240714631463 -2.18948487108711
 6 -7.49663277987799 -1.37068222092209 -2.75674869946995
 6 -6.56631211491149 -2.15214898819882 -2.18797800770077
 6 -5.89181710521052 -1.41974600410041 -1.17165503020302
 6 -8.53166854155416 -1.77483727232723 -3.75499641904190
 6 -6.14321794889489 -3.50899000500050 -2.00912630653065
 8 -6.53094633523352 -4.52287725782578 -2.72015226092609
 6 -5.19703995749575 -3.59893165986599 -0.90914753555356
 6 -5.44826195379538 -4.57938313991399  0.21104825582558
 8 -5.86198038063806 -4.32977891129113  1.35006212651265
 8 -5.21066102930293 -5.83677756185619 -0.29989416081608
 6 -5.47747109630963 -6.83528711981198  0.69143667846785
 6  2.39494617621762 -5.11441770197020  0.57040502180218
 6  3.35139844994499 -4.02855435473547  1.02574386018602
 6  3.92171127482748 -3.16114593549355  0.12530490549055
 6  3.61537643494349 -2.98421160956096 -1.42086975577558
 6  5.16103030903090 -2.31406567476748  0.75373722462246
 6  6.49391499619962 -2.51138609160916  0.07785811171117
 6  7.61105023172317 -1.77440908670867  0.72786662126213
 6  8.98344695319532 -1.95932191419142 -0.04100081328133
 6  9.58461554165416 -3.33494339683968  0.32740586558656
 6  10.07580301590159 -0.95929655055506  0.46658462186219
 6  11.37925108240824 -0.84267706280628 -0.30155546614661
 6  12.17895551615162  0.34217340784078  0.14635542374237
 6  13.54284367846785  0.50967065396540 -0.49746950415042
 6  14.50588876187619 -0.63626435643564 -0.28076476167617
 6  14.22974291249125  1.73646841904190 -0.14836247864786
 6  15.44239352025203  2.16750868616862 -1.02660976867687
 6  16.00212983268327  3.56964947494749 -0.72677377037704
 6  17.36751114581458  3.91297021252125 -1.43157420522052
 6  16.95628461056106  4.06690225292529 -2.97138945894589
 6  18.05479889908991  5.13429155515552 -0.91992294929493
 1 -2.86482198809881  1.04554141774177  3.75204281548155
 1 -6.39160004290429  5.52703890609061  0.80620038273827
 1 -8.65295049414942  1.16289055055506 -3.10637601850185
 1 -3.58654571977198 -3.23770688738874  1.78900464256426
 1 -1.95143622962296 -1.22597020522052  2.67317948394839
 1 -3.24543386858686 -2.79711629252925  4.24445439133913
 1 -3.17386398649865 -1.14052617031703  4.86880301620162
 1 -4.49176085188519 -1.99150706870687  3.90527374997500
 1 -2.24053121872187 -3.04058710371037 -0.24164189878988
 1 -1.51075177487749 -1.49085771317132  0.63242408370837
 1 -0.69824421452145 -3.19450942324232  2.29695423652365
 1 -1.47244672327233 -4.64761159745975  1.60922995969597
 1 -1.79069772187219  3.46562124882488  4.08683106420642
 1 -2.72710036403640  4.77379701880188  4.57678334123412
 1 -2.99524945744574  2.92640583468347  5.11415839263926
 1 -5.09021288058806  6.47991597409741  2.22341445724572
 1 -10.22485646814681  3.11625877777778 -3.16877803240324
 1 -10.04204168706871  4.70000753525353 -2.76780977357736
 1 -9.73365912681268  3.91238913891389 -5.20647695829583
 1 -8.25025899189919  4.90639257985799 -4.76616629842984
 1 -8.22693296819682  3.09922423632363 -4.86110022472247
 1 -8.58815539713972 -1.27934119181918 -4.60125009400940
 1 -8.38106773467347 -2.74030109040904 -4.20322966686669
 1 -9.42945619471947 -1.54235086968697 -3.39086337143714
 1 -4.08827060306031 -3.94936075907591 -1.13638856895690
 1  2.41861980578058 -5.98591588468847  1.21287967586759
 1  2.39088241484148 -5.25766429282928 -0.51051648674867
 1  3.71027701010101 -4.11730185248525  2.10461882598260
 1  2.62576002790279 -3.48545009990999 -1.79109175927593
 1  3.64225156315632 -2.09626432703270 -1.81809002650265
 1  4.49515202260226 -3.41340319661966 -1.67909936723672
 1  5.10221409040904 -1.37074261886189  0.62591298239824
 1  5.19787214561456 -2.34680899809981  1.88612249854986
 1  6.61061028102810 -3.58391269076908  0.28662798449845
 1  6.57400624012401 -2.41887410341034 -1.07876756295630
 1  7.56278708030803 -0.58972552685269  0.88619737303730
 1  7.72810172037204 -2.18759700820082  1.74076154855486
 1  8.91346724632463 -1.83321136183618 -1.04457267596760
 1  8.92882504790479 -4.14855371527153  0.07165469526953
 1  10.57536056545655 -3.62299565426543 -0.27649523142314
 1  9.97211395899590 -3.32072780138014  1.28051901490149
 1  9.60264132503250  0.08141655205521  0.81996117051705
 1  10.25242420102010 -1.15276359565957  1.60537147444744
 1  12.02738466956696 -1.74300162186219 -0.09051835963596
 1  11.05166110631063 -0.78484011951195 -1.30481132483248
 1  11.41228124622462  1.14372744454445 -0.16129333973397
 1  12.42694345304530  0.15943722702270  1.27040621572157
 1  13.23716445874587  0.54289903270327 -1.44903110791079
 1  14.86854708190819 -0.80971398869887  0.86126122362236
 1  14.04532491899190 -1.58982216111611 -0.69058531263126
 1  15.38053791029103 -0.53356668436844 -1.01658406140614
 1  13.70662990859086  2.75883418261826 -0.02306218351835
 1  14.48672628482848  1.52529894439444  0.83489231653165
 1  16.09335806290629  1.26731219271927 -0.81887970297030
 1  15.37865266076608  2.29591784318432 -2.03232676357636
 1  15.19346080818082  4.22751595929593 -1.06274755475548
 1  16.15850548444844  3.67279323872387  0.42847530633063
 1  18.12796261306131  3.29225273377338 -1.26680106800680
 1  16.18155529232923  4.90878815771577 -3.10545482438244
 1  17.83479586948695  4.34577097029703 -3.62554998859886
 1  16.50859554485448  3.20764567576758 -3.27697825102510
 1  18.40018789278928  5.06230688368837  0.16435560126013
 1  18.94637224802480  5.42324855135513 -1.66597873897390
 1  17.31451402120212  5.99802421252125 -0.98582693479348
 1 -5.06863474807481 -7.63461456085609  0.17476316031603
 1 -6.61141163246325 -6.90837021842184  0.79848969226923
 1 -4.88672088948895 -6.78570844704470  1.59476234463446
 8 -7.69647254255425  6.81457148854885 -0.45976940534053
 1 -9.26028941274127  6.19061647734773 -1.76806527402740

