%nproc=3
%Mem=2GB
# td=(NStates=1) iop(3/107=0140000000,3/108=0140000000) iop(3/107=0140000000,3/108=0140000000) CAM-B3LYP/6-31G(d,p) 

TD

0 1
12 -5.59213494469447  1.17949797749775  0.21135380418042
 6 -4.98219834163416 -2.14444840954095 -0.34933799889989
 6 -3.36405786568657  1.03163570507051  2.82454389258926
 6 -6.02892931523152  4.54503252635264  0.60605296649665
 6 -8.03210412841284  1.15207388978898 -2.21061515541554
 7 -4.32109919441944 -0.37292321542154  0.92253242024202
 6 -4.26332155255526 -1.66682786418642  0.59395311381138
 6 -3.21826322802280 -2.35835703430343  1.44975056365637
 6 -2.92758691409141 -1.47095776547655  2.61963875047505
 6 -3.53039983998400 -0.09995914851485  2.03272393099310
 6 -3.40549265726573 -1.91900859345935  4.00430829022902
 6 -1.88230307360736 -2.77689168236824  0.53889807590759
 6 -0.94480224312431 -3.57814290219022  1.42864674157416
 6  0.29768563596360 -3.91741661376138  0.51072923402340
 8  0.38695254915492 -3.56855654445445 -0.58245826122612
 8  1.09169085128513 -4.81293643844384  1.26035202370237
 7 -4.78117666866687  2.59339957665767  1.46513319991999
 6 -3.89824391159116  2.41155917191719  2.46297152295230
 6 -3.62703324052405  3.60724080658066  3.19279822422242
 6 -4.38452420812081  4.51553001850185  2.55126101030103
 6 -5.16914627702770  4.01524620112011  1.45211036293629
 6 -2.74827345224522  3.83257034073407  4.32013588408841
 6 -4.55228792879288  5.97353738793879  2.93436887368737
 8 -3.87687017431743  6.66167099729973  3.77652162466247
 7 -6.85911756135614  2.62432036453645 -0.69832249994999
 6 -6.83579577737774  3.91559196469647 -0.37219542264226
 6 -7.79972511271127  4.70049110591059 -1.23772658175818
 6 -8.40491352415241  3.66015514561456 -2.04593914631463
 6 -7.79748355985599  2.39837801190119 -1.70205397519752
 6 -8.01610388908891  6.05428679837984 -1.32440357495750
 6 -9.44790126852685  3.87495843414341 -3.05103765236524
 6 -8.96323530423042  3.92245360846085 -4.51908515521552
 7 -6.41390715801580 -0.12954813501350 -1.08764978537854
 6 -7.44546815351535 -0.05441634723472 -2.01885780838084
 6 -7.63257637423742 -1.36647179987999 -2.62000502510251
 6 -6.77015249894990 -2.23791756505651 -2.03077228712871
 6 -5.98449637313731 -1.35926995649565 -1.17354521922192
 6 -8.64950032473247 -1.56526631523152 -3.76848776817682
 6 -6.32276590369037 -3.58725783178318 -1.97541293519352
 8 -6.80914415501550 -4.55853082318232 -2.60141038673867
 6 -5.21575182868287 -3.70328209490949 -0.87191381218122
 6 -5.43244037163716 -4.64856005760576  0.20990814181418
 8 -5.83705788838884 -4.42948888228823  1.31882900320032
 8 -5.14143410661066 -5.98486237033703 -0.24042821422142
 6 -5.37103045224522 -7.05763935503550  0.65075261006101
 6  2.38503518511851 -5.10303656385639  0.59717769906991
 6  3.43301661176118 -3.96931843114311  0.86520780658066
 6  4.00192929662966 -3.10393021392139 -0.03590121512151
 6  3.64413931123112 -2.97755094349435 -1.41612928172817
 6  5.06757096309631 -2.16361062926293  0.51079293019302
 6  6.53009861456146 -2.59642459545955 -0.02565223932393
 6  7.54709383608361 -1.67646929272927  0.65464929952995
 6  8.90676928542854 -1.91775775777578 -0.05900261346135
 6  9.52820990109011 -3.34760466296630  0.23547667266727
 6  9.81377681328133 -0.83092371327133  0.48536650005000
 6  11.21182433973397 -0.79443223832383 -0.19088439903990
 6  12.09543716431643  0.50026921742174  0.17670845904590
 6  13.50301969606961  0.50619030593059 -0.58223798099810
 6  14.33920209320932 -0.74256498649865 -0.29006569176918
 6  14.24444438263826  1.84457923012301 -0.14250189258926
 6  15.59547882878288  2.15549748504850 -0.88202531023102
 6  16.13888350805080  3.52466497649765 -0.49754084708471
 6  17.39595399009901  3.93522243774377 -1.25864691249125
 6  17.17717669976998  4.01058662136214 -2.85160748074807
 6  17.78853227242724  5.31136926292629 -0.86960791779178
 1 -2.64748025392539  0.95199206280628  3.71740935213521
 1 -6.25508639153915  5.65306150835084  0.69337910061006
 1 -8.66193139223922  1.10869513101310 -3.07495287618762
 1 -3.56206327152715 -3.29758287498750  1.82261800390039
 1 -1.91714280028003 -1.26759436763676  2.67694986098610
 1 -2.54700402560256 -2.78820540144014  4.15561550745074
 1 -3.06993359345935 -0.98573069076908  4.68304444034403
 1 -4.33862553835384 -2.15713363136314  4.03236645924592
 1 -2.30775794139414 -3.28712175717572 -0.32440017461746
 1 -1.47790849054906 -1.96513514091409  0.09836067736774
 1 -0.61966635673567 -2.98355832813281  2.27210175127513
 1 -1.12975245384538 -4.61517835413541  1.96567560426043
 1 -1.70728938103810  3.85157984468447  3.97845022612261
 1 -2.61647930193019  4.92299193829383  4.61475713861386
 1 -2.82639257175718  3.10531372547255  5.13638061486149
 1 -5.47237109640964  6.37297528002800  2.30699281508151
 1 -10.30171415391539  3.17725487738774 -2.95952710731073
 1 -9.96660414331433  4.75703323782378 -2.70756374897490
 1 -9.66397215811581  4.51554945494550 -5.21883819441944
 1 -8.13045701170117  4.76840878147815 -4.37957763956395
 1 -8.44172444734473  2.97687200110011 -4.95968008270827
 1 -8.24277085868587 -0.98650190789079 -4.50014998399840
 1 -8.55317494539454 -2.60161722202220 -4.30914025792579
 1 -9.59960320942094 -1.23154978957896 -3.54214849994999
 1 -4.37203897989799 -4.14534035703570 -1.46369129922992
 1  2.71071901570157 -6.05446273937394  1.15947433533353
 1  2.05365869246925 -5.32722124852485 -0.53269870497050
 1  3.76305228762876 -3.65136525882588  1.99123748784878
 1  2.65483293519352 -3.52578413331333 -1.55207785788579
 1  3.45913325132513 -1.83172787338734 -1.79399761726173
 1  4.42638514591459 -3.39416127242724 -2.08318977627763
 1  4.84369823882388 -1.28660420502050  0.10488087918792
 1  5.08153051145115 -2.21007532473247  1.53423731003100
 1  6.71507072707271 -3.78580287978798 -0.07513819211921
 1  6.27399623912391 -2.24232644864486 -0.99541922812281
 1  7.20796159775978 -0.51011756605661  0.38684743804380
 1  7.47216612681268 -1.81104935343534  1.59648712111211
 1  8.63487938753875 -1.99409745044504 -1.10754897359736
 1  8.85027719311931 -3.92948180808081 -0.37149962016202
 1  10.39329235863586 -3.30295365006501 -0.26597417931793
 1  9.59896664426443 -3.70898662726273  1.24971593459346
 1  9.29103016391639 -0.01308289788979  0.28425760016002
 1  10.08920787938794 -1.34159247854786  1.43047398469847
 1  11.79463139423942 -1.60244756645665  0.05519621182118
 1  11.06860280048005 -0.69311094659466 -1.23192403610361
 1  11.42291230933093  1.31886495829583 -0.12943015341534
 1  12.24915567426743  0.44504578787879  1.30899007410741
 1  13.22211295359536  0.55937067986799 -1.58953515831583
 1  14.63121334853485 -0.78779179647965  0.85360045754575
 1  14.01183156965697 -1.66075925482548 -0.69785603970397
 1  15.21381123762376 -0.71313464116412 -0.70644304730473
 1  13.38501774737474  2.59390768996900 -0.53357323462346
 1  14.35133274547455  1.83053946844684  0.95878470577058
 1  16.44979370647065  1.26424188568857 -0.53979179417942
 1  15.47993278877888  2.13324157555756 -1.95034856575658
 1  15.29995145724572  4.32571577927793 -0.76451773177318
 1  16.28764839873987  3.68561452085209  0.72106456525653
 1  18.36376619341934  3.13612712121212 -1.18146253415342
 1  16.38020515731573  4.82074935383538 -2.99998427732773
 1  18.15309769966997  3.85362175537554 -3.37591502510251
 1  16.65175986128613  3.10942585378538 -3.04787534073407
 1  17.71654952895289  5.19645029802980  0.30004917061706
 1  18.93025063586359  5.27272349884989 -1.17832997409741
 1  17.02418498829883  6.06812122222222 -1.17475582768277
 1 -5.02582046664666 -7.96754785418542 -0.01020533653365
 1 -6.37510800210021 -7.17625700710071  0.88384822812281
 1 -4.78222043944394 -7.02056193239324  1.51144401280128
 8 -7.41132402770277  6.93216324772477 -0.64573800220022
 1 -8.67708109190919  6.55561297699770 -2.12199066656666

