%nproc=3
%Mem=2GB
# td=(NStates=1) iop(3/107=0140000000,3/108=0140000000) iop(3/107=0140000000,3/108=0140000000) CAM-B3LYP/6-31G(d,p) 

TD

0 1
12 -5.49149488068807  1.18497852555256  0.12707537633763
 6 -4.98300842264226 -2.13769773447345 -0.45468853395340
 6 -3.27891935183518  1.22535507700770  2.68180961916192
 6 -6.13315973827383  4.51118914201420  0.60274263546355
 6 -7.87248816681668  1.23549223162316 -2.51226532043204
 7 -4.38059514401440 -0.22709863296330  1.02874304130413
 6 -4.25965118551855 -1.58108929032903  0.64195791429143
 6 -3.28680008170817 -2.34498569716972  1.49470505910591
 6 -2.86325048044804 -1.31874254395440  2.54498128472847
 6 -3.50906770677068 -0.07549670227023  2.05524618321832
 6 -3.32228433643364 -1.77395408800880  3.96962482188219
 6 -2.00892573587359 -2.80125411861186  0.66012019811981
 6 -1.06131389428943 -3.66368145604560  1.39261313821382
 6  0.15511137853785 -3.99402427452745  0.61593975507551
 8  0.47556141004100 -3.43006269506951 -0.43740375577558
 8  0.93848553075308 -4.84588973377338  1.26361234973497
 7 -4.79828837983798  2.60516075277528  1.45752243884388
 6 -3.91869595679568  2.39686770277028  2.36652187798780
 6 -3.66457699489949  3.67479756225623  3.14198314271427
 6 -4.44070982668267  4.63339180468047  2.59242512671267
 6 -5.26896625902590  3.89498417491749  1.44574972687269
 6 -2.69809843474347  3.69311639533953  4.32053592409241
 6 -4.55260796079608  6.02865289948995  3.01249668646865
 8 -3.93625611291129  6.62568739893989  3.86596056855686
 7 -6.68668031763176  2.69316724922492 -0.82190485818582
 6 -6.91780397819782  3.91965237073707 -0.33567177027703
 6 -7.87989312951295  4.66866792359236 -1.22365517461746
 6 -8.39584261706171  3.66683581368137 -2.04627918031803
 6 -7.64975878737874  2.46103427752775 -1.88114188398840
 6 -8.31443372207221  6.03949531923192 -1.18613974857486
 6 -9.35790226862686  3.72082302060206 -3.19492204080408
 6 -8.65276425712571  3.99734109720972 -4.47077032373237
 7 -6.39739550685069 -0.01940712091209 -1.20457147754775
 6 -7.34881848854885  0.02898199259926 -2.20032595519552
 6 -7.67563067966797 -1.37923307600760 -2.64247727232723
 6 -6.72103758745875 -2.17284105740574 -2.03507271717172
 6 -5.88818674217422 -1.38503253275328 -1.22171003570357
 6 -8.64172954765477 -1.68433822242224 -3.70810172957296
 6 -6.23872749984999 -3.58318742474247 -1.91280667456746
 8 -6.66615985658566 -4.64794976507651 -2.38196844254425
 6 -5.10399065256526 -3.56924869156916 -0.89841646244624
 6 -5.35671279887989 -4.55351055265527  0.16123327432743
 8 -5.84680886348635 -4.25608154155416  1.21927904820482
 8 -5.01725168836884 -5.78755263936394 -0.28534270567057
 6 -5.24875822502250 -6.90406399749975  0.57020455525553
 6  2.14904158575858 -5.12388864906491  0.66438441974197
 6  3.30138344844484 -4.18078957825783  1.13415470127013
 6  3.98248735243524 -3.31509133003300  0.29767214221422
 6  3.74193909120912 -3.27165035343534 -1.17044471327133
 6  5.15240944694469 -2.51467573577358  0.68980083098310
 6  6.59329493419342 -2.93564851785179  0.08408873477348
 6  7.57342646934694 -1.94598624442444  0.66228006260626
 6  9.02942155065507 -2.05296127812781 -0.14413112631263
 6  9.55793287338734 -3.42423232573257  0.15962908790879
 6  9.85959139473947 -0.85405602650265  0.25322328572857
 6  11.13579673697370 -0.70149294439444 -0.55713102370237
 6  12.04481210181018  0.45673486398640  0.05743653185319
 6  13.45317471157116  0.58074776167617 -0.65692544974497
 6  14.23870204320432 -0.62715344534453 -0.25389207440744
 6  14.25961589978998  1.72725749794980 -0.13420106250625
 6  15.38867814871487  2.30268220352035 -1.00410751845185
 6  15.91026064576458  3.65764827482748 -0.65795688868887
 6  17.34713910861086  3.99339825532553 -1.33795484328433
 6  17.32102108420842  4.08783434613461 -2.84614693469347
 6  17.89908332753275  5.23314144014401 -0.64310526752675
 1 -2.67557306320632  1.17637450105011  3.55985359655966
 1 -6.51181206410641  5.49377557975798  1.04501426412641
 1 -8.86648184728473  1.07650191169117 -3.17336271717172
 1 -3.60541760696070 -3.41149426612661  1.61746748884888
 1 -1.62647373337334 -1.13046065426543  2.36610877687769
 1 -2.63742306750675 -2.66269285018502  4.31260120602060
 1 -3.18804540464046 -1.05334745244524  4.77096323222322
 1 -4.46319799559956 -2.08439635763576  4.02541576417642
 1 -2.20391755735574 -3.33689673467347 -0.28528626322632
 1 -1.47257795749575 -2.01247987538754  0.14800564186419
 1 -0.56772116221622 -3.21239121142114  2.43401794289429
 1 -1.53627310591059 -4.54839167546755  1.63940297699770
 1 -1.59337798989899  3.42392707940794  4.01255363646365
 1 -2.72700035403540  4.67008664776478  4.87445310821082
 1 -2.96410634313431  2.95930912501250  5.09264624142414
 1 -5.46599045834583  6.68426640914091  2.66869898569857
 1 -9.79788377087709  2.67746489838984 -3.30872202680268
 1 -10.20866834973497  4.61338887338734 -2.83160615321532
 1 -9.36397215811581  3.88048594859486 -5.43647995859586
 1 -8.07806177217722  5.13665560616062 -4.48647832963296
 1 -7.94788506340634  3.34328864276428 -4.71145526022602
 1 -8.57425400700070 -1.05084834253425 -4.51324129312931
 1 -8.45984561246125 -2.68073513381338 -4.38018736263626
 1 -9.56624987408741 -1.72160879547955 -3.29903418851885
 1 -4.08770054605461 -3.99984580758076 -1.45138006810681
 1  2.34276222002200 -6.23283057615762  0.89390777867787
 1  2.20042336893689 -5.03545207160716 -0.42545798089809
 1  3.62954893729373 -4.14444456675668  2.14826319041904
 1  2.71798925082508 -3.55173672857286 -1.34622727282728
 1  3.93168050605061 -2.18362306290629 -1.45465368286829
 1  4.54627713511351 -3.86463832013201 -1.71976343364336
 1  4.76763063206321 -1.35105064966497  0.56228661976198
 1  5.38476083448345 -2.41746606380638  1.75809969626963
 1  6.82515173517352 -3.91154545404540  0.58228755045505
 1  6.43362220172017 -2.93375559155916 -1.08264795099510
 1  7.24967576917692 -0.89626618091809  0.60040879417942
 1  7.79759867006701 -2.08407665616562  1.57166463886389
 1  8.78772467206721 -1.89126716741674 -1.24988320702070
 1  8.77339950535054 -4.21217007690769 -0.29203167336734
 1  10.43711674107411 -3.71072442714271 -0.29787736963696
 1  9.76191293889389 -3.43727945654565  1.05239620262026
 1  9.27843890479048  0.03321173157316  0.13478265266527
 1  10.10778973757376 -0.91324964426443  1.32065300260026
 1  11.71982391349135 -1.75946326802680 -0.67190649844985
 1  11.07456339653965 -0.31480311581158 -1.53441428512851
 1  11.63006302440244  1.52974604640464  0.06783957355736
 1  12.20689144784478  0.21692297559756  1.11859103420342
 1  13.39264000630063  0.69315405820582 -1.61493769856986
 1  14.39226945414542 -0.63842685998600  0.85677077457746
 1  13.88363875037504 -1.65230840974097 -0.44372062616262
 1  15.29594945144514 -0.67820114781478 -0.76404880788079
 1  13.68158740434043  2.78087638683868  0.27350747344734
 1  14.54851246344634  1.41293770827083  1.05217404470447
 1  16.27242596969697  1.52747820932093 -1.04452226722672
 1  14.91613640914091  2.47042529392939 -2.01799533043304
 1  15.22153361546155  4.42880608830883 -1.17889916991699
 1  15.95017465136513  3.64622058145815  0.35491795059506
 1  18.07343716051605  3.17345085358536 -1.00200458835884
 1  16.67632476927693  4.93295057395740 -3.14231851075108
 1  18.36288867876788  4.56346273947395 -3.26880431403140
 1  17.14489917521752  3.02883779497950 -3.19274982818282
 1  17.92778065206521  4.94110476347635  0.46148531423142
 1  19.03708131893189  5.40751697819782 -0.96494863596360
 1  17.33089565936594  6.19090350045005 -0.69460781288129
 1 -4.78680656525653 -7.82172327172717  0.17711339533953
 1 -6.33531402270227 -7.03976335773577  0.80769061236124
 1 -5.02044426182618 -6.68722859905991  1.63715658405841
 8 -7.95509840514051  6.82913294469447 -0.26833026142614
 1 -8.97801118491849  6.42970038573857 -1.89578804630463

