%nproc=3
%Mem=2GB
# td=(NStates=1) iop(3/107=0140000000,3/108=0140000000) iop(3/107=0140000000,3/108=0140000000) CAM-B3LYP/6-31G(d,p) 

TD

0 1
12 -5.63046877807781  1.25176520422042  0.11415408420842
 6 -4.89888000980098 -2.10837480218022 -0.38195126022602
 6 -3.49579103900390  1.17101964346435  2.87794923312331
 6 -6.13575999829983  4.49991801490149  0.66769913111311
 6 -7.93607452545255  1.20681936433643 -2.31180527442744
 7 -4.40150723522352 -0.32228815191519  1.03073324032403
 6 -4.14640986138614 -1.60336151755176  0.65319903840384
 6 -3.26761816351635 -2.30174137273727  1.52035762436244
 6 -2.95209936533653 -1.31822249194920  2.57727451405141
 6 -3.60015681568157 -0.09098825142514  2.17079773837384
 6 -3.40392250025003 -1.76467315991599  3.99126698609861
 6 -2.03077792109211 -2.81290528372837  0.69878406450645
 6 -0.96053381628163 -3.56936202410241  1.47273115001500
 6  0.25293116051605 -4.04521939403940  0.67749591069107
 8  0.51650550445045 -3.43185287408741 -0.36590660606061
 8  1.01542322452245 -4.90106525132513  1.37049303780378
 7 -4.98031658265827  2.55538577527753  1.54378106470647
 6 -3.93527761496150  2.43469148514852  2.45625085088509
 6 -3.72732326952695  3.66323640614061  3.15421436583658
 6 -4.48999475517552  4.64319278477848  2.57348323252325
 6 -5.18758812121212  3.96534121062106  1.46228138003800
 6 -2.80201882678268  3.69584666836684  4.36623049354935
 6 -4.60248294829483  6.08464849904991  2.79895533233323
 8 -3.88671115841584  6.70983581378138  3.58873284578458
 7 -6.85265691529153  2.64111204370437 -0.65396806450645
 6 -6.91586378417842  4.00186059155916 -0.37495569866987
 6 -7.96754189438944  4.63958501530153 -1.19435224432443
 6 -8.44692772557256  3.69310844094409 -2.03731828422842
 6 -7.76742055355536  2.47969614371437 -1.69446321612161
 6 -8.15223750245025  5.99531090079008 -1.13343447804780
 6 -9.35227170557056  3.80524146244624 -3.16504905350535
 6 -8.72982196289629  3.98495985908591 -4.58099134583458
 7 -6.28040380768077 -0.14810999119912 -1.08473949434943
 6 -7.38120172687269 -0.02640354595460 -2.02391831443144
 6 -7.48002111871187 -1.26525167786779 -2.76420944554455
 6 -6.62097758145815 -2.20412418571857 -2.16359556945695
 6 -5.91251917541754 -1.40548457795780 -1.15398326302630
 6 -8.42889826452645 -1.46410619921992 -3.89050997039704
 6 -6.14741836893689 -3.52824193019302 -2.04906029992999
 8 -6.44490773137314 -4.47840281038104 -2.77389763546355
 6 -4.98315856935694 -3.54270603730373 -0.92211883268327
 6 -5.20716784438444 -4.62464766636664  0.10534768576858
 8 -5.62364654725473 -4.45375130853085  1.18942606290629
 8 -4.91611157435744 -5.77325120922092 -0.38317248864886
 6 -5.13240658985899 -6.91466505760576  0.52149968476848
 6  2.29912659425943 -5.23725998619862  0.65935391669167
 6  3.28083139323932 -4.17690919021902  1.11259254505451
 6  3.91601070477048 -3.31010083098310  0.26731910691069
 6  3.62792769006901 -3.41303449184919 -1.21264893369337
 6  5.06285049104910 -2.32893716191619  0.74469632053205
 6  6.39481508620862 -2.78309326232623  0.15618594449445
 6  7.53026215291529 -1.72458410421042  0.70226406100610
 6  8.81988059655966 -1.91935791779178 -0.08314502770277
 6  9.32787986808681 -3.32043194569457  0.07350047504750
 6  9.89078451405141 -0.92941356225623  0.34892285568557
 6  11.32557571487149 -0.91519431453145 -0.27644295489549
 6  12.14684230483048  0.26241543204320  0.07921871007101
 6  13.44460385448545  0.45167485438544 -0.68804856205621
 6  14.36782495549555 -0.61203193319332 -0.37356404160416
 6  14.09311925012501  1.80532530473047 -0.26286392879288
 6  15.37034631553155  2.24307624292429 -1.01327843554355
 6  15.94235385508551  3.55099760976098 -0.58469956295630
 6  17.20730512521252  3.89416833233323 -1.42741378917892
 6  17.09002798489849  4.13161872457246 -2.92802512251225
 6  17.97451087028703  5.22327045304530 -0.79416037303730
 1 -2.85658116401640  1.16086294989499  3.66613422462246
 1 -6.48716959985999  5.50227642984298  0.86366612931293
 1 -8.67397259635963  1.17102136363636 -3.02521790269027
 1 -3.87038410361036 -3.15428854555456  1.80288603070307
 1 -1.91939302530253 -1.09661726992699  2.58516068206821
 1 -2.98141746694670 -2.87269385028503  4.06120606650665
 1 -3.13676027612761 -1.25545766346635  4.80499663556356
 1 -4.53281495729573 -1.84416233423342  4.02981620422042
 1 -2.31128829442944 -3.39885293029303 -0.30205794039404
 1 -1.56023672337234 -2.00977960536054  0.46324716601660
 1 -0.48579296939694 -3.15995596789679  2.27872241334133
 1 -1.26425590419042 -4.47464430073007  1.94849388608861
 1 -1.85660431253125  2.93551823852385  4.21734411551155
 1 -2.65626328032803  4.89592923202320  4.43733939683968
 1 -3.32208214071407  3.24541773587359  5.17437441424142
 1 -5.43889774907491  6.49591757425743  2.25094721052105
 1 -10.00610459295930  3.06096324822482 -3.23013416801680
 1 -10.11530901380138  4.59834736923692 -2.93319631223122
 1 -9.55090085098510  4.10045794579458 -5.31586789738974
 1 -8.31669563556355  4.94225616621662 -4.53365304710471
 1 -7.81907218211821  3.19459377327733 -4.84562867756776
 1 -8.53034961656166 -0.62461571927193 -4.62296226522652
 1 -8.36508613651365 -2.56381344164416 -4.31311065496550
 1 -9.46398964806481 -1.59506614121412 -3.32828711381138
 1 -3.99162093809381 -3.99464528752875 -1.37573250335034
 1  2.75587353115312 -6.08705599869987  1.12107049494949
 1  2.09780310691069 -5.17692621902190 -0.31262669776978
 1  3.55192117451745 -4.13064318661866  2.13184154825483
 1  2.64442189408941 -3.94942649754975 -1.56367901800180
 1  3.81398873687369 -2.29228392899290 -1.41441965946595
 1  4.57982048944894 -3.81245310161016 -1.55349680698070
 1  4.82236610561056 -1.25930147474747  0.50639103020302
 1  4.95280763916392 -2.28264258145815  1.83909779607961
 1  6.47174639463946 -3.71503580308031  0.71868118981898
 1  6.36647548704870 -2.90524274027403 -0.94485417161716
 1  7.29067986958696 -0.68693524782478  0.37435618891889
 1  7.73098200840084 -1.83305155365537  1.90223769616962
 1  8.56122202180218 -1.84265230593059 -1.18413663236324
 1  8.77281944734474 -4.14450331023102 -0.06547901810181
 1  10.24291732113211 -3.43413676837684 -0.57675525742574
 1  9.68729547714771 -3.76135186378638  1.00534149714972
 1  9.52117317821782  0.32665107550755  0.47082625702570
 1  10.24559351795179 -0.97073539283928  1.54809574687469
 1  11.96716864796480 -1.88243556525653 -0.13954326212621
 1  11.18852479267927 -0.95860749624962 -1.40883172687269
 1  11.33539355745575  0.98987205900590 -0.20591780218022
 1  12.33375413411341  0.39413069636964  1.18687786288629
 1  13.16550729302930  0.68489323212321 -1.61443764856486
 1  14.48328855605561 -0.85189820712071  0.60822592009201
 1  14.02918330483048 -1.52107528642864 -0.97437369146915
 1  15.35830568706871 -0.58383171087109 -0.84116651965196
 1  13.21586083168317  2.44857315651565 -0.38860873817382
 1  14.27240485268527  1.56360277477748  0.91316014331433
 1  16.11823055015502  1.40545600710071 -0.98234604960496
 1  15.01563635913591  2.38187643904391 -1.99251278217822
 1  15.15958742084208  4.47382058975898 -0.70420170017002
 1  16.35342497639764  3.62848880828083  0.44119657845785
 1  17.83891370817082  2.96544005250525 -1.04458884678468
 1  16.50415755255526  5.08770604950495 -3.04862914181418
 1  17.99228161806181  4.15443183638364 -3.64353178677868
 1  16.46667135243524  3.38296320752075 -3.31808236143614
 1  18.43420129412941  5.01843249624963  0.47127629332933
 1  18.92617022782278  5.37226345284529 -1.35937807890789
 1  17.28875144494450  6.00173458355836 -0.98416676877688
 1 -4.53590147474748 -7.85053615301530  0.13289897389739
 1 -6.20230072137214 -7.14076345774578  0.31526136943694
 1 -4.78879109650965 -6.64681455765577  1.53509637803780
 8 -7.81087398269827  6.82234226562656 -0.34459788818882
 1 -9.05938932273227  6.18560597629763 -1.64377284478448

