%nproc=3
%Mem=2GB
# td=(NStates=1) iop(3/107=0140000000,3/108=0140000000) iop(3/107=0140000000,3/108=0140000000) CAM-B3LYP/6-31G(d,p) 

TD

0 1
12 -5.61507723892389  1.20486051375138  0.20082275107511
 6 -4.95714583638364 -2.10579454415442 -0.33227629272927
 6 -3.38975043494349  1.16932947444744  2.76701814001400
 6 -6.14852127442744  4.47073509660966  0.65470783198320
 6 -8.11248216621662  1.12649133153315 -2.37380147404740
 7 -4.28105519001900 -0.22894881798180  1.04063423042304
 6 -4.29192441284128 -1.52313349474948  0.66017973647365
 6 -3.19790119181918 -2.32342354095410  1.43291888048805
 6 -2.87504165956596 -1.30330099979998  2.65038182478248
 6 -3.58783558355836 -0.02174132673267  2.15641630023002
 6 -3.40563267126713 -1.72961965456546  4.01631949134913
 6 -1.97400224352435 -2.56857085028503  0.44296848294829
 6 -0.86554431733173 -3.33646873477348  1.33074695159516
 6  0.33386925432543 -3.71518639073907  0.40998916001600
 8  0.59734358825883 -3.35992568136814 -0.67131714711471
 8  1.12089377157716 -4.60519566436644  1.07096308480848
 7 -4.89283783478348  2.63142337903790  1.49886657325733
 6 -3.94123821102110  2.46344436043604  2.47835306110611
 6 -3.70005054225423  3.66221630413041  3.09793873827383
 6 -4.49141489718972  4.60480894639464  2.51003688788879
 6 -5.31369073147315  3.94918959545955  1.50834598649865
 6 -2.78550717561756  3.82352943664366  4.27878174867487
 6 -4.65052775277528  5.99770980518052  2.84635007180718
 8 -4.00121260856086  6.49655448564856  3.73780775327533
 7 -6.86651830143014  2.56421435393539 -0.71642431013101
 6 -6.94778697649765  3.89116952245225 -0.37568577167717
 6 -7.93695883608361  4.58032908970897 -1.24486729582958
 6 -8.54769780258026  3.64352348244825 -2.04212876527653
 6 -7.86344015551555  2.38634680878088 -1.76530029982998
 6 -8.33612589128913  6.00691206090609 -1.19341047564756
 6 -9.55546202460246  3.83646458475848 -3.12052460106011
 6 -8.64147312801280  3.96702806590659 -4.38993223992399
 7 -6.47543331063106 -0.17356253645365 -1.06195721612161
 6 -7.56153976067607 -0.11281218681868 -2.05158108070807
 6 -7.63659677627763 -1.43214836753675 -2.63418644324432
 6 -6.79302478617862 -2.27408118141814 -2.04739394929493
 6 -6.01974989848985 -1.42866689618962 -1.02996086078608
 6 -8.54554992969297 -1.67586737533753 -3.74100501990199
 6 -6.25071869896990 -3.53354246024603 -1.91892728662866
 8 -6.46280952155216 -4.66363133323332 -2.55778602430243
 6 -5.11055130863086 -3.54729649634963 -0.83185980678068
 6 -5.30046717431743 -4.59645484708471  0.26731388238824
 8 -5.84323850645064 -4.36312224562456  1.32098921922192
 8 -5.11893185638564 -5.86497038113811 -0.31148531993199
 6 -5.42117546674667 -6.92009560066007  0.65168270307031
 6  2.30343702530253 -5.08486474667467  0.45383336463646
 6  3.49976328642864 -4.19255075437544  0.87492877867787
 6  4.02189129282928 -3.25959578047805  0.09491186618662
 6  3.66616151345135 -2.82755594399440 -1.31130879967997
 6  5.20512471847185 -2.35204947314731  0.62219407030703
 6  6.58258386308631 -2.74345929892989  0.09422974887489
 6  7.65130425712571 -1.80198184398440  0.56328016261626
 6  9.06446505500550 -2.11058704070407 -0.08329504270427
 6  9.53121020112011 -3.45416531903190  0.24686781178118
 6  10.00968640424042 -1.03640426132613  0.46904486788679
 6  11.39358251555155 -0.93842663776378 -0.31544685528553
 6  12.30719834043404  0.20982017251725  0.25969675787579
 6  13.61097049114911  0.37752743964396 -0.56703646084608
 6  14.64209238223822 -0.79619034903490 -0.30780746594659
 6  14.19458939713971  1.73375814801480 -0.26039368176818
 6  15.51564084498450  2.15826776207621 -1.00854796249625
 6  16.00445006470647  3.51915442544254 -0.57607870087009
 6  17.24077847254726  3.98541745724572 -1.27918896669667
 6  17.12308129022902  3.97989355205521 -2.74707702770277
 6  17.83185660486048  5.25734386038604 -0.66125708270827
 1 -2.72219772567257  1.42213907750775  3.65791340254025
 1 -6.62412329522952  5.58472467466747  0.60869063176318
 1 -8.72845804490449  1.11587584908491 -3.23838921982198
 1 -3.54999206440644 -3.40421353805381  1.81671741384138
 1 -1.89149023502350 -1.18107571577158  2.69943210921092
 1 -2.77927725292529 -2.49605618651865  4.53196314221422
 1 -3.20568716881688 -0.79140125782578  4.62345848174817
 1 -4.47983965976598 -2.04657257525753  4.04394761736174
 1 -2.63098026362636 -3.33253629862986 -0.19574730933093
 1 -1.53151385108511 -1.59826845424542  0.06868771007101
 1 -0.33349773987399 -2.48690866316632  2.08463300440044
 1 -1.26998647724772 -4.28609544584458  1.90219925662566
 1 -1.71474012611261  3.56504119081908  4.23115549664966
 1 -2.87097475147515  4.86933657275728  4.73909957285729
 1 -3.10154008650865  3.04795798989899  5.17266424322432
 1 -5.26046990629063  6.89473745624562  2.48008012381238
 1 -10.13237722022202  2.94907205910591 -3.20588174277428
 1 -10.10869835273527  4.85651318581858 -2.96794978757876
 1 -9.43067882878288  3.84556245624562 -5.14713102370237
 1 -8.27233119911991  5.03504544514451 -4.28899858165817
 1 -8.05713598849885  3.15018933283328 -4.38542265696570
 1 -8.13142972457246 -1.22237549524952 -4.57936790579058
 1 -8.69434906280628 -2.82791985228523 -3.77504684858486
 1 -9.59637288638864 -1.21173780838084 -3.71104538963896
 1 -4.32492426842684 -3.92843866686669 -1.40871580168017
 1  2.41557950175017 -6.10349764286429  0.87647603550355
 1  2.22122544914492 -4.98912743914391 -0.67051248634863
 1  3.77345332773277 -4.16289641194119  1.92122048614862
 1  2.60030748264826 -3.09397095199520 -1.69960261036104
 1  4.18724606260626 -1.83870857145714 -1.73198141564156
 1  4.23096560396040 -3.47002885918592 -2.07912937023702
 1  4.95594946394640 -1.32688823342334  0.20491088218822
 1  5.39755211361136 -2.37918223542354  1.65617950425043
 1  6.68479769976998 -3.68058235773577  0.39468879057906
 1  6.60727956745674 -2.69827204320432 -0.95679536573657
 1  7.25542634423442 -0.88965551985199  0.53347210051005
 1  7.76329523972397 -1.95561380988099  1.55047251965197
 1  9.15025092469247 -1.85545358605861 -1.15846406510651
 1  8.89988215361536 -4.26320518041804 -0.18187065726573
 1  10.58037106650665 -3.78866222092209 -0.03383096499650
 1  9.58450519811981 -3.65826155475548  1.39253021602160
 1  9.65340640154015 -0.13026461606161  0.47270644504450
 1  10.22546150475048 -1.33055137443744  1.52977391469147
 1  11.92116404750475 -1.92518984068407 -0.28251755955596
 1  11.23922986318632 -0.58960059555956 -1.35734657835784
 1  11.71094111221122  1.19165223702370  0.44766755635564
 1  12.57288804750475  0.20756203950395  1.29765894099410
 1  13.34287502980298  0.51988673147315 -1.74578078287829
 1  14.91758198539854 -0.54941795909591  0.61809690719072
 1  14.11463184968497 -1.86742992189219 -0.30404665876588
 1  15.55403526002600 -0.68622194989499 -0.92170457345735
 1  13.38024727032703  2.42128042724272 -0.57300717801780
 1  14.45021263346335  1.70942735723572  0.84659348664867
 1  16.20573930103010  1.20456591809181 -0.89530734573457
 1  15.31897669316932  2.11462971437144 -2.01378490939094
 1  15.28820028212821  4.23316652435244 -0.83508478847885
 1  16.12717235113511  3.46398235763576  0.45233769256926
 1  18.04081389818982  3.26718022652265 -0.93159754765477
 1  16.24885202200220  4.61227850675068 -3.02133641254125
 1  17.95178756865687  4.48641503470347 -3.13824125772577
 1  17.14970965626562  2.79068397959796 -3.11885243844384
 1  17.96213408740874  5.21381203420342  0.44170333603360
 1  18.81049866066607  5.67430365686569 -1.09827196829683
 1  17.25495806560656  6.34610902100210 -0.62457080918092
 1 -5.17104498909891 -7.89250034943494  0.18729441344134
 1 -6.65287577887789 -6.95828520992099  0.95047489078908
 1 -4.89745196259626 -6.84283415961596  1.48341120952095
 8 -7.90455335063506  6.84516454785479 -0.51088451685169
 1 -9.09890327412741  5.95025244094410 -2.12168063556356

