%nproc=3
%Mem=2GB
# td=(NStates=1) iop(3/107=0140000000,3/108=0140000000) iop(3/107=0140000000,3/108=0140000000) CAM-B3LYP/6-31G(d,p) 

TD

0 1
12 -5.60238596979698  1.25092512021202  0.15648831763176
 6 -4.93577369916992 -2.09200316501650 -0.40222328742874
 6 -3.48636009590959  1.22339488098810  2.77008844704470
 6 -6.19389581188119  4.63477150025003  0.61024338553855
 6 -8.05264618261826  1.14157283968397 -2.41149524342434
 7 -4.35214229872987 -0.31028695179518  1.01586175317532
 6 -4.24181940234023 -1.59033021442144  0.69248296679668
 6 -3.19602100380038 -2.29288048664866  1.51320690929093
 6 -3.06267042244224 -1.42031270097010  2.71272805940594
 6 -3.60077687768777 -0.03073222582258  2.10000065866587
 6 -3.66568867686769 -1.81100779337934  4.00775863526353
 6 -1.95635047834783 -2.69413340654065  0.77756194229423
 6 -0.94815257815782 -3.66354144204420  1.50309418631863
 6  0.21923779117912 -3.89900477257726  0.63914207530753
 8  0.43638749264926 -3.54948463726373 -0.42699271467147
 8  1.04298598079808 -4.80493563836384  1.31522751125112
 7 -5.01897044804480  2.62767300400040  1.54923160976098
 6 -4.00747483468347  2.47017503350335  2.51923714951495
 6 -3.74258479567957  3.58687877037704  3.19458840324032
 6 -4.48091384708471  4.69945841134113  2.65451133533353
 6 -5.23468283068307  4.01166584308431  1.45820097199720
 6 -2.74453307820782  3.75076215991599  4.34836870737074
 6 -4.62873557355736  6.03143317751775  2.94754019081908
 8 -3.87841032833283  6.66096092629263  3.71818579107911
 7 -6.83915556515652  2.57308524102410 -0.64862753045305
 6 -7.00628282608261  3.95150555605561 -0.30175837893789
 6 -8.02808794899490  4.51603266006601 -1.09130193929393
 6 -8.54969800260026  3.64571370147015 -2.00071462386239
 6 -7.84194800630063  2.37327550165017 -1.68737250705071
 6 -8.31963424212421  5.97734910461046 -1.11891302590259
 6 -9.50482696109611  3.89633057135714 -3.16070861946195
 6 -8.66949593029303  4.06928829192919 -4.46175942264226
 7 -6.45500126742674 -0.11365654585459 -1.21017203760376
 6 -7.34317792449245 -0.07613851945195 -2.19257518011801
 6 -7.46632974957496 -1.34014916761676 -2.72947597219722
 6 -6.61966745044504 -2.12596636993699 -2.03527273717372
 6 -5.87410533403340 -1.33658768826883 -1.03531139583958
 6 -8.42918829352935 -1.65296508510851 -3.86841776117612
 6 -6.02003563066307 -3.50127923392339 -2.08339373327333
 8 -6.49932317291729 -4.46479144924492 -2.64337458315832
 6 -4.95409566306631 -3.54110587728773 -0.96148276907691
 6 -5.15696282388239 -4.64273947554755  0.02507965896590
 8 -5.55868005060506 -4.48230416381638  1.17142426272627
 8 -4.98535849904991 -5.78791267536754 -0.51483565496550
 6 -5.37759110831083 -6.97800139123912  0.36095363016302
 6  2.33884056565657 -5.05070133033303  0.81550953225323
 6  3.41202451255126 -4.04671617091709  1.12988427422742
 6  4.03767287098710 -3.22938275917592  0.32816519151915
 6  3.88649354665467 -3.12095528392839 -1.17015468426843
 6  5.17197140314031 -2.41604587278728  0.74860671157116
 6  6.46086169086909 -2.77112206520652  0.06292661856186
 6  7.65997512421242 -1.83686533233323  0.55328916351635
 6  8.91088969746975 -2.01106708870887 -0.13588030123012
 6  9.48839591969197 -3.37062696519652  0.15802892789279
 6  9.85014044964496 -0.86521714261426  0.39033699709971
 6  11.28132128942894 -0.83926672177218 -0.31599691029103
 6  12.18343596419642  0.30664985548555  0.15278606680668
 6  13.63647304140414  0.44957464436444 -0.58569832703270
 6  14.42442061506151 -0.70725145514551 -0.29206589178918
 6  14.21315125332533  1.75590036223622 -0.23677131953195
 6  15.33354263516352  2.13479541484148 -1.13555066276628
 6  16.08122774247425  3.46646915691569 -0.69400049304930
 6  17.36392078677868  3.89099801530153 -1.38063911171117
 6  17.21192017411741  3.96056161886189 -2.93175549554955
 6  17.71328474767477  5.21589971597160 -0.87927888488849
 1 -2.55045055095509  1.06083294689469  3.47623523472347
 1 -6.51251213411341  5.60064626682668  0.70046980968097
 1 -8.55243044214421  1.28370263176318 -3.41913729462946
 1 -3.66387345254525 -3.23120623732373  1.88982472457246
 1 -1.95856694269427 -1.14861246944694  2.72955512151215
 1 -3.29589891509151 -2.77599418031803  4.47318726462646
 1 -3.79864646474647 -1.10452256995700  4.79541567746775
 1 -4.77526920272027 -2.04845276327633  3.72390561316132
 1 -2.06937410301030 -3.17106015101510 -0.30301803640364
 1 -1.45733643334333 -1.75643427082708  0.37438828012801
 1 -0.77394178427843 -3.24006397869787  2.55190973207321
 1 -1.51635111371137 -4.59993682998300  1.67407644434443
 1 -1.60886953905391  3.55380006670667  4.06755913701370
 1 -2.76601425542554  4.78115775487549  4.82136779967997
 1 -2.98908884138414  3.02103529762976  5.11071804860486
 1 -5.46125998529853  6.64284226672667  2.26034815061506
 1 -10.19492347484749  2.90840799269927 -3.46328748334833
 1 -10.04466194909491  4.74892242674267 -3.12439543214321
 1 -9.32901866276628  4.13658155815581 -5.27307361796180
 1 -7.83294726072607  4.93962590319032 -4.51866154795480
 1 -8.16568684358436  3.03593790769077 -4.55415953065306
 1 -8.24939152075208 -0.94149740744074 -4.71608157715772
 1 -8.11410103800380 -2.62063912421242 -4.33812315621562
 1 -9.47917116621662 -1.72794942954295 -3.56439072417242
 1 -4.02705448144815 -3.56195201820182 -1.59985491559156
 1  2.70501844564456 -6.16861415451545  1.41446983488349
 1  2.28841216781678 -5.15750427682768 -0.34823025812581
 1  3.68029401180118 -4.13694381668167  2.20889925402540
 1  2.89655710761076 -3.51887344224422 -1.34178682878288
 1  3.82574991299130 -2.06200090069007 -1.75605382288229
 1  4.35249775717572 -3.93708556485649 -1.82006346364636
 1  5.04787865686569 -1.37484302890289  0.52999339043904
 1  5.33006536493649 -2.33091740894089  1.87037092339234
 1  6.55370459045905 -3.84633893339334  0.16079540124012
 1  6.39764860436043 -2.72300451645165 -0.97218690489049
 1  7.13354415601560 -0.88935548984898  0.54040279357936
 1  8.04217312751275 -1.96566481498150  1.64035150755075
 1  8.71403730333033 -1.86682472317232 -1.20166838553855
 1  8.70139230463046 -4.19888874877488  0.14897242704270
 1  10.33048607800780 -3.73567692239224 -0.35543312521252
 1  9.52872962056206 -3.25428115671567  1.34880584358436
 1  9.30208126902690  0.04974338473847  0.23247242164216
 1  10.06553551215121 -0.84855317461746  1.47583852115212
 1  11.96485841694169 -1.77721504320432 -0.04050335813581
 1  11.11198713891389 -0.76635827132713 -1.40075091879188
 1  11.73524354245424  1.29053212501250  0.02815560516052
 1  12.53265402410241  0.24113539683968  1.27786696179618
 1  13.41116185848585  0.51244598739874 -1.58867507230723
 1  14.50897112431243 -0.75951896919692  0.82909800730073
 1  14.17236762326233 -1.58904208310831 -0.53642989708971
 1  15.57387724422442 -0.46682000970097 -0.49670207320732
 1  13.46936618221822  2.47869616881688 -0.29098897619762
 1  14.58775638783878  1.74235064956496  0.77977680498050
 1  16.15180390749075  1.33382884438444 -0.97851566656666
 1  14.93362815831583  2.13704195559556 -2.30889442034203
 1  15.29901136323632  4.24292750045004 -0.87771905190519
 1  16.28156779067907  3.65142110151015  0.35741820062006
 1  18.03618343514352  3.03835734423442 -1.27259164706471
 1  16.36001313811381  4.90118739763976 -3.13434771367137
 1  18.08582097199720  4.54042043524352 -3.36016344994500
 1  17.03153783908391  2.88103301450145 -3.35780633383338
 1  17.83794166816682  5.05402605560556  0.06833599929993
 1  18.71166877767777  5.42012823932393 -1.41008314941494
 1  16.99695226502650  6.11376578667867 -1.19862821492149
 1 -5.14819270387039 -7.88591969136914 -0.06790110611061
 1 -6.43255374667467 -6.70371975337534  0.54458430173017
 1 -4.87060927832783 -6.81234111031103  1.29452232063206
 8 -7.89397229252925  6.86479651105111 -0.48344177257726
 1 -8.90637402120212  6.30374779047905 -1.98081654915492

