%nproc=3
%Mem=2GB
# td=(NStates=1) iop(3/107=0140000000,3/108=0140000000) iop(3/107=0140000000,3/108=0140000000) CAM-B3LYP/6-31G(d,p) 

TD

0 1
12 -5.69869560076008  1.24484451215122  0.20474314311431
 6 -5.01874199599960 -2.12698666336634 -0.42932599769977
 6 -3.41948340824082  1.18823136463646  2.81394283248325
 6 -6.33811023332333  4.56022404550455  0.64801716291629
 6 -8.02140305830583  1.13892257465747 -2.33570766466647
 7 -4.40476756125613 -0.25333125622562  1.04177434443444
 6 -4.30252547294729 -1.57860904230423  0.75048876737674
 6 -3.18400980268027 -2.25754695329533  1.40529611821182
 6 -2.94059821522152 -1.29873054275428  2.56139292589259
 6 -3.57847464746475 -0.01424057665767  2.13686434503450
 6 -3.45079718771877 -1.76252294489449  4.00879873927393
 6 -1.94113895719572 -2.80544453765377  0.64528871497150
 6 -0.97265502840284 -3.49977506540654  1.54481835873587
 6  0.26046191359136 -3.77779265136514  0.72685084618462
 8  0.53151700560056 -3.25115480428043 -0.29831984738474
 8  1.11661334353435 -4.63485863066307  1.44763075157516
 7 -5.02117066806681  2.53462369906991  1.48158484508451
 6 -4.07846193339334  2.46543455945595  2.47215244104410
 6 -3.80047058425843  3.59545962846285  3.23594253865387
 6 -4.56007176287629  4.61290975647565  2.63124900910091
 6 -5.34058342074207  4.00810548704870  1.55541069296930
 6 -2.90029865476548  3.66096318001800  4.37866173667367
 6 -4.64016671667167  6.00546058025803  2.87293273007301
 8 -3.92344483178318  6.69005383558356  3.64855882838284
 7 -6.98231988158816  2.64185211771177 -0.62648531623162
 6 -7.02387458525853  3.90840124562456 -0.28663686678668
 6 -8.00341548174817  4.63543460026003 -1.22972578167817
 6 -8.46367940074007  3.65850498059806 -2.07064161656166
 6 -7.80432424392439  2.40883905800580 -1.71906567636764
 6 -8.46120839953995  6.03592496219622 -1.14750588518852
 6 -9.52606908530853  3.77381832013201 -3.13429597819782
 6 -8.79406838753875  3.92460382348235 -4.56961020772077
 7 -6.32364813211321 -0.07867304750475 -1.18004902530253
 6 -7.32954656135614  0.00864995939594 -2.08478440104010
 6 -7.55892900950095 -1.29672482518252 -2.71480450505051
 6 -6.69681516521652 -2.17235100840084 -2.10803001290129
 6 -5.92916083958396 -1.42082611211121 -1.17867573227323
 6 -8.51864723942394 -1.71426121472147 -3.76527744714471
 6 -6.23213684078408 -3.60328943494349 -2.03047844174417
 8 -6.53287652825283 -4.51236620672067 -2.68912915861586
 6 -5.01841209470947 -3.50773253995400 -0.94569118991899
 6 -5.26551367896790 -4.55090029162916  0.01933908490849
 8 -5.66440062266227 -4.43252918631863  1.15127224752475
 8 -5.04348431163116 -5.81626551065107 -0.57931210261026
 6 -5.18362171137114 -6.88768235933593  0.39533706850685
 6  2.37373405500550 -5.07507376757676  0.78120610191019
 6  3.55364867496750 -4.10146164546455  1.06204749054905
 6  4.05529463316332 -3.30175999689969  0.23394576957696
 6  3.78198309560956 -3.06195938433843 -1.24038170697070
 6  5.17676188218822 -2.48857312551255  0.72103395429543
 6  6.52829843454345 -2.79109406240624  0.02437276317632
 6  7.67270639733973 -1.92782442824282  0.74668850345035
 6  9.02113072157216 -1.98685466746675 -0.17000371357136
 6  9.62220930103010 -3.41715161766177 -0.07170404540454
 6  9.99434487008701 -0.97427804870487  0.47982594599460
 6  11.43350650795079 -0.93175597069707 -0.15057036763676
 6  12.20605822642264  0.24102329282928  0.10323111131113
 6  13.55399479357936  0.44199388628863 -0.69559931713171
 6  14.51717989098910 -0.82738346834683 -0.31203788898890
 6  14.28840877907791  1.77330210241024 -0.25094273667367
 6  15.52250153105311  2.09501143644364 -1.15860296799680
 6  16.10270989068907  3.45796830683068 -0.70585167816782
 6  17.31865626032603  3.87225614111411 -1.37955900370037
 6  17.24592357445745  4.11869743244324 -2.88423074307431
 6  17.88202162136214  5.17070519651965 -0.68862981998200
 1 -2.99399490539054  1.33235009860986  3.84755236643664
 1 -6.62254313721372  5.58989519171917  0.68786854955496
 1 -9.05348054715471  1.06808106960696 -3.04802018291829
 1 -3.59915698089809 -3.17618073477348  1.96633237533753
 1 -1.88561964796480 -1.24197180538054  2.77699986598660
 1 -3.06304562976298 -2.59673625452545  4.29437938383838
 1 -3.18600520062006 -0.98611072877288  4.61332746864687
 1 -4.32097377317732 -1.94440235823582  3.92264548714872
 1 -2.19846701230123 -3.40149319431943 -0.04851258585859
 1 -1.61039173887389 -1.90122875027503  0.16050689198920
 1 -0.66092048214821 -3.03980395269527  2.47563210431043
 1 -1.44908438703870 -4.31164800110011  1.97910694739474
 1 -1.80975962806281  3.49938462516252  4.09573195429543
 1 -3.03105075907591  4.58357799689969  4.58752441534153
 1 -3.02660259275928  3.04096729082908  5.08509548634864
 1 -5.35070893019302  6.59288727122712  2.12431454725473
 1 -10.10344432693269  2.88053520542054 -3.20401155575558
 1 -10.22653013591359  4.64267180168017 -3.02642563516352
 1 -9.61601736263626  3.94337223722372 -5.32257856845685
 1 -8.26193015901590  5.01989392999300 -4.58612829462946
 1 -8.10245051995200  2.95448976287629 -4.66696081078108
 1 -8.16038261986199 -1.23437669536954 -4.89974994399440
 1 -8.39647927582758 -2.87084414471447 -3.89596894079408
 1 -9.60284353345335 -1.22470910551055 -3.62080636573657
 1 -3.95634741074107 -3.87576339933993 -1.39159408950895
 1  2.46954489828983 -6.09136642974297  1.12828121602160
 1  2.19369269586959 -5.14117264366437 -0.41918735383538
 1  3.67252323472347 -4.12000212251225  2.18236660076008
 1  2.75292274417442 -3.18182973787379 -1.44759740984098
 1  4.15953329132913 -2.18353305390539 -1.44151236873687
 1  4.34309681708171 -3.80007186348635 -1.89845130243024
 1  5.15810967996800 -1.40017556215622  0.68796918801880
 1  5.23399575797580 -2.52996731393139  1.84188807510751
 1  6.68208742874287 -3.75774007350735  0.05464478617862
 1  6.42604144364436 -2.56294851085109 -1.14518420462046
 1  7.17467826942694 -1.00459701400140  0.63704245754575
 1  7.75523443364336 -2.45647389588959  1.81639911231123
 1  8.67946384598460 -1.62112015271527 -1.03519173787379
 1  8.86952911831183 -4.24075293519352 -0.23809627982798
 1  10.48388141754175 -3.50612396709671 -0.61884946684668
 1  10.03413016061606 -3.57303303190319  1.04290525352535
 1  9.70560162106211  0.20362877327733  0.39610878527853
 1  10.07605656425642 -1.21150947024702  1.70411134843484
 1  12.13415534663466 -1.68614593629363  0.06104679687969
 1  11.50406634683468 -1.07440907640764 -1.33832467616762
 1  11.64401441954196  1.24731780358036  0.15012780238024
 1  12.42301306000600  0.37942922622262  1.11022019711971
 1  13.34689543184318  0.40202494529453 -1.73016922172217
 1  14.79618984618462 -0.42304532183218  0.73821891939194
 1  14.15331571807181 -2.01701488038804 -0.04541079517952
 1  15.35620547704770 -0.86537986568657 -1.03982638563856
 1  13.66586583218322  2.44170246944694 -0.39023890119012
 1  14.59709732193219  1.79171558605861  0.81393022032203
 1  16.38957768486848  1.39921538303830 -1.05610342534253
 1  15.37229202470247  2.11939019041904 -2.22556608750875
 1  15.29096055815582  4.16976018371837 -0.75443672367237
 1  16.21182081598160  3.26156211561156  0.48117057585759
 1  18.08089790659066  3.15226873537354 -1.30459484738474
 1  16.58729586638664  4.95472275117512 -3.40481476037604
 1  18.30029241914191  4.31518791199120 -3.17824525812581
 1  16.90328501380138  3.35347025822582 -3.79345989918992
 1  18.01204907890789  4.73229388238824  0.34592375807581
 1  18.94291190199020  5.38603482998300 -1.01662380348035
 1  17.30308287808781  6.04654906500650 -0.84344269636964
 1 -4.60400828542854 -7.73302440184018 -0.08483279927993
 1 -6.29638012931293 -6.97715709710971  0.38461830513051
 1 -4.76632885028503 -6.54071394759476  1.68224109250925
 8 -8.03469636493649  6.90364039543954 -0.44867829622962
 1 -9.13906729052905  6.21027844354435 -1.94676314381438

