%nproc=3
%Mem=2GB
# td=(NStates=1) iop(3/107=0140000000,3/108=0140000000) iop(3/107=0140000000,3/108=0140000000) CAM-B3LYP/6-31G(d,p) 

TD

0 1
12 -5.62308804000400  1.22081210891089  0.10389305810581
 6 -4.98913903570357 -2.11198516321632 -0.36155922102210
 6 -3.52071353125313  1.15760830233023  2.81142258045805
 6 -6.11057748004801  4.66103412651265  0.65143750495050
 6 -8.01762268026803  1.17117579998000 -2.46655074897490
 7 -4.42068915341534 -0.34183010611061  1.06234640164016
 6 -4.26723194359436 -1.58961014241424  0.69859357785779
 6 -3.19184058575858 -2.32248344694469  1.48158374697470
 6 -2.88330248564856 -1.34718538823882  2.68293508010801
 6 -3.61975877587759 -0.14010316291629  2.20899155775578
 6 -3.48661076907691 -1.70043673627363  4.06815467486749
 6 -2.00590543384338 -2.68988298149815  0.61184537063706
 6 -1.08733649654965 -3.62367745564556  1.44504838173817
 6  0.17857372477248 -3.92267713981398  0.65160332143214
 8  0.30531438533853 -3.54552424122412 -0.54167418281828
 8  1.04784646684668 -4.66295143994399  1.39723571207121
 7 -4.92531108210821  2.60003023972397  1.41851853845385
 6 -4.05642973017302  2.36688470447045  2.50272549834983
 6 -3.71289182638264  3.65576565906591  3.22397134153415
 6 -4.44868062376238  4.62890135563556  2.56044192839284
 6 -5.17340670307031  4.00188486498650  1.48810396229623
 6 -2.79179780468047  3.77554463816382  4.46804067456746
 6 -4.57713041304130  5.99930996519652  2.87036247304730
 8 -3.80810329762976  6.53980881108111  3.78121209370937
 7 -6.88641029062906  2.61540947344734 -0.66849951765177
 6 -6.91719391719172  4.05202560806081 -0.38529673277328
 6 -7.91001614181418  4.60492154895489 -1.18605141424142
 6 -8.49501253405341  3.69578870897090 -2.00521507390739
 6 -7.75578939043904  2.45328350245025 -1.65837960776078
 6 -8.38124040274027  6.01703307300730 -1.13924505910591
 6 -9.57306378477848  3.77802874117412 -3.11610415901590
 6 -8.97914689538954  3.85644700780078 -4.48818206490649
 7 -6.32949871717172 -0.12973815401540 -1.14166518691869
 6 -7.39902350905091 -0.01200210581058 -2.04120004260426
 6 -7.57391050765076 -1.26583173587359 -2.82022504710471
 6 -6.57547303100310 -2.12326609990999 -2.15807501740174
 6 -5.92653057655766 -1.32250628012801 -1.15580344504450
 6 -8.47140251495150 -1.71290107870787 -3.76464738413841
 6 -6.18573220032003 -3.56709581558156 -2.01928732263226
 8 -6.46943018361836 -4.43380835093509 -2.67930817651765
 6 -5.04839509300930 -3.61828359505951 -1.00435705650565
 6 -5.36507363496350 -4.67060226182618  0.05716286728673
 8 -5.74340852345235 -4.48189412281228  1.17905502580258
 8 -5.00722068526853 -5.89134301840184 -0.45665983738374
 6 -5.36406975617562 -6.90528411951195  0.43640117491749
 6  2.26892357395740 -5.02965922612261  0.64948292959296
 6  3.45623893399340 -4.10347184648465  0.97322860866087
 6  4.08865796949695 -3.33087290819082  0.12357473247325
 6  3.81719661696170 -3.17722091049105 -1.29689735853585
 6  5.15781998799880 -2.47317158535854  0.66101795269527
 6  6.51924752945294 -2.74142909590959  0.18809913581358
 6  7.66684581128113 -1.89000064586459  0.61038487308731
 6  9.06346495499550 -1.95878186018602 -0.01776849004900
 6  9.72224930503050 -3.40323022552255  0.17268039303930
 6  9.86765220082008 -0.81360198109811  0.44928289168917
 6  11.26174933223322 -0.79294208930893 -0.15432074267427
 6  12.15692331293129  0.37604679517952  0.33325411361136
 6  13.50289968406841  0.53193288018802 -0.57349710691069
 6  14.33478165116512 -0.75466619661966 -0.29537622282228
 6  14.31984192239224  1.81538631083108 -0.13324096649665
 6  15.49372865376538  2.23467540284028 -1.01218832653265
 6  16.09198881858186  3.51211372137214 -0.69459055205521
 6  17.38023241794179  3.97381629712971 -1.44642569036904
 6  17.20388937103711  3.94537009970997 -2.97740006000600
 6  18.08577199639964  5.23439156515652 -1.01467242424242
 1 -2.69810531643164  1.09893675727573  3.57158476967697
 1 -6.36578746164616  5.66258246044605  0.73400316301630
 1 -8.72633783288329  1.21188545004500 -3.26834221512151
 1 -3.68092515771577 -3.23198631533153  1.74544028612861
 1 -1.99547063306331 -1.32342995119512  2.94226639263926
 1 -3.00251957715772 -2.68199478037804  4.25015496139614
 1 -3.02820942104210 -0.99860197789779  4.99666580248025
 1 -4.52477415321532 -1.84201211921192  4.00639386198620
 1 -2.47375454105411 -3.25421846684668 -0.20994872947295
 1 -1.48726942664267 -1.87902653005301  0.45253609490949
 1 -0.78358274837484 -3.18298827112711  2.44519906100610
 1 -1.31346082468247 -4.59597643394339  1.88743778047805
 1 -1.74082273437344  3.80121480818082  4.35645802690269
 1 -2.94603225722572  4.57879751885188  4.99790545344534
 1 -2.81267119961996  2.92508570267027  5.10449742654265
 1 -5.15963982328233  6.61540952345235  2.24403651945195
 1 -10.41046502900290  2.90372752465247 -3.01444259885989
 1 -10.30022750565057  4.68857639213921 -3.08597158975898
 1 -9.89731549244924  4.14277217721772 -5.18269458005801
 1 -8.19943390939094  4.67075901650165 -4.69238892069207
 1 -8.64512478737874  2.89224353825383 -4.85888000270027
 1 -8.39268585018502 -1.13520677837784 -4.65291526052605
 1 -8.27772740064006 -2.67753481378138 -4.08334767866787
 1 -9.43499674877488 -1.57377401200120 -3.06215050015002
 1 -4.21315309130913 -3.94990081308131 -1.49352428252825
 1  2.45533347714771 -6.04329162226223  0.96555494339434
 1  2.09550287688769 -5.09099762616262 -0.40913634873487
 1  3.79643562596260 -4.26768689098910  2.01266963106311
 1  2.82846029792979 -3.74389594449445 -1.54142679277928
 1  3.73630096809681 -1.94301900250025 -1.43234145164517
 1  4.63841634903490 -3.77202905920592 -1.73752520982098
 1  4.69077294629463 -1.37442298689869  0.51542193329333
 1  5.27152951135113 -2.65186950415042  1.75806969326933
 1  6.71202042204220 -3.81235553505351  0.56470579227923
 1  6.50664950445044 -2.60384260026003 -0.87268695489549
 1  7.17541834343434 -0.82399895419542  0.26452520582058
 1  7.69395830603060 -2.15849409790979  1.66401387378738
 1  8.73503940354035 -1.90985902660266 -1.24415263396340
 1  9.00318248364836 -4.01013987388739 -0.39247171737174
 1  10.70534356375638 -3.50236359105911 -0.20329791169117
 1  9.87863461106111 -3.52734846344635  1.34044500750075
 1  9.12864392529253  0.16676508690869  0.51367054145415
 1  10.02152111071107 -0.94037235653565  1.60285122242224
 1  11.61602353345335 -1.77082440414041  0.02316300850085
 1  11.23783972417242 -0.73786542204220 -1.14473531723172
 1  11.64512453055305  1.25576864866487  0.27695048464846
 1  12.50513127182718  0.21671295459546  1.50131930703070
 1  13.17807855015502  0.74764950775078 -1.46031223602360
 1  14.73276350355036 -0.96574959225923  0.69457455495550
 1  13.79899028552855 -1.68017119601960 -0.67397365146515
 1  15.23736359285929 -0.60882421012101 -0.75492789578958
 1  13.57660690629063  2.58914721392139  0.12809293199320
 1  14.85755336753675  1.50357677217722  0.80517934523452
 1  16.17202592969297  1.38106356785679 -1.11322913791379
 1  14.98770356585659  2.28416666806681 -2.07692122302230
 1  15.29919138123812  4.45885909360936 -0.76988826882688
 1  16.37129676357636  3.46337229662966  0.17576003480348
 1  18.01507132393239  3.05556906540654 -1.26588097599760
 1  16.31509864666467  4.58883616251625 -3.16815109400940
 1  18.15419780968097  4.28784517771777 -3.61878931253125
 1  16.93287797309731  3.03912882408241 -3.16832738593859
 1  18.66928480248025  5.26594724772477  0.17511667736774
 1  19.07147475827583  5.39243547004700 -1.47028917001700
 1  17.44870744054406  6.11586599669967 -1.09333768586859
 1 -4.79135702030203 -7.72505360476048  0.25923160716072
 1 -6.51124161546155 -7.17214659605961  0.24917476077608
 1 -5.32182439983998 -6.62546242244224  1.53432630103010
 8 -7.87506040134013  6.91690172157216 -0.48265169356936
 1 -9.23519690349035  6.30325774147415 -1.77016548404840

