%nproc=3
%Mem=2GB
# td=(NStates=1) iop(3/107=0140000000,3/108=0140000000) iop(3/107=0140000000,3/108=0140000000) CAM-B3LYP/6-31G(d,p) 

TD

0 1
12 -5.71867759895990  1.14435446314631  0.26250891969197
 6 -5.01950207200720 -2.16339030373037 -0.39063212831283
 6 -3.38402986288629  1.09638217971797  2.78944038223822
 6 -6.25627204950495  4.56945496859686  0.63206556775678
 6 -7.99483040104010  1.21733041544154 -2.41634572847285
 7 -4.32369945444544 -0.40939686278628  1.00788095509551
 6 -4.25884110451045 -1.61525270667067  0.64150786928693
 6 -3.26818822052205 -2.40714191279128  1.47142273087309
 6 -3.04640879627963 -1.36038670837084  2.65464225082508
 6 -3.58216501650165 -0.08893804640464  2.16643730233023
 6 -3.65454756275628 -1.68959565216522  3.92357021642164
 6 -2.03125796909691 -2.74680867406741  0.65357954405441
 6 -0.94722248514851 -3.49043413131313  1.48085196209621
 6  0.29886575397540 -3.83386825892589  0.65446360746075
 8  0.65939979387939 -3.43871356015602 -0.46913692909291
 8  1.06549823202320 -4.73535868066807  1.29644563306331
 7 -4.89091764276428  2.61318155485549  1.42171885848585
 6 -3.93025711291129  2.36593460946095  2.45205043084308
 6 -3.69863040024002  3.54173425592559  3.17085603000300
 6 -4.55629138483848  4.55586405190519  2.62936882108211
 6 -5.27694705710571  3.88009268576858  1.48321347324732
 6 -2.78525715061506  3.67647473117312  4.40861473197320
 6 -4.49424212421242  6.04103413761376  2.93570900770077
 8 -3.83422590989099  6.53447827802780  3.76845081758176
 7 -6.85221687128713  2.60006793929393 -0.74262693039304
 6 -6.97112931073107  3.91253165866587 -0.41823002610261
 6 -7.94236937713771  4.65765682248225 -1.17541035013501
 6 -8.51926495929593  3.76499562966297 -2.08964351675168
 6 -7.82684649614962  2.45179335343534 -1.74588835863586
 6 -8.20832311101110  6.11549291899190 -1.22478361296130
 6 -9.55980245864587  3.89233017131713 -3.08888143674367
 6 -8.90192917361736  3.93514487758776 -4.53035628232823
 7 -6.43721948924892 -0.10591577177718 -1.01757277767777
 6 -7.35602920962096  0.00806990139014 -2.01994791739174
 6 -7.63380649724972 -1.33607876057606 -2.63146617121712
 6 -6.74396988068807 -2.14988876217622 -2.03891310121012
 6 -6.01161908540854 -1.42477650715072 -1.04368223292329
 6 -8.53137851255125 -1.67185697429743 -3.80383130253025
 6 -6.24243787088709 -3.57862696869687 -2.13268866276628
 8 -6.57646088668867 -4.56305127522752 -2.65585583128313
 6 -5.05318557205721 -3.59400116681668 -1.00413703450345
 6 -5.39548667626763 -4.58523372497250 -0.00077292629263
 8 -5.78021220382038 -4.50418635203520  1.17623474377438
 8 -5.11346130933093 -5.84240812491249 -0.43268744014401
 6 -5.49738308750875 -6.88252184328433  0.46613414821482
 6  2.26338301990199 -5.01846810701070  0.52205018631863
 6  3.47164047414741 -4.13844534383438  0.98298958475848
 6  4.08587769146915 -3.22552237313731  0.18980135513551
 6  3.85478037533753 -2.96415960436044 -1.21234890369037
 6  5.26032023802380 -2.45798006620662  0.83002485338534
 6  6.60363596829683 -2.63973892689269  0.16325665156516
 6  7.75863499019902 -1.70309195499550  0.75838967356736
 6  9.03819242774277 -1.95407138913891  0.10199348614861
 6  9.57091417151715 -3.46027593009301  0.31435456045605
 6  10.10827626322632 -1.01591221212121  0.57820578397840
 6  11.37132028932893 -0.89146194129413 -0.25464077467747
 6  12.24984260486049  0.20695988648865  0.26002679087909
 6  13.59376877097710  0.45531521842184 -0.45124488168817
 6  14.56068424142414 -0.72050278027803 -0.29363604880488
 6  14.33437337553755  1.79440421262126 -0.02877051945194
 6  15.45357463836384  2.14885682098210 -1.13363047074707
 6  16.00158977867787  3.40723323332333 -0.74254534753475
 6  17.30712510721072  3.95981489698970 -1.57594864266427
 6  17.06865584768477  4.18181374407441 -3.16836915691569
 6  17.89972339153915  5.30705883188319 -0.93372432943294
 1 -2.64227973387339  1.09682654625463  3.54419203040304
 1 -6.36513739663966  5.60354655685569  0.60337009970997
 1 -8.71468666776678  1.24327858935894 -3.19581496239624
 1 -3.76257332253225 -3.37088020472047  1.71565730783078
 1 -1.90881196719672 -1.16388399659966  2.82500466646665
 1 -3.18007733293329 -2.51606818771877  4.42306225212521
 1 -3.67253385348535 -1.05445756345635  4.84124025992599
 1 -4.70768244404440 -2.09506742474247  3.63475669826983
 1 -2.28095526112611 -3.57140018501850 -0.17684541914191
 1 -1.43424412411241 -1.83297192459246  0.20508134943494
 1 -0.54016840694069 -2.76264623692369  2.25402994409441
 1 -1.30705018361836 -4.47072390869087  1.88586762346235
 1 -1.85652430453045  3.35366005270527  4.09873225432543
 1 -2.72099975397540  4.71027066616662  4.75673133603360
 1 -3.16384631713171  3.06846004010401  5.14666164296430
 1 -5.01216507580758  6.71831981448145  2.23403551935194
 1 -10.24255823832383  3.01918907080708 -3.00435158975898
 1 -10.19830731363136  4.74317185168517 -2.96987998059806
 1 -9.67901366226623  4.01728962896290 -5.19602591319132
 1 -8.32739670567057  4.81680362096210 -4.55279496129613
 1 -8.50616089098910  3.02748706260626 -4.91498561326132
 1 -8.32555913751375 -0.97270052775278 -4.89835980498050
 1 -8.42153178107811 -2.72786984728473 -3.88605794969497
 1 -9.62988623772377 -1.19884651925192 -3.57983226832683
 1 -4.29970174617462 -3.87464328732873 -1.58746367646765
 1  2.37467541134113 -6.08713600670067  0.81665005290529
 1  2.11125445204520 -4.88653718011801 -0.60620605570557
 1  3.73713969636964 -4.30235035733573  2.07786615071507
 1  2.73655110701070 -3.11268282318232 -1.50796344644464
 1  4.16327366536654 -2.00818551915191 -1.49898811631163
 1  4.48658116551655 -3.66993885018502 -1.79565102240224
 1  5.04863873287329 -1.47627317191719  0.40371076217622
 1  5.37088944734474 -2.58756307350735  1.96617050335034
 1  6.88832805280528 -3.63062736223622  0.28353767546755
 1  6.40000884038404 -2.31126334233423 -0.91442112831283
 1  7.44376517811781 -0.76423297759776  0.56824557785779
 1  7.83985289548955 -1.74363261176118  1.81016848924892
 1  9.18258415801580 -1.60173821452145 -1.08141636033603
 1  8.79167133253325 -4.13365222512251 -0.41480395059506
 1  10.57141017041704 -3.60685404010401 -0.04350193209321
 1  9.48053480108011 -3.79726545514551  1.45161612461246
 1  9.54514557545754  0.04278268866887  0.78562773717372
 1  10.43474243284328 -1.40212853215321  1.69014995229523
 1  11.91133306440644 -1.91199852155215 -0.02942225002500
 1  11.24206014621462 -0.91204283978398 -1.36118696239624
 1  11.58557857595759  1.13218629042904  0.09008179777978
 1  12.47103786248625 -0.00165888258826  1.30908008310831
 1  13.27655839813981  0.65975071787179 -1.55943214801480
 1  14.95318554575458 -0.62710572787279  0.91006610411041
 1  14.08130851735174 -1.76229940884088 -0.36230248434843
 1  15.50415027152715 -0.50036336403640 -0.71840424342434
 1  13.41040028562856  2.62606090529053  0.03485360806081
 1  14.72901051325132  1.75997241174117  1.15663449074908
 1  16.44317304440444  1.52264772627263 -1.03074088908891
 1  15.08846364186419  2.25497374877488 -2.27116064696470
 1  15.43170463256325  4.40757396509651 -1.00778205820582
 1  16.33881351525152  3.63247920732073  0.26041850065006
 1  18.24685450225023  3.29970347884788 -1.67497188508851
 1  16.09951708850885  4.60532781168117 -3.51408568746875
 1  17.91807419731973  4.61259765296530 -3.52594002760276
 1  16.91805649094909  2.99085399659966 -3.60303085628563
 1  18.20214808880888  4.85051570457046  0.13185235093509
 1  18.82921053185319  5.75524175067507 -1.29084122522252
 1  17.13026559635964  6.27154156425643 -0.46696504860486
 1 -5.47712559715972 -7.77111821122112 -0.31151546754675
 1 -6.54663515481548 -6.90666004740474  0.84517436073607
 1 -4.81831404880488 -6.76908678487849  1.25297816621662
 8 -7.75093798909891  6.97955798719872 -0.50259368776878
 1 -9.00456384018402  6.36944436013601 -1.99647811531153

