%nproc=3
%Mem=2GB
# td=(NStates=1) iop(3/107=0140000000,3/108=0140000000) iop(3/107=0140000000,3/108=0140000000) CAM-B3LYP/6-31G(d,p) 

TD

0 1
12 -5.66449218041804  1.22083211091109  0.19514218301830
 6 -5.01962208400840 -2.22556652135214 -0.31805487058706
 6 -3.51713317321732  1.12660520202020  2.70887232543254
 6 -6.23105952825283  4.47288531163116  0.69070143134313
 6 -8.07349826782678  1.11860054245425 -2.33753784768477
 7 -4.36717380188019 -0.31668759185919  1.00562072907291
 6 -4.21253647404740 -1.57622880428043  0.66034975347535
 6 -3.19915131683168 -2.27320851945195  1.46063165176518
 6 -2.98905306070607 -1.28841951165116  2.58153494009401
 6 -3.65682248224822 -0.06468562116212  2.12091274987499
 6 -3.59265137313731 -1.72935962856286  3.94003186258626
 6 -1.89822466576658 -2.58448244144414  0.56560074617462
 6 -0.90193795669567 -3.45266035393539  1.24206808370837
 6  0.34811067846785 -3.78837370947095  0.50856901800180
 8  0.46494034793479 -3.38299798859886 -0.64936495189519
 8  1.14212589478948 -4.64928007280728  1.08252424092409
 7 -4.96723527452745  2.59119935663566  1.46082276887689
 6 -4.09445353255326  2.38893690969097  2.54587981378138
 6 -3.79160969816982  3.61314139663966  3.21408035243524
 6 -4.56686244194419  4.58413687918792  2.56982286648665
 6 -5.35211457385739  3.87976265276528  1.59759491139114
 6 -2.89844846974697  3.74306138983898  4.37777164766477
 6 -4.72240494049405  6.01277131133113  3.01113655045505
 8 -4.06331881918192  6.57343217341734  3.81733570607061
 7 -6.93685533513351  2.63688162066207 -0.69431209890989
 6 -7.05816801460146  3.99152955845585 -0.41342954605461
 6 -8.06903204340434  4.58486954375438 -1.20447325642564
 6 -8.56591962476248  3.59249837993799 -2.00979553195320
 6 -7.90093390489049  2.39968814291429 -1.67906167596760
 6 -8.57991026972697  5.96357772747275 -1.19152028662866
 6 -9.60299677807781  3.80615155345535 -3.09114166276628
 6 -8.91910089078908  3.87667903100310 -4.52345559225922
 7 -6.31138690599060 -0.07486266646665 -1.03373439383938
 6 -7.42352595929593 -0.06712761836184 -2.03309923252325
 6 -7.47869098569857 -1.27191234393439 -2.76150917551755
 6 -6.68340382408241 -2.15741951525152 -2.10007921782178
 6 -6.00693861736174 -1.36646067556756 -1.10983884858486
 6 -8.46630200490049 -1.52858264686469 -3.87256817621762
 6 -6.30565419251925 -3.56404551055105 -1.98624401830183
 8 -6.57749098969897 -4.66427139723972 -2.54166441214121
 6 -5.06552680618062 -3.55610737743774 -0.87897451825183
 6 -5.33882100970097 -4.60188539013901  0.18564571557156
 8 -5.83830801340134 -4.41243717711771  1.25381250155015
 8 -5.11205116831683 -5.85651953605361 -0.29894406580658
 6 -5.29622297149715 -6.86582017311731  0.57519505430543
 6  2.39686636823682 -4.98159441964196  0.54154213551355
 6  3.50272358245825 -4.06977847714771  0.89850113591359
 6  4.09945904960496 -3.15628544944494  0.14961733673367
 6  3.75273017031703 -3.00567375577558 -1.40989865866587
 6  5.16698090409041 -2.31203547174717  0.80670252115212
 6  6.53184878957896 -2.58580353335334  0.10586091199120
 6  7.71515064176418 -1.75490713651365  0.66218005260526
 6  9.09329793829383 -1.91685766776678  0.00537382418242
 6  9.72301938203820 -3.32720262276228  0.34118724372437
 6  10.06724215981598 -0.82029265016502  0.45967393079308
 6  11.41181433873387 -0.89658245334533 -0.23691900250025
 6  12.41373899449945  0.26326551705171  0.21100188838884
 6  13.69882927702770  0.42583227012701 -0.54159391659166
 6  14.56133430643064 -0.78177890789079 -0.18053473867387
 6  14.29879981818182  1.82736750895090 -0.17929557195720
 6  15.59145842674267  2.08952088738874 -1.10327743544354
 6  16.12693231293129  3.39185169516952 -0.72417351035104
 6  17.50134452915291  3.76240515601560 -1.46180722852285
 6  17.37390637273727  3.83750931363136 -2.91649396939694
 6  18.17100051925192  5.04808293429343 -0.84732568956896
 1 -2.86002150805080  0.93595045864586  3.63164077527753
 1 -6.46554743764376  5.50212641484148  0.93512327502750
 1 -8.90630582968297  0.97756201770177 -3.04904028492849
 1 -3.56006307150715 -3.17070018671867  1.90797653975398
 1 -2.01695278127813 -1.07850545874587  2.56259842584258
 1 -3.09418874407441 -2.68127470837084  4.31625157105710
 1 -3.57066366646665 -0.95377749544954  4.67095323122312
 1 -4.72456413221322 -1.95922384038404  3.67999122172217
 1 -2.33479064466447 -3.03862690769077 -0.37852558715872
 1 -1.30230092979298 -1.77455608300830  0.22227306860686
 1 -0.54285867596760 -3.26394636693669  2.23741828292829
 1 -1.38079755835583 -4.46557339363936  1.49933897059706
 1 -1.94556320842084  3.68426311301130  4.01831421252125
 1 -3.05015266926693  4.55006464556456  5.09366502940294
 1 -3.11059099159916  2.93374656875688  5.02829980678068
 1 -5.38100195949595  6.59744772727273  2.32929504530453
 1 -10.39138312081208  2.86647379927993 -2.96628778337834
 1 -10.21599908280828  4.70322785728573 -2.92557555015502
 1 -9.72596835773577  4.13699159915992 -5.27166347694769
 1 -8.20760472647265  4.67762970357036 -4.40873055485549
 1 -8.46138641354136  3.11910622452245 -4.95387950265026
 1 -8.28013459505951 -0.92480573827383 -4.54561453045305
 1 -8.58198782668267 -2.59432649294929 -4.32209155305531
 1 -9.38536178527853 -1.11852848744874 -3.70129441454145
 1 -4.16369814581458 -3.93525934893489 -1.47795272537254
 1  2.66501444524452 -6.01572886598660  0.81090947884788
 1  2.31074440104010 -4.99506803320332 -0.51615705080508
 1  3.79239522192219 -4.04952507480748  1.92143050715072
 1  2.76892434433443 -3.33018457335734 -1.78162081218122
 1  4.02971030903090 -1.88943364396440 -1.85021323882388
 1  4.52751525892589 -3.69103095939594 -1.88352981028103
 1  4.99327319631963 -1.19374491909191  0.89703009410941
 1  5.38810116851685 -2.61444576177618  1.86194008030803
 1  6.66204542454245 -3.78210250975097  0.06285560726073
 1  6.43770260976098 -2.28660087608761 -0.96265595179518
 1  7.54942574417442 -0.51670822512251  0.70688944224422
 1  7.70300921112111 -2.09796804530453  1.77117458985899
 1  8.94472037163716 -1.76627466816682 -1.12446066476648
 1  9.13463562896290 -4.20366922682268  0.03876140594059
 1  10.72487551695169 -3.45785914061406 -0.14841242314231
 1  9.73105985358536 -3.36084181278128  1.54831579457946
 1  9.65061612251225  0.29072748314832  0.43329250365037
 1  10.23514247284728 -0.91293961326133  1.55646658395840
 1  11.86878880998100 -1.94937225892589 -0.04451375917592
 1  11.50112605280528 -0.74845648114811 -1.28638948264826
 1  11.79853987208721  1.25191826362636  0.34930772037204
 1  12.50949170787079  0.10956223952395  1.30220939603960
 1  13.73671441374137  0.46432117491749 -1.67722392719272
 1  14.55773600080008 -0.95398841614161  0.90998609610961
 1  13.86302668916892 -1.66347952685269 -0.46962321642164
 1  15.69144900140014 -0.85591891959196 -0.47970037303730
 1  13.79630887648765  2.76664496369637 -0.16453633093309
 1  14.80942855505551  1.55239165366537  0.94221304860486
 1  16.50572930003000  1.39070453195320 -1.08191600660066
 1  15.38710350585058  2.04596284768477 -2.14474800570057
 1  15.50772223432343  4.33022623032303 -0.91149242924292
 1  16.28977861176118  3.38194415381538  0.30005246404640
 1  18.26224604140414  3.01076458495850 -1.43180756865687
 1  17.02814995179518  4.85418269716972 -3.42657693659366
 1  18.33382577247725  3.79847624082408 -3.33805123872387
 1  16.85966065136514  2.86130104130413 -3.35380593379338
 1  18.27296517051705  4.93493414641464  0.22717188288829
 1  19.23574118491849  5.01072729922992 -1.11804394549455
 1  17.67269983978398  6.07486189628963 -0.80387873997400
 1 -4.85530341494149 -7.78675977537754  0.09098478247825
 1 -6.49227971927193 -6.89421880328033  0.62399224252425
 1 -4.86843906130613 -6.62870274647465  1.52432530093009
 8 -7.99339223452345  6.81497152855285 -0.49811323972397
 1 -9.51926531033103  6.01738915461546 -1.96293476097610

