%nproc=3
%Mem=2GB
# td=(NStates=1) iop(3/107=0140000000,3/108=0140000000) iop(3/107=0140000000,3/108=0140000000) CAM-B3LYP/6-31G(d,p) 

TD

0 1
12 -5.71227695889589  1.27344737243724  0.24327699649965
 6 -5.06201632343234 -2.12102606730673 -0.31787485258526
 6 -3.45549700960096  1.28369091059106  2.72741417961796
 6 -6.36616303860386  4.58172619571957  0.75107746894689
 6 -7.95688660666067  1.19573825622562 -2.41926602050205
 7 -4.43150023452345 -0.29341526462646  1.09195936293629
 6 -4.30193541394139 -1.50399158055806  0.69311302980298
 6 -3.25161656335634 -2.32635383398340  1.45640122872287
 6 -2.91473562896290 -1.34323499319932  2.66194298089809
 6 -3.66595339533953 -0.01043019561956  2.15479613821382
 6 -3.45041714971497 -1.72967966056606  3.94965282468247
 6 -1.98654349764977 -2.61984597779778  0.62467665376538
 6 -0.98299606250625 -3.42284737263726  1.40539441634163
 6  0.20660652805281 -3.85420029212921  0.55594375547555
 8  0.45531938583858 -3.44730441924192 -0.49247926332633
 8  1.09435111731173 -4.56963210801080  1.36246223472347
 7 -4.99594814581458  2.65346558325833  1.46919360596060
 6 -4.04122821002100  2.45160317631763  2.43398862466247
 6 -3.74993553075308  3.70464054655466  3.11519046344634
 6 -4.55816157185719  4.70011847734773  2.60016590079008
 6 -5.40601996439644  3.98531320782078  1.55623077497750
 6 -2.61419004390439  3.83691077477748  4.14564843534353
 6 -4.78391109110911  6.03873390759076  2.93467890469047
 8 -4.08089057635764  6.57785261546155  3.79841381388139
 7 -6.96956860646065  2.62492042454245 -0.62280494819482
 6 -7.03262546034603  3.92606301180118 -0.32588079117912
 6 -8.07225236543654  4.60807186398640 -1.08666147524752
 6 -8.58613164596460  3.58382751285129 -1.99943449584958
 6 -7.85566937843784  2.43429160326033 -1.73987775757576
 6 -8.39186146484649  5.98455982568257 -1.19642077667767
 6 -9.58350482888289  3.79551048934893 -3.17722027062706
 6 -8.81221020172017  4.09712107520752 -4.48219146584658
 7 -6.36352211951195 -0.08913409360936 -1.14065508590859
 6 -7.27556116281628 -0.08866977257726 -2.06773269586959
 6 -7.51930504710471 -1.38334348704870 -2.79302232683268
 6 -6.52006749044905 -2.12720649394939 -2.16710592049205
 6 -5.99799772327233 -1.42826685618562 -1.07998586328633
 6 -8.47575294999500 -1.68477826642664 -3.87456837623762
 6 -6.17093072017202 -3.49171827782778 -1.97330272417242
 8 -6.49086232683268 -4.61356632673267 -2.50915116081608
 6 -5.07241749524952 -3.57438920562056 -0.87685430623062
 6 -5.37695482308231 -4.62968817041704  0.09616676767677
 8 -5.69539372197220 -4.54226015941594  1.34150127042704
 8 -4.98095805900590 -5.80433431753175 -0.38027219861986
 6 -5.22708605780578 -6.97554114521452  0.36282381718172
 6  2.36171285288529 -5.01608786898690  0.71893987528753
 6  3.45203851395140 -4.10618211751175  1.11482276807681
 6  4.11955105880588 -3.25224504540454  0.20013238823882
 6  3.76703160046005 -3.15102829122912 -1.21948961776178
 6  5.24074828082808 -2.36482075027503  0.60374222512251
 6  6.58840444514451 -2.87093204620462  0.02371269716972
 6  7.75835496219622 -1.88890053585359  0.53954778937894
 6  9.14417302580258 -2.14918090009001 -0.20864757795780
 6  9.69185626572657 -3.54694459695970  0.09584270927093
 6  10.05314074967497 -1.06907752865287  0.33148111151115
 6  11.51541469876988 -1.00529332443244 -0.35452076267627
 6  12.31886950755075  0.23715290579058  0.09708049624963
 6  13.68086748084808  0.40609029592959 -0.57419717691769
 6  14.53027120012001 -0.78717944794479 -0.34203088828883
 6  14.26868680688069  1.68690346254625 -0.14534217661766
 6  15.50833011391139  2.05900783608361 -0.91562867056706
 6  16.01284090379038  3.50762327232723 -0.61785287828783
 6  17.25178957365737  3.98668758425843 -1.29543059085909
 6  17.17224620672067  4.11032659535954 -2.91471379137914
 6  17.73375679487949  5.28079620562056 -0.73086404340434
 1 -2.75042054795479  1.40117698129813  3.45355296649665
 1 -6.80164104700470  5.67524372657266  0.94612437513751
 1 -8.54642984208421  1.10817507900790 -3.39455483638364
 1 -3.77210427562756 -3.21286440314031  1.87962370447045
 1 -1.72776386238624 -0.98686629482948  2.75462762876288
 1 -3.08089741494149 -2.48828540944094  4.24113405930593
 1 -3.05021162126213 -1.00691280898090  4.79390552645265
 1 -4.44939661546155 -1.87511542954295  3.85224844744474
 1 -2.31977914351435 -3.23349639463946 -0.33619135373537
 1 -1.47465816551655 -1.60792942034203  0.28934977627763
 1 -0.44851924202420 -2.85329530183018  2.12721726282628
 1 -1.41080055865587 -4.32581941824182  1.81520055675568
 1 -1.64074272637264  3.25721040774077  3.67134951605161
 1 -2.58306596059606  4.85679531863186  4.36099176207621
 1 -2.76130606310631  3.23862705680568  5.18207518431843
 1 -5.43279713901390  6.70946892939294  2.26797891369137
 1 -10.19388337083708  2.83499065096510 -3.17363851845184
 1 -10.22211969486949  4.61690922542254 -3.19164215681568
 1 -9.54470023092309  4.40549844984498 -5.27522383298330
 1 -7.86048001400140  4.89241118171817 -4.42504218601860
 1 -8.28863913881388  3.13613792769277 -4.84014812951295
 1 -7.97130371197120 -1.23023628132813 -4.86661663066307
 1 -8.72466209410941 -2.80382744304430 -3.99631897579758
 1 -9.60219346844684 -1.28133476807681 -3.57880216531653
 1 -4.14950672667267 -3.82795861886189 -1.54783971407141
 1  2.53542148594860 -6.00931822492249  1.15856424432443
 1  2.13978730533053 -4.96136466286629 -0.38097353245325
 1  3.68285426782678 -4.29449957225723  2.17152551665167
 1  2.92152960486049 -3.52700425532553 -1.50976362646265
 1  3.94278161616162 -2.06119081968197 -1.39734795229523
 1  4.64277678507851 -3.53838569486949 -1.74518597589759
 1  4.95511938093809 -1.27648319291929  0.60708109920992
 1  5.38834119251925 -2.78410272747275  1.62072595889589
 1  6.65787500750075 -3.94181848134813  0.50477979967997
 1  6.60730957045705 -2.73268548454846 -0.94728441464146
 1  7.46649745134513 -0.82352890719072  0.33222197549755
 1  8.03059196939694 -2.02691093959396  1.58455592799280
 1  8.98434433403341 -1.96677471817182 -1.32941115981598
 1  8.86244841024102 -4.49102796269627 -0.15542801300130
 1  10.50807383678368 -3.80162351705171 -0.47161474337434
 1  9.86819356695669 -3.66869259785979  1.22693365636564
 1  9.60163122402240 -0.06120771037104  0.30368954335434
 1  10.17163612221222 -1.30642896219622  1.31308224552455
 1  12.02408433953395 -1.92715003670367 -0.08861816961696
 1  11.31790773097310 -1.12047368286829 -1.43631447514751
 1  11.62565258335833  1.07045011681168  0.11034382398240
 1  12.39363012171217  0.04655593889389  1.16036521162116
 1  13.49805054735473  0.61729647244724 -1.72820902570257
 1  14.80059028622862 -0.97032004930493  0.68255335283528
 1  14.14536492299230 -1.73751693059306 -0.60728698279828
 1  15.55063491999200 -0.75214854255426 -0.80390279327933
 1  13.58382762836284  2.51971027022702 -0.33009288658866
 1  14.62485009720972  1.86052246674667  0.88039686698670
 1  16.36954568166816  1.44285974747475 -0.62174998999900
 1  15.54569936543654  1.90923917531753 -1.99299283018302
 1  15.22425388748875  4.26309951765177 -0.85644692469247
 1  16.28677831173117  3.63450941034103  0.56637909670967
 1  18.01698151495150  3.30887439593959 -1.02668705660566
 1  16.37979511631163  4.98183546244625 -3.18636291519152
 1  18.21169355925592  4.16866325952595 -3.25089252285229
 1  16.80199488478848  3.14704961616162 -3.14822537573757
 1  18.13252112611261  5.31562221522152  0.34759392509251
 1  18.69482709350935  5.57374360086009 -1.22620476157616
 1  17.03253582338234  6.12677708780878 -0.82153050515051
 1 -4.92085997059706 -7.99430052945295 -0.12153646964697
 1 -6.32654314561456 -7.00465984738474  0.44136397969797
 1 -4.73189540694069 -6.85010488668867  1.09785265366537
 8 -7.91383427872787  6.90597062846285 -0.51893532193219
 1 -9.50421380518052  6.16096351205121 -1.90681914941494

