%nproc=3
%Mem=2GB
# td=(NStates=1) iop(3/107=0140000000,3/108=0140000000) iop(3/107=0140000000,3/108=0140000000) CAM-B3LYP/6-31G(d,p) 

TD

0 1
12 -5.63102883408341  1.21085111281128  0.28582125092509
 6 -5.03415353715372 -2.21331529622962 -0.39326239133913
 6 -3.54888634853485  1.17093963546355  2.86276771497150
 6 -6.15162158445845  4.54628265136514  0.64678703990399
 6 -7.95208612661266  1.13180186258626 -2.41219531343134
 7 -4.49581666616662 -0.32556847994799  1.06341650865087
 6 -4.28093331373137 -1.60609179057906  0.59351306980698
 6 -3.23027442914291 -2.27940913951395  1.51861745034503
 6 -2.98565272067207 -1.32547321702170  2.68996578317832
 6 -3.63671047104710 -0.05821497409741  2.23294395299530
 6 -3.62824493249325 -1.83863055565557  3.96561442084208
 6 -2.02133697699770 -2.66349034223422  0.62665685178518
 6 -0.99462722562256 -3.45993108100810  1.31664554145415
 6  0.20079594699470 -3.75877074917492  0.48787694879488
 8  0.40795464936494 -3.28718840764076 -0.62303231863186
 8  1.02652433463346 -4.65965110991099  1.13161915041504
 7 -4.84827337833783  2.68559879657966  1.41625831243124
 6 -3.96788087528753  2.45457347334733  2.40696592239224
 6 -3.65487602480248  3.57015709820982  3.16125506990699
 6 -4.39764552025203  4.62226069156916  2.55057094129413
 6 -5.17108647104711  4.04610928742874  1.49993514541454
 6 -2.75806443134313  3.78882596629663  4.42057592809281
 6 -4.60885358535854  5.95917595179518  3.04389982678268
 8 -3.99682216951695  6.48312314251425  3.90569454195420
 7 -6.78577022662266  2.57138507100710 -0.67995066276628
 6 -6.85865806360636  3.86660706620662 -0.37137534063406
 6 -7.81485662586259  4.62216327312731 -1.17475028412841
 6 -8.35572860566057  3.64936406650665 -2.05503005540554
 6 -7.76282009350935  2.37728590269027 -1.74029779957996
 6 -8.18395067376738  5.99966133583358 -1.20936207080708
 6 -9.36317279567957  3.75197613591359 -3.21867441604160
 6 -8.65954493519352  3.81792315541554 -4.57466071277128
 7 -6.41294706200620 -0.11994717491749 -1.06982800320032
 6 -7.33859746644664 -0.05232613821382 -2.16019194179418
 6 -7.52051516811681 -1.33714886758676 -2.80085310991099
 6 -6.54768025172517 -2.17692146544654 -2.14427363726373
 6 -5.96733465696570 -1.38551258075808 -1.07843570827083
 6 -8.53008838353835 -1.62945273387339 -3.82997391679168
 6 -6.18739236633663 -3.51711081708171 -1.98935432933293
 8 -6.52847608820882 -4.54869984008401 -2.54351459715972
 6 -4.97563781728173 -3.57142890959096 -0.81532815361536
 6 -5.26461358895890 -4.70222542414241  0.17808495949595
 8 -5.67883206580658 -4.54339027242724  1.37276439673967
 8 -5.06953691689169 -5.84472835693569 -0.39606377777778
 6 -5.36168951815181 -7.02685627672767  0.48374590939094
 6  2.22043872547255 -5.06877313751375  0.46712469376938
 6  3.35312862296230 -4.02480397969797  0.91506279207921
 6  3.98335743944394 -3.10779059996000  0.22403477847785
 6  3.73127802510251 -2.93270645904590 -1.29422709150915
 6  5.10845505150515 -2.29779404760476  0.78349019991999
 6  6.48495410011001 -2.64421937493749  0.06976730263026
 6  7.53224235093509 -1.71888353415342  0.65750958555856
 6  8.97602621112111 -1.97469345134513  0.12347563436344
 6  9.45973305340534 -3.39775967846785  0.23663678867887
 6  9.92748818441844 -0.96709733063306  0.71105906930693
 6  11.26114927222722 -0.83339613471347 -0.15197050765077
 6  12.24184180478048  0.21619080958096  0.27443823202320
 6  13.48698809290929  0.48420810771077 -0.56560631783178
 6  14.51629980298030 -0.70042077207721 -0.50477716291629
 6  14.24742468066807  1.82015678787879 -0.28903654605461
 6  15.55348462936294  2.12930486578658 -0.96718382608261
 6  16.10601022072207  3.43642615261526 -0.54526561956196
 6  17.23634802950295  3.95132404790479 -1.46714776257626
 6  16.98365734783479  3.98985454815482 -2.97614993499350
 6  17.96606002520252  5.21772989898990 -1.03236419341934
 1 -2.72921842774277  0.99458632223222  3.62788039923992
 1 -6.40826170907091  5.53571977417742  0.47170693339334
 1 -8.76552175127513  1.13634789628963 -3.18775415631563
 1 -3.60293735893589 -3.30798391509151  1.81254699679968
 1 -1.85106619261926 -1.09952756095610  2.89919208520852
 1 -3.20617994319432 -2.71910849174918  4.11699164506451
 1 -3.61578817891789 -0.97849996769677  4.74192032793279
 1 -4.73640531633163 -2.13702162016202  3.80657387998800
 1 -2.27279444504450 -3.18184122912291 -0.27643537813781
 1 -1.64077477717772 -1.80452908030803  0.22767360866087
 1 -1.04027841794179 -3.00662063436344  2.17138167926793
 1 -1.50286976557656 -4.46769360566057  1.61742077877788
 1 -1.74709336143614  3.32210689738974  4.27377975907591
 1 -2.69027668166817  4.89026866596660  4.73897956085609
 1 -3.22696262876288  3.31443463756376  5.33360033683368
 1 -5.49768362766277  6.48985696819682  2.50570268606861
 1 -10.01444542704270  2.94809196109611 -3.18691984658466
 1 -9.69748723162316  4.72806034053405 -3.11605459805981
 1 -9.25989175007501  4.00595849584959 -5.22356866746675
 1 -7.96311027702770  4.47886982758276 -4.71996167796780
 1 -8.17574784968497  2.83201751565157 -4.86321043574357
 1 -8.20432701430143 -1.32850610831083 -4.94715468446845
 1 -8.48753838173817 -2.75601266156616 -4.07719706360636
 1 -9.68152140124012 -1.27010364496450 -3.72351663676368
 1 -4.08426020202020 -3.90216603960396 -1.46298122822282
 1  2.49313725752575 -6.10589788288829  0.86828521642164
 1  2.31347467406741 -5.04181270767077 -0.70843627872787
 1  3.68222420482048 -4.23825394769477  2.04786315041504
 1  2.59190664256426 -3.38876043094309 -1.53151580168017
 1  3.96700403840384 -1.91431613221322 -1.62964118161816
 1  4.29595210261026 -3.37627948424843 -2.06152761006101
 1  5.11816568556856 -1.30067561216122  0.60276066716672
 1  4.96190854925493 -2.50350466766677  1.81840572687269
 1  6.57377659765977 -3.87897219671967  0.27924724642464
 1  6.46321516101610 -2.58881109710971 -0.98881856805681
 1  7.14887568916892 -0.74697125142514  0.57527628092809
 1  7.80505941614161 -1.94194244274427  1.73186065846585
 1  8.77629352895290 -1.77206524722472 -0.94311252995300
 1  8.84208637403740 -4.22421128102810 -0.10383285348535
 1  10.28797182658266 -3.49831318601860 -0.29124670657066
 1  9.59310605820582 -3.52273800240024  1.29347031003100
 1  9.43924498539854 -0.04702629222922  0.53976315071507
 1  10.17986694529453 -1.12526084538454  1.87835877317732
 1  11.83848577967797 -1.81480880258026 -0.05255456325633
 1  10.91406734693469 -0.82118375387539 -1.42110295399540
 1  11.71548156625662  1.13263633543354  0.36511930153015
 1  12.75948670737074  0.17088837213721  1.17398657375738
 1  13.16564730703070  0.40413515631563 -1.60377658245825
 1  14.82742296949695 -0.93379639693969  0.53694879237924
 1  14.01549193569357 -1.61321450035003 -0.67643389748975
 1  15.27242709920992 -0.75401872957296 -1.44746714971497
 1  13.63756300190019  2.56136443564356 -0.36622649995000
 1  14.52291990419042  1.51486790129013  0.86805563286329
 1  16.25517424452445  1.36753221472147 -0.73453126812681
 1  15.36005080058006  2.30501875327533 -1.98149168006801
 1  15.22452391449145  4.26317952565257 -0.54190547054706
 1  16.44552418631863  3.45006096549655  0.48834129292929
 1  17.97810762756276  3.24639814831483 -1.52388677657766
 1  16.02226936373637  4.42167944684468 -3.15233951285129
 1  17.87801019091909  4.17030342354235 -3.47913534713471
 1  16.66279096439644  3.01820673187319 -3.47579813301330
 1  18.41763963796379  5.28263891689169  0.01511067676768
 1  18.62596020682068  5.57251347784778 -1.84504664576458
 1  17.31539410921092  6.07629203930393 -0.71047940004000
 1 -5.14965284988499 -7.94411551095110 -0.03716803280328
 1 -6.32451294259426 -7.10595997739774  0.87170701400140
 1 -4.67997021442144 -6.63436331253125  1.31466433483348
 8 -7.81566446174617  6.86650668206821 -0.46206963536354
 1 -9.02823620742074  6.21024844054406 -1.96993546104610

