%nproc=3
%Mem=2GB
# td=(NStates=1) iop(3/107=0140000000,3/108=0140000000) iop(3/107=0140000000,3/108=0140000000) CAM-B3LYP/6-31G(d,p) 

TD

0 1
12 -5.64678040924092  1.24930495819582  0.15163783258326
 6 -4.99570969276928 -2.14709867456746 -0.34671773687369
 6 -3.51019247914791  1.16727926942694  2.93262470067007
 6 -6.30180660296030  4.47900592369237  0.66446880808081
 6 -7.93645456345635  1.10590927332733 -2.33889798369837
 7 -4.41941902640264 -0.25805172827283  1.06879704670467
 6 -4.27940316071607 -1.57972915431543  0.67673139163916
 6 -3.25378678037804 -2.31653285188519  1.53259884848485
 6 -3.00576473187319 -1.30930159985999  2.77901468806881
 6 -3.68645544554455 -0.05839499209921  2.20500115871587
 6 -3.51988409640964 -1.61573826642664  4.24748260766077
 6 -2.00935577887789 -2.63694768796880  0.74494868096810
 6 -0.91675943884388 -3.49269435733573  1.53264714161416
 6  0.19478534593459 -3.83451832393239  0.63484164526453
 8  0.35804965886589 -3.40125981478148 -0.49961997739774
 8  1.13372505470547 -4.63109825462546  1.29189517801780
 7 -4.96802535353535  2.60420065676568  1.40968765536554
 6 -3.96508059525953  2.41804982098210  2.47812303810381
 6 -3.71986252345235  3.66442652515252  3.10886983138314
 6 -4.60228598429843  4.63197166266627  2.50101598579858
 6 -5.28170753315332  3.87061173767377  1.51480663256326
 6 -2.79293791869187  3.97798488218822  4.36483035353535
 6 -4.62952565256526  6.02583261746175  2.88350378717872
 8 -3.99760224752475  6.54131896209621  3.81359533203320
 7 -6.87264891449145  2.55385331783178 -0.69627229492949
 6 -6.98936113391339  3.86230663616362 -0.32035023812381
 6 -7.88210335053505  4.56416747354735 -1.25071788088809
 6 -8.37006003880388  3.63705283538354 -2.11414596699670
 6 -7.77490130163016  2.31079925402540 -1.71570534033403
 6 -8.21308358705871  5.98690005970597 -1.23953508810881
 6 -9.40350682908291  3.80878181648165 -3.11226377497750
 6 -8.78609759045905  4.04576593969397 -4.55987923462346
 7 -6.28440420772077 -0.19910509070907 -1.06647766816682
 6 -7.36809041574157 -0.10485139073907 -2.02866878947895
 6 -7.58801191779178 -1.41683683638364 -2.72274529912991
 6 -6.66893237693769 -2.29676344964496 -2.02128133803380
 6 -5.97213513701370 -1.45496952645265 -1.13574143884388
 6 -8.55527090179018 -1.65531532013201 -3.86019693909391
 6 -6.22638626572657 -3.60391949794980 -2.02602799669967
 8 -6.66517975857586 -4.47847281738174 -2.73972421812181
 6 -5.08903915741574 -3.62374414111411 -0.86791341214121
 6 -5.34850197779778 -4.69788499009901  0.22105925692569
 8 -5.77581176377638 -4.58086401980198  1.29485660596060
 8 -5.07545750895089 -5.92380626472647 -0.31781595299530
 6 -5.49027237643764 -7.06509010011001  0.44869240404040
 6  2.28413509510951 -5.04848110831083  0.62462044334433
 6  3.36017932803280 -4.01440293959396  0.94571585738574
 6  4.00379948364836 -3.17825764666467  0.14675705070507
 6  3.60816571387139 -3.09745293369337 -1.30765843464346
 6  5.11104531053105 -2.21436570477048  0.53249510041004
 6  6.49087469216922 -2.45193014601460 -0.20640031413141
 6  7.69868899559956 -1.79679132493249  0.46307014161416
 6  9.07538614711471 -1.92418840084008 -0.23140985418542
 6  9.61209828992899 -3.42862276477648 -0.07928480348035
 6  9.94043947954795 -0.80804142504250  0.25224318771877
 6  11.37152030933093 -0.76993978907891 -0.42916822742274
 6  12.21035865646565  0.35311450195020  0.07117790599060
 6  13.66057545164516  0.49956964386439 -0.56777653485349
 6  14.56547472047205 -0.69822055205521 -0.29217590279028
 6  14.39590952915291  1.75056982918292 -0.03547118951895
 6  15.64086336723672  2.07343927922792 -0.85723283098310
 6  16.18181780148015  3.39875238523852 -0.54370546354635
 6  17.41703609830983  3.87283619911991 -1.31476252405241
 6  17.32009099119912  3.95564112681268 -2.79107142714271
 6  17.99155257445744  5.09957808380838 -0.65432638963896
 1 -2.73559906580658  1.04193105670567  3.60060767196720
 1 -6.53265414831483  5.57815401760176  0.87424718741874
 1 -8.68426362546255  1.41959622112211 -3.11333671457146
 1 -3.84682174737474 -3.21354447114711  1.93440918301830
 1 -1.96536762276228 -1.07017462566257  2.74294646064607
 1 -3.00095942114211 -2.51854843574357  4.64094404030403
 1 -3.06713331343134 -0.81342346004600  4.98748488438844
 1 -4.72738441424142 -1.79387730573057  4.23970719331933
 1 -2.02842000760076 -3.55272831783178 -0.16285402000200
 1 -1.60817151685169 -1.76634526192619  0.22410325162516
 1 -0.59797418751875 -2.98281825412541  2.37773231433143
 1 -1.44639411801180 -4.48112494879488  1.82352138883888
 1 -1.76446509860986  3.88536322302230  3.99541192229223
 1 -2.74789244324432  5.11318095719572  4.77595325822582
 1 -3.03370330283028  3.42704589868987  5.05908288508851
 1 -5.19986384568457  6.60408839133913  2.14772688848885
 1 -10.12415639813981  2.79924707660766 -3.33067422202220
 1 -10.00675815871587  4.56210374487449 -3.17061005360536
 1 -9.58009377027703  4.29306720672067 -5.27436374697470
 1 -8.20913487948795  4.99698163876388 -4.50983066486649
 1 -8.03235351025103  3.12079639353935 -4.85121923662366
 1 -8.32826940854086 -1.31108436613661 -4.75736570557056
 1 -8.71169079697970 -2.63447050735074 -3.91656100000000
 1 -9.62563581268127 -1.44722135673567 -3.42414669976998
 1 -4.20001177717772 -3.88143396639664 -1.33647857795780
 1  2.71114905870587 -5.96180347344735  0.92764115201520
 1  2.02046537313731 -4.92540106650665 -0.40174560966097
 1  3.85507148954895 -4.06380650295029  2.03592195629563
 1  2.52205965786579 -3.12388394329433 -1.44039668976898
 1  3.85205254325433 -2.05313001360136 -1.69751796929693
 1  4.09702220962096 -3.60904276057606 -2.16417787508751
 1  4.73294716371637 -1.19433497809781  0.35514590569057
 1  5.21885424382438 -2.33301761896190  1.51840572687269
 1  6.95707492749275 -3.48383268276828 -0.26220689898990
 1  6.26892573207321 -1.90482269826983 -1.15137482368237
 1  7.30786158775878 -0.80934748904890  0.60501925522552
 1  7.71863077327733 -2.14250249874988  1.66863433583358
 1  8.75869176877688 -1.99746778747875 -1.30201842054205
 1  8.81184334973497 -4.15234409430943 -0.28461093129313
 1  10.60123315271527 -3.74457781248125 -0.60003758565857
 1  9.73877062466247 -3.38624435303530  1.07027799079908
 1  9.51492255315532  0.13603201360136  0.01687086148615
 1  10.09702866146615 -0.98093641294129  1.36495743304330
 1  11.72818474957496 -1.77360468216822 -0.41826113391339
 1  11.11929786998700 -0.43961559705971 -1.69824066776678
 1  11.96849686778678  1.27098016981698  0.01159394899490
 1  12.34919567826783  0.26512779607961  1.13176235133513
 1  13.42926366866686  0.66170091289129 -1.56025223002300
 1  14.85627585478548 -0.82954597189719  0.75978107560756
 1  14.04474486098610 -1.71418459735974 -0.64243049714971
 1  15.50653050955095 -0.59219254695470 -0.98096049904990
 1  13.89727897349735  2.64515281448145  0.09472959565957
 1  14.65885349754975  1.53843025752575  1.12944177147715
 1  16.33350207730773  1.43933939543954 -0.64012182718272
 1  15.39167396289629  1.94577282868287 -1.90420395129513
 1  15.17246870897090  4.07677088478848 -0.60941222122212
 1  16.47809744364436  3.47028298769877  0.40882334113411
 1  18.18402821962196  3.21777528602860 -1.26981136903690
 1  16.20037717451745  4.61679895879588 -3.02215649454946
 1  18.07099948984898  4.55510190339034 -3.13381081468147
 1  17.06499118441844  3.08665357655766 -3.39460001320132
 1  18.43210108410841  4.79570022302230  0.50008917461746
 1  18.90340795159516  5.64306053255326 -1.43591573267327
 1  16.94166673647365  5.76564097419742 -0.61110946304630
 1 -5.02264014861486 -7.97414851425143 -0.06979129512951
 1 -6.67599809110911 -7.16909629102910  0.62120196349635
 1 -5.20507272467247 -6.75941581778178  1.69939280768077
 8 -7.74890778607861  6.75780581198120 -0.42193562196220
 1 -8.82092547634763  6.30572798849885 -1.99027749524952

