%nproc=3
%Mem=2GB
# td=(NStates=1) iop(3/107=0140000000,3/108=0140000000) iop(3/107=0140000000,3/108=0140000000) CAM-B3LYP/6-31G(d,p) 

TD

0 1
12 -5.61846757795780  1.25888591629163  0.22748541734173
 6 -5.00907102890289 -2.14933889858986 -0.37790085518552
 6 -3.45253671357136  1.24964750625063  2.62827426562656
 6 -6.17676409870987  4.60861888498850  0.64097645884588
 6 -7.94499541754175  1.23709239163916 -2.38830292419242
 7 -4.40250733523352 -0.31520744384438  1.03577374437444
 6 -4.29868508890889 -1.56134731613161  0.63806752525253
 6 -3.17096849854985 -2.32276347494749  1.41776736533653
 6 -2.72428658405841 -1.26849751945194  2.53234002060206
 6 -3.47894469446945  0.00545139253925  2.08384904350435
 6 -3.46542865086509 -1.75541223382338  3.91629948934893
 6 -1.93449829312931 -2.81381537473747  0.64861904800480
 6 -0.98577634053405 -3.57420250815082  1.46065994289429
 6  0.19264513191319 -3.85413028512851  0.67312547364737
 8  0.49227308120812 -3.26369605840584 -0.40383039843984
 8  1.04195587778778 -4.69355450025003  1.19990597909791
 7 -4.92412096309631  2.65501573827383  1.36455314191419
 6 -4.12161624882488  2.40904892089209  2.43135836163616
 6 -3.78892943014301  3.60070015251525  3.18533747814781
 6 -4.49075483118312  4.61901036653665  2.64104998919892
 6 -5.29608897129713  3.95805048154815  1.51185633753375
 6 -2.77553617851785  3.79364644834483  4.25297916841684
 6 -4.61916461646165  5.97673770797080  2.85622105890589
 8 -4.04023651095109  6.51118594879488  3.87582155465547
 7 -6.83275492509251  2.60750868336834 -0.67052972067207
 6 -6.93129532733273  3.93675408090809 -0.30338854195420
 6 -7.80701584178418  4.67319837663766 -1.16856966606661
 6 -8.42815584838484  3.69953908400840 -2.02970752315232
 6 -7.73569738123812  2.43943211731173 -1.68605237503750
 6 -8.38145042374238  6.04153552325232 -1.07823895849585
 6 -9.45818229662966  3.68410934923492 -3.10309285788579
 6 -8.90201918261826  3.88150951405140 -4.52561580828083
 7 -6.34148991629163 -0.13237841804180 -1.11072209260926
 6 -7.35143875057506 -0.02311321692169 -2.08522444504450
 6 -7.54218733533353 -1.30478563126313 -2.74046707130713
 6 -6.69277476117612 -2.23365713901390 -2.08051726162616
 6 -6.00920884438444 -1.40958498799880 -1.07910577527753
 6 -8.40133550825083 -1.71818160676068 -3.89589050845085
 6 -6.16716034313431 -3.53419252525253 -2.06614200810081
 8 -6.56792003260326 -4.54279925002500 -2.66064631033103
 6 -5.08508876237624 -3.58469023572357 -0.92146876767677
 6 -5.32418954655465 -4.61224642624262  0.12861001200120
 8 -5.82842702530253 -4.45741167456746  1.22133925422542
 8 -4.98903886708671 -5.87318120222022 -0.33201737313731
 6 -5.38962231143114 -6.87403099419942  0.65399293409341
 6  2.32121880348035 -5.13593985418542  0.54219220052005
 6  3.45574888498850 -4.20413191249125  0.93030431623162
 6  4.14860396409641 -3.25163498439844  0.17665004000400
 6  3.74604950225022 -3.12558574697470 -1.36123379217922
 6  5.20943514951495 -2.45019928812881  0.81209306020602
 6  6.57249285398540 -2.63878883188319  0.10149047494749
 6  7.65632475917592 -1.77156880268027  0.66968080268027
 6  9.02534114261426 -1.97696367836784 -0.05845255845585
 6  9.61616869696970 -3.36227613011301  0.03865699069907
 6  10.02071750735074 -0.96861748264826  0.57006496989699
 6  11.30277343464346 -0.81726452155216 -0.20771608220822
 6  12.25154277487749  0.20184937543754  0.30676146434643
 6  13.61640103420342  0.46145583248325 -0.48768852605261
 6  14.41557973097310 -0.82709343934393 -0.34794147934793
 6  14.21510144834483  1.70557532973297 -0.02647028942894
 6  15.44990427132713  2.19414134943494 -1.00481758945895
 6  16.00704032373237  3.49984249424943 -0.73935502850285
 6  17.28502289698970  3.97614653015302 -1.47761880968097
 6  17.03057203930393  3.99342490519052 -2.91948426842684
 6  17.71283470267027  5.22151027702770 -0.86407736473647
 1 -2.83429893579358  1.02663952755276  3.61752936413641
 1 -6.37349823272327  5.73111931413141  0.48794855755576
 1 -8.76517171627163  1.45463972547255 -3.04985036593659
 1 -3.62932999819982 -3.22004512121212  2.03588933103310
 1 -1.84053513951395 -1.14030163836384  2.87121928792879
 1 -2.89556888208821 -2.77288386928693  4.02807275317532
 1 -3.33914051415141 -1.07633975167517  4.72521865776578
 1 -4.55144682048205 -2.03113103110311  3.53845706830683
 1 -2.19524669026903 -3.41047409240924 -0.20205794039404
 1 -1.51527222692269 -1.80607923532353  0.25497633893389
 1 -0.59563395349535 -2.94333430573057  2.37319186028603
 1 -1.41974145274527 -4.40468730503050  1.97341637833783
 1 -1.87592624472447  3.48908359505951  3.86302868396840
 1 -2.75018267226723  4.81400103920392  4.39715537843784
 1 -3.00705063756376  3.10356355045505  5.11395837263726
 1 -5.18892275157516  6.73457143964396  2.19473158895890
 1 -9.99937391989199  2.79902705460546 -2.96849800440044
 1 -10.10327781068107  4.35410294479448 -2.89721271387139
 1 -9.77199296019602  3.86520442044204 -5.18212452305231
 1 -8.45102906890689  5.00631257185719 -4.42412209400940
 1 -8.08693896879688  3.32087640154015 -4.53097721242124
 1 -8.19784636623662 -1.22051530923092 -4.76838680768077
 1 -8.32622225012501 -2.89068612891289 -3.90153949784978
 1 -9.48924217331733 -1.50121675627563 -3.66710099519952
 1 -4.27762953895389 -3.83296911991199 -1.44551948204821
 1  2.63259120292029 -6.21828912201220  0.87481586948695
 1  2.09900322692269 -4.86651517791779 -0.44430986608661
 1  3.61835781818182 -3.98870899319932  1.95621398549855
 1  2.64715216711671 -3.37490904580458 -1.35974862496250
 1  4.08023536153615 -2.18427312791279 -1.83960217771777
 1  4.25328783618362 -3.91762361866187 -2.16331778907891
 1  4.91407527652765 -1.53092863746375  0.51118150925092
 1  5.10000235863586 -2.55774009120912  1.80676456275628
 1  6.84357357735774 -3.56727102660266  0.26573589528953
 1  6.51401024052405 -2.37039925592559 -0.94857454365436
 1  7.31876267786779 -0.73305986028603  0.49937869116912
 1  7.82396130633063 -2.15575382388239  1.79104657705771
 1  8.73611951155116 -1.72276031673167 -1.11492971167117
 1  8.82388455385539 -4.10989984988499 -0.04601707190719
 1  10.52159518891889 -3.58138149284928 -0.50147772967297
 1  9.93347009460946 -3.60073580218022  1.12901386438644
 1  9.72294335523552  0.10876928732873  0.48367754215422
 1  10.19850880948095 -1.10624894419442  1.64033497079708
 1  11.86561849294930 -1.89026634833483 -0.39558886668667
 1  11.02469841004100 -0.64193582908291 -1.28846969066907
 1  11.57720773887389  1.17887095889589  0.53832662226223
 1  12.52742350105011 -0.02699141584158  1.48481765686569
 1  13.23492423472347  0.71455619841984 -1.68349455425543
 1  14.68421864906491 -1.06119913721372  0.55633073057306
 1  13.96103649014902 -1.73492667156716 -0.73862011611161
 1  15.41900175667567 -0.74305763346335 -0.81730413341334
 1  13.48792803840384  2.51430973017302 -0.14370424772477
 1  14.68259587178718  1.51224763926393  1.01313014031403
 1  16.34571329842984  1.25347080858086 -0.85271308630863
 1  15.32143693919392  2.20969922132213 -2.00188371927193
 1  15.27945940804080  4.23342655035504 -1.21789306930693
 1  16.20977061096109  3.72458841824182  0.22517497629763
 1  18.11737155395540  3.30428393689369 -1.21917630553055
 1  16.31410854765477  4.56310358925893 -3.17134141304130
 1  17.91863425332533  4.39920631383138 -3.30057749134914
 1  16.79400408570857  3.03363827502750 -3.39185973917392
 1  17.85299317331733  5.15411606460646  0.29767893359336
 1  18.67395500630063  5.53683991049105 -1.37509965106511
 1  16.88815138493850  5.87190160026003 -1.23560191229123
 1 -5.51438932353235 -7.83199429882988  0.09163484748475
 1 -6.44964545584558 -6.73401278267827  0.78740858415842
 1 -4.92449466686669 -6.77932780898090  1.57896076447645
 8 -7.80430332563256  6.90101013241324 -0.44251768016802
 1 -9.26594997879788  6.17750516621662 -1.67352582008201

