%nproc=3
%Mem=2GB
# td=(NStates=1) iop(3/107=0140000000,3/108=0140000000) iop(3/107=0140000000,3/108=0140000000) CAM-B3LYP/6-31G(d,p) 

TD

0 1
12 -5.61800753195320  1.18754878257826  0.11150381918192
 6 -5.12338246004600 -2.14328829352935 -0.35913897899790
 6 -3.39423088298830  1.10139268076808  2.70386182438244
 6 -6.19168559085909  4.51326935003500  0.61748410961096
 6 -8.08760967896790  1.20252893529353 -2.35887998189819
 7 -4.38435552005201 -0.34691061416142  1.05481564856486
 6 -4.27260248064806 -1.63964514591459  0.60941465996600
 6 -3.24420582228223 -2.39946114471447  1.40187577617762
 6 -3.01132528792879 -1.44476514621462  2.69327611421142
 6 -3.65683248324832 -0.11151030363036  2.17248790739074
 6 -3.70365247324732 -1.84030072267227  3.98336619601960
 6 -1.89686452975298 -2.65490948414842  0.56382056815682
 6 -1.01884964786479 -3.56678176607661  1.30779465636564
 6  0.16825269266927 -3.83249812191219  0.50480864196420
 8  0.43277713161316 -3.52583227202720 -0.66242625802580
 8  1.05770745294529 -4.69524466926693  1.15831181968197
 7 -4.91046959795980  2.59751998869887  1.44929161576158
 6 -4.00726481368137  2.43678169416942  2.39634486028603
 6 -3.61691222842284  3.65615569806981  3.03643258765877
 6 -4.44684043974397  4.57870633613361  2.54594047824782
 6 -5.17661702410241  3.96968164466447  1.44773992589259
 6 -2.66695532043204  3.74786186988699  4.13579745024502
 6 -4.51282398239824  6.06661669586959  2.82356779357936
 8 -3.94512700000000  6.50656548674868  3.83067704020402
 7 -6.80128177777778  2.54741267376738 -0.65154782248225
 6 -6.90906310411041  3.82471287678768 -0.35396359945995
 6 -7.80708584878488  4.63154421122112 -1.20187299639964
 6 -8.43074610741074  3.70192932303230 -2.06122067446745
 6 -7.72805661716172  2.45104327842784 -1.72879664946495
 6 -8.30710298899890  5.99204057375738 -1.12596373097310
 6 -9.41124760316032  3.77698863716372 -3.10299284788479
 6 -8.70818979967997  3.98117948104810 -4.46844009070907
 7 -6.37903367066707 -0.08517369756976 -1.02213323372337
 6 -7.44890849754975 -0.00631153675368 -2.03751967456746
 6 -7.66542965956596 -1.37610276297630 -2.62973599819982
 6 -6.85052053575358 -2.13008678197820 -2.01364057395740
 6 -6.05895381888189 -1.46565059455946 -1.09560742544254
 6 -8.67643301800180 -1.62712250085008 -3.63686460586059
 6 -6.36043967106711 -3.60547965396540 -1.89646504040404
 8 -6.70181342194219 -4.59245421552155 -2.55126537223722
 6 -5.14168442194219 -3.57990975767577 -0.90499712051205
 6 -5.45232235983598 -4.65032023362336  0.10389754075408
 8 -5.96942112471247 -4.39266519991999  1.27530465076508
 8 -5.09228919211921 -5.84689857395740 -0.34081825322532
 6 -5.27050039923992 -6.90705429652965  0.50493802860286
 6  2.40355703730373 -5.02998925912591  0.66219420072007
 6  3.44193750385039 -4.00908240754075  1.07991927772777
 6  4.13471257495750 -3.17688750965097  0.22719509450945
 6  3.85742063936394 -3.09830301870187 -1.27826549534953
 6  5.25649985598560 -2.31960622882288  0.73486533743374
 6  6.50102570727073 -2.63334828782878  0.09243956985699
 6  7.69779890659066 -1.71354300010001  0.65904973957396
 6  9.02593120162016 -1.96636261826183 -0.06412312551255
 6  9.54757183728373 -3.39344924742474  0.16368949394939
 6  10.02312774837484 -0.84330495139514  0.38966693009301
 6  11.47360051735173 -0.91074386948695 -0.18404371497150
 6  12.32157977857786  0.34664385488549  0.16982777097710
 6  13.64293368746875  0.39735942284228 -0.52421217841784
 6  14.55994416741674 -0.69492022202220 -0.20272695789579
 6  14.34735467366737  1.74311908410841 -0.09514715711571
 6  15.50106938783878  2.14418635393539 -1.08566567426743
 6  15.97473709340934  3.55781829182918 -0.74078517151715
 6  17.27622201690169  3.96775569106911 -1.36613766156616
 6  17.16973595569557  4.11232679537954 -2.91876419641964
 6  17.93122654185418  5.23980210621062 -0.74750570757076
 1 -2.72095760166017  1.24882174577458  3.61624923612361
 1 -6.38662954585458  5.58562476467647  0.68717848054805
 1 -8.65268046714671  1.21705596709671 -3.16368174907491
 1 -3.81650871607161 -3.45252836953695  1.57437317941794
 1 -1.90914200020002 -1.11030863906391  2.71876404240424
 1 -3.35140446564656 -2.74005058595860  4.55177512341234
 1 -3.54988158825883 -1.09360147784778  4.77033316921692
 1 -4.86864854065407 -1.87012493049305  3.69981320392039
 1 -2.03819098469847 -3.15514855985599 -0.46927466206621
 1 -1.60794149384939 -1.59079770717072  0.23434427572757
 1 -0.68053244334433 -3.16823679597960  2.44200874197420
 1 -1.61567104570457 -4.49999683598360  1.51471050775077
 1 -1.59211786388639  3.36762144884488  3.99064144524452
 1 -2.66329398339834  4.73357299639964  4.38007367026703
 1 -3.06531646414641  3.20126332043204  4.89650662746275
 1 -5.15313917321732  6.73787176967697  2.18161027682768
 1 -10.17627160966097  3.01090824272427 -3.02731388598860
 1 -10.00070755365537  4.83506104060406 -2.98230122272227
 1 -9.32652841374137  4.34064196419642 -5.33814012461246
 1 -8.05889985598560  4.97514945554555 -4.31610129192919
 1 -8.04679495439544  3.09151346524652 -4.88305241994199
 1 -8.58338492009201 -1.06009926762676 -4.45946591559156
 1 -8.88737836573657 -2.58901596189619 -3.90117946184618
 1 -9.69623287238724 -1.30536717131713 -3.28161244634463
 1 -4.24990676667667 -3.91370719371937 -1.62308723882388
 1  2.77891583538354 -5.93702099519952  1.11544993289329
 1  2.42761608820882 -5.30149867626763 -0.33477891299130
 1  3.49852583498350 -4.10870099239924  2.12801116521652
 1  2.76672412431243 -3.24070562546255 -1.45860851095110
 1  4.19171650965097 -2.17617231783178 -1.44465268276828
 1  4.37283979137914 -3.70624248054806 -1.98285974327433
 1  5.02806667566757 -1.31386693129313  0.20473086418642
 1  5.34186654505451 -2.27548186538654  1.77240112641264
 1  6.61660088008801 -3.83704800430043  0.21034035573557
 1  6.56789562906291 -2.49644186018602 -1.04142382858286
 1  7.26861766336634 -0.78111466576658  0.70604935823582
 1  7.75935484568457 -2.14930317881788  1.72064953735374
 1  8.78997489708971 -1.82890093079308 -1.25466368506851
 1  9.05695786118612 -4.32988184808481 -0.07021949214921
 1  10.47922095149515 -3.67381073577358 -0.50058764066407
 1  9.70079682728273 -3.51913764236424  1.21782274527453
 1  9.57168822972297  0.25455386578658  0.05291446584658
 1  10.25786474507451 -1.14250256955696  1.57038797609761
 1  11.75363729482948 -1.93817113881388  0.08634932713271
 1  11.52198813901390 -0.89586122162216 -1.06098694239424
 1  11.61781179927993  1.38209128092809  0.01369415901590
 1  12.45933669236924  0.27696898019802  1.25272444754475
 1  13.49443018531853  0.34279902270227 -1.49361556635664
 1  14.84953518071807 -0.84349736703670  0.87059215671567
 1  14.28792917941794 -1.47126030493049 -0.71610786488649
 1  15.43497335383538 -0.45058838653865 -0.59737214021402
 1  13.68917816341634  2.67923622282228  0.00855097779778
 1  14.74770238243824  1.56148256275628  0.90567939523952
 1  16.24072279937994  1.47575303680368 -1.04611242624262
 1  15.10465526102610  2.33346159755976 -2.09614314521452
 1  15.01656311841184  4.15708891659166 -0.72499377937794
 1  16.16052568646865  3.70104606400640  0.27557001580158
 1  17.79531934873487  3.06542005050505 -1.16287067496750
 1  16.44151128792879  4.88600587948795 -3.28854313321332
 1  18.19155154505451  4.39239563276328 -3.33750118371837
 1  17.11261594689469  3.09699461066107 -3.40889144234423
 1  18.19345721972197  5.11023167616762  0.40203936963696
 1  18.92444005480548  5.65891211771177 -1.02372451355136
 1  17.29319188898890  6.12901731183118 -0.82602095419542
 1 -4.62146003060306 -7.72042314171417  0.23174885888589
 1 -6.28330882218222 -7.41228060946095  0.38293813711371
 1 -4.96692891029103 -6.67587746394639  1.64303717211721
 8 -7.71034392969297  6.84548457985799 -0.40449387778778
 1 -9.02934631843184  6.40661807750775 -1.85976444394439

