%nproc=3
%Mem=2GB
# td=(NStates=1) iop(3/107=0140000000,3/108=0140000000) iop(3/107=0140000000,3/108=0140000000) CAM-B3LYP/6-31G(d,p) 

TD

0 1
12 -5.73343907510751  1.26763679137914  0.22484515331533
 6 -4.98566868866887 -2.21077504220422 -0.32856592169217
 6 -3.33093455335534  1.19478201970197  2.73910534873487
 6 -6.39181560386039  4.51347937103710  0.73190555175518
 6 -8.01877279527953  1.19910859325933 -2.38485257915792
 7 -4.40794787928793 -0.24224014711471  1.03782394939494
 6 -4.31066628702870 -1.61625280668067  0.74503822232223
 6 -3.27876927862786 -2.26877807640764  1.51065665426543
 6 -2.90575473087309 -1.25240591029103  2.65669245584558
 6 -3.53739053905391  0.00724157155716  2.09903056165617
 6 -3.37855996399640 -1.63542023462346  4.09019687908791
 6 -1.96085092839284 -2.73392738593859  0.76493067916792
 6 -1.04172193509351 -3.54370945884589  1.48091196809681
 6  0.21891775917592 -3.86737160926093  0.64921308240824
 8  0.43493734763476 -3.36463615241524 -0.42986300170017
 8  1.09602128432843 -4.60489563436344  1.43037902640264
 7 -4.94103265426543  2.66639687638764  1.45664235083508
 6 -3.99881396859686  2.44855287128713  2.38234346014601
 6 -3.67774831203120  3.61839192169217  3.12323126752675
 6 -4.55449120482048  4.65748421392139  2.55899178337834
 6 -5.32671203360336  4.01427610411041  1.55689084098410
 6 -2.77855648054805  3.84034111781178  4.24845871637164
 6 -4.63673637363736  6.02031206540654  2.92452788958896
 8 -3.96031851915192  6.61488631883188  3.75911988448845
 7 -6.97720937053705  2.62465039753975 -0.68563123082308
 6 -7.05849804760476  3.90387079257926 -0.28135633873387
 6 -8.03607874807481  4.62869392619262 -1.19179198829883
 6 -8.56189922272227  3.63798292839284 -2.01627618001800
 6 -7.87350116161616  2.38009618371837 -1.70750452025203
 6 -8.39911218991899  6.05737710741074 -1.23195433003300
 6 -9.43755023342334  3.82277321562156 -3.16565911451145
 6 -8.59959894059406  3.88326969006901 -4.50544379107911
 7 -6.26108187548755 -0.13882906310631 -1.11256227662766
 6 -7.35165877257726 -0.04929583518352 -2.13437936053605
 6 -7.60362347894789 -1.28905405810581 -2.76779980458046
 6 -6.63242872657266 -2.16650042334233 -2.06045525542554
 6 -5.89866779027903 -1.45709973947395 -1.09016688138814
 6 -8.58399377407741 -1.65265505410541 -3.91348226762676
 6 -6.18776240334033 -3.54488359435944 -2.05313070697070
 8 -6.57557079767977 -4.53730870097010 -2.62264250995100
 6 -4.99898015151515 -3.53210497719772 -0.88965558635864
 6 -5.15714284188419 -4.67001220282028  0.04709186018602
 8 -5.60116429902990 -4.56570250365036  1.18591571187119
 8 -4.78795875907591 -5.80723460756076 -0.46495066646665
 6 -5.22792614181418 -6.95361895299530  0.33943147794779
 6  2.26448312991299 -4.97372363256326  0.57718569986999
 6  3.40094340444044 -4.09437093639364  0.92793407920792
 6  4.07029613331333 -3.26345616651665  0.15801817681768
 6  3.63673857115712 -3.03570675907591 -1.30367803660366
 6  5.20854506050605 -2.43475774397440  0.62968481938194
 6  6.53459906460646 -2.70532548554855 -0.05867554165417
 6  7.64353348004800 -1.77926957275728  0.53550738533853
 6  9.08616722522252 -2.18000398239824 -0.00904761796180
 6  9.50893797389739 -3.58533843634363  0.36519964496450
 6  10.04891032663266 -1.01410203110311  0.36688465186519
 6  11.37839099639964 -0.98676147124712 -0.27520283088309
 6  12.19803742434243  0.13469265976598  0.21184197239724
 6  13.53226262036204  0.44827451435144 -0.60386014321432
 6  14.43310148314831 -0.76740747074707 -0.32453913911391
 6  14.21455139333933  1.82785755795580 -0.26637427982798
 6  15.55328460936094  2.13063499879988 -0.98702581028103
 6  15.98100772047205  3.50979348934893 -0.63678477147715
 6  17.31308570327033  3.90258917441744 -1.38514956275628
 6  17.12737171927193  4.06344190689069 -2.84786710671067
 6  17.89747316651665  5.15392351835184 -0.81722267926793
 1 -2.51737724362436  1.21922878647865  3.46594420562056
 1 -6.62102298519852  5.56862306450645  0.90426018871887
 1 -8.58928412751275  1.16034029552955 -3.14123950485049
 1 -3.81145821102110 -3.16680979767977  1.98419416151615
 1 -1.80953203920392 -1.15004261246125  2.66939910591059
 1 -2.83096242144214 -2.51426800770077  4.58094804070407
 1 -3.47414401450145 -0.95288740644064  4.85409154505451
 1 -4.30124179998000 -1.92665058305831  3.90527374997500
 1 -2.47287445304530 -3.16229927492749 -0.13362109670967
 1 -1.32890359005901 -1.93799242664266  0.46652749404940
 1 -0.62889727982798 -3.07526749904991  2.44935947704770
 1 -1.51201067966797 -4.57531436773677  1.74289332603260
 1 -1.78689734183418  3.39501418811881  4.16094847594760
 1 -2.75507316131613  4.92663230233023  4.49887555045505
 1 -3.32803273577358  3.27220041414141  5.04067104390439
 1 -5.17010086938694  6.51080906340634  2.11353346914691
 1 -10.10612459495950  2.95242239413941 -3.20221137573757
 1 -9.81582906580658  4.81137867236724 -2.97928092069207
 1 -9.56204196509651  4.07625552555255 -5.18458476907691
 1 -7.83702766876688  4.55137707830783 -4.42637231903190
 1 -8.08800907580758  3.00082439633963 -4.77603171787179
 1 -8.17697427902790 -1.15570882858286 -4.67672764176418
 1 -8.44153378127813 -2.63594065436544 -4.05796514041404
 1 -9.57340058915891 -1.26415304990499 -3.68323260836084
 1 -4.11605338133813 -3.78967479047905 -1.36913184328433
 1  2.52387033083308 -5.86285357845785  0.91830021792179
 1  1.85363869046905 -4.69914844124412 -0.34357979307931
 1  3.82447843024302 -4.19667979027903  2.07207557165717
 1  2.62501995389539 -3.23977553245324 -1.67166981708171
 1  4.05302264026403 -1.96732143274327 -1.62277049454945
 1  4.33849635703570 -3.69674153045305 -1.79554101140114
 1  4.91562543154316 -1.40982652725273  0.43581397249725
 1  5.21236359475948 -2.49381369856986  1.61974586088609
 1  6.73241246124612 -3.80805510501050  0.14810413211321
 1  6.37523636313631 -2.77236945294529 -1.13128281448145
 1  7.64347514911491 -0.68738529282928  0.19298805210521
 1  7.58265717591759 -1.77770601910191  1.69092656505651
 1  9.05550144974498 -2.12137017771777 -0.98436665536554
 1  8.83675584098410 -4.27977683758376 -0.07884035423542
 1  10.59585261466147 -3.80427378207821 -0.20436801870187
 1  9.44917166476648 -3.48940466906691  1.57347831083108
 1  9.44296535743574 -0.00798238783878  0.47946712111211
 1  10.24027298589859 -1.02767108640864  1.43729466676668
 1  12.14076600770077 -1.93428074977498 -0.17296660446045
 1  11.26289222942294 -0.93695533103310 -1.34576542024202
 1  11.64748476657666  1.20895396719672  0.01847463706371
 1  12.59850060876088  0.25624690799080  1.30581975707571
 1  13.40125086738674  0.47770251305131 -1.67328353315332
 1  14.52140236743674 -0.87133015031503  0.76478157565757
 1  13.75079546604661 -1.66206938583858 -0.73113936803680
 1  15.47648750525052 -0.46488981668167 -0.68553095609561
 1  13.41617086268627  2.68696699589959 -0.45531540884088
 1  14.30403801600160  1.83694010851085  0.81796062336234
 1  16.49218794589459  1.45532099359936 -0.54730254525452
 1  15.50911570707071  1.90499875127513 -1.97241077197720
 1  15.26201766386639  4.24328753645365 -0.89535081508151
 1  16.34800443434343  3.78294425382538  0.37683014181418
 1  18.15763558035804  3.21654516301630 -1.09008339623962
 1  16.65174231103110  4.95529280818082 -2.92780705960596
 1  18.12145453535354  4.23147954115411 -3.42028946254625
 1  16.65609029432943  3.12957786898690 -3.53491404460446
 1  17.91377925192519  5.24820547354735  0.29939910561056
 1  18.87974558535854  5.41275750225022 -1.27288943004300
 1  17.30649321912191  6.01467587768777 -1.09380773287329
 1 -5.00168805340534 -7.73451455085509 -0.48194251025103
 1 -6.32723321462146 -6.76693607500750  0.71834167746775
 1 -4.30376259365937 -7.10142001820182  1.19007187558756
 8 -7.99934282958296  6.86775680708071 -0.34247767616762
 1 -9.11255463926393  6.47831524722472 -2.12108057555756

