%nproc=3
%Mem=2GB
# td=(NStates=1) iop(3/107=0140000000,3/108=0140000000) iop(3/107=0140000000,3/108=0140000000) CAM-B3LYP/6-31G(d,p) 

TD

0 1
12 -5.58354408560856  1.18347837553755  0.20006267506751
 6 -4.90582070387039 -2.06867083178318 -0.47797086218622
 6 -3.25043650355035  1.20868340984098  2.67457889608961
 6 -6.29296571887189  4.52986100920092  0.64719708090809
 6 -7.98633955195520  1.10286896929693 -2.31662575647565
 7 -4.24490157465747 -0.27714363746375  0.94422458945895
 6 -4.17903312371237 -1.52538371977198  0.68697241574157
 6 -3.10919232093209 -2.24238543714371  1.50351594019402
 6 -2.93510766616662 -1.23383405310531  2.63612039863986
 6 -3.51419821982198 -0.00260941354135  2.08286894549455
 6 -3.46215832383238 -1.65953264586459  3.98353621302130
 6 -1.95463030633063 -2.74721871507151  0.70004419051905
 6 -0.91407917081708 -3.59629471737174  1.53811768866887
 6  0.25431129852985 -3.97316218831883  0.59174733583358
 8  0.50704455835584 -3.36334602340234 -0.41538155355536
 8  1.06424810701070 -4.81570671547155  1.30567655615562
 7 -4.92341089208921  2.58949918661866  1.49144583118312
 6 -3.93758784598460  2.42239025502550  2.36561178697870
 6 -3.69245978317832  3.65935601810181  3.15765470987099
 6 -4.54884063976398  4.63097156265627  2.54268015221522
 6 -5.26333569596960  3.99086376287629  1.45758090999100
 6 -2.63557218211821  3.77176426012601  4.26435030553055
 6 -4.77408010801080  5.96570660486049  3.06310174697470
 8 -4.07251973927393  6.56867169736974  3.85248922142214
 7 -6.90404205380538  2.64276220872087 -0.65091775947595
 6 -7.01130332813281  3.94063446894689 -0.40216841994199
 6 -7.95229036923692  4.55106616341634 -1.31785459455946
 6 -8.37426045884589  3.56489561966197 -2.17762231463146
 6 -7.72794660616062  2.36477465156516 -1.68565233503350
 6 -8.39109138783878  5.97730910061006 -1.12414354895490
 6 -9.35320179857986  3.78001894019402 -3.23776632523252
 6 -8.77518649934994  4.10470183328333 -4.63990723742374
 7 -6.46235200250025 -0.14483966416642 -1.02760378077808
 6 -7.37537114381438 -0.09273017861786 -2.06952287488749
 6 -7.56983009960996 -1.29864501720172 -2.69296232083208
 6 -6.58114359805981 -2.14714848814882 -2.12272148204821
 6 -5.89945786928693 -1.41828585808581 -1.20842870757076
 6 -8.48460383508351 -1.60902069066907 -3.77340826022602
 6 -6.16274990209021 -3.52516162216222 -2.07159255315532
 8 -6.54200744134413 -4.48174314441444 -2.64760500620062
 6 -5.00291054455446 -3.69652141884188 -0.83637025782578
 6 -5.43271039863986 -4.61910711231123  0.11877902890289
 8 -5.88075225782578 -4.35215114851485  1.30295741604160
 8 -5.26312627582758 -5.83675755985599 -0.34503867526753
 6 -5.66865021422142 -6.82964655575558  0.57581511631163
 6  2.32368905050505 -5.10275653585358  0.66871485278528
 6  3.44737804790479 -4.18553005230523  1.00799208500850
 6  4.09272837653765 -3.25839566046605  0.11514388938894
 6  3.74667956525653 -3.12001518991899 -1.27534520332033
 6  5.21668587458746 -2.49853412161216  0.81012286318632
 6  6.66181178587859 -2.76119107210721  0.15050537643764
 6  7.73438256495650 -1.88542018781878  0.68865269986999
 6  9.08102671117112 -2.01093707570757 -0.17457417061706
 6  9.51302838293829 -3.48698860136014  0.04332745774577
 6  10.10188562416242 -0.90654127502750  0.39015697909791
 6  11.42614577187719 -0.76900969606961 -0.34822013261326
 6  12.26984460506051  0.37660685118512  0.11200198839884
 6  13.55416481058106  0.46294598149815 -0.71196095329533
 6  14.42338051105111 -0.78688941894189 -0.46810349554955
 6  14.25513545174517  1.70199497169717 -0.21067871027103
 6  15.41950123102310  2.22356429172917 -1.01377848554855
 6  15.88506812651265  3.58346085608561 -0.53106419941994
 6  17.21132552725273  3.91132004750475 -1.29693074087409
 6  17.14274325642564  4.06444200690069 -2.76583890389039
 6  17.87519093829383  5.27588571457146 -0.74252520952095
 1 -2.63321882778278  1.51639850345034  3.46701431263126
 1 -6.33431431433143  5.68269447164716  0.67418718141814
 1 -8.75483068216822  1.21201546304630 -2.97888326922692
 1 -3.65574263946395 -3.21834495119512  1.92621836393639
 1 -1.84196528252825 -0.76902451065106  2.78219038503850
 1 -3.13077240244024 -2.86634321522152  4.11322126802680
 1 -2.78764536463646 -1.17328944664466  5.05573170907091
 1 -4.44746642244224 -1.76773469146915  4.04478770137014
 1 -2.46950411601160 -3.33687673267327 -0.03900163476348
 1 -1.46761746144614 -1.89652828022802  0.13980482178218
 1 -0.53119750985099 -3.01007097939794  2.34044858595860
 1 -1.19129860846085 -4.69051588788879  2.03787282398240
 1 -1.47848650075007  3.84753944064406  4.20987336843684
 1 -2.80863851785179  4.73750338943894  4.77896355925593
 1 -2.94842477497750  3.01478467256726  4.94590156695670
 1 -5.54793865316532  6.30301828432843  2.42195431123112
 1 -10.00319430193019  2.94347149904990 -3.42736389098910
 1 -10.03700118301830  4.57119465396540 -2.98274126672667
 1 -9.44525028592859  4.13907180718072 -5.31844815541554
 1 -8.26542050805081  5.04909685028503 -4.54108379017902
 1 -8.02974324922492  3.37279159305931 -4.86724083878388
 1 -8.25329191079108 -1.19856311401140 -4.59730969997000
 1 -8.43038266616662 -2.79210627092709 -3.82843218711871
 1 -9.57239048814881 -1.19305594019402 -3.54262854795480
 1 -4.12777455345535 -3.96757258025803 -1.40772570267027
 1  2.44797274107411 -6.22321961506151  0.91373976187619
 1  1.85236856345635 -5.05890441684168 -0.38162359745975
 1  3.67479346174617 -4.20570069236924  2.01760012411241
 1  2.80008746064606 -3.52012356725673 -1.56217886798680
 1  3.84221155915592 -2.06219091969197 -1.49586780428043
 1  4.38887139453945 -3.63682553885389 -2.05393685098510
 1  5.14669853885389 -1.43054859945995  0.59134952605261
 1  5.26807916631663 -2.78121243844384  1.90211409770977
 1  6.65148436843684 -3.84191849134913  0.21269059075908
 1  6.56710555005500 -2.66776899289929 -1.01147083328333
 1  7.48291909350935 -0.82239879417942  0.41102985628563
 1  8.00440935113511 -2.14731297979798  1.69241671407141
 1  8.80602650225023 -2.04070211091109 -1.17063528222822
 1  8.86513867926793 -4.17978683858386 -0.31032350255026
 1  10.59832286168617 -3.74685804050405 -0.33920150205021
 1  9.56681342894290 -3.50480620922092  1.08501946494649
 1  9.39875093599360 -0.00722231183118  0.24226340074007
 1  10.29954891349135 -0.98798711801180  1.46848778607861
 1  11.80980291139114 -1.86096341804181 -0.06523583138314
 1  11.31395733593359 -0.69362099759976 -1.47058790249025
 1  11.67283730183018  1.29089216101610 -0.02642985338534
 1  12.34147490619062  0.32705398869887  1.18578775387539
 1  13.25247598989899  0.68879362216222 -1.80602680748075
 1  14.84656488368837 -1.04245726302630  0.63831892939294
 1  13.85337572407241 -1.68854203310331 -0.68261451555156
 1  15.31763161966197 -0.76115944364436 -1.06396879987999
 1  13.41530077567757  2.30804910411041 -0.16016589388939
 1  14.43828144034403  1.34358077257726  0.85610443774377
 1  16.12254098119812  1.37520298179818 -1.09653746874687
 1  15.19378417391739  2.66695494689469 -2.05697922882288
 1  15.14614607670767  4.32990619831983 -0.60660194019402
 1  16.26843647754775  3.40815677507751  0.69213167196720
 1  17.82794261106111  2.95791930043004 -1.19880426832683
 1  16.47553469026903  4.81575885478548 -3.02397667656766
 1  17.98492088198820  4.25793218641864 -3.10102753635364
 1  16.57795248054805  3.23452836403640 -3.24573512671267
 1  17.89488736273627  5.13747440044004  0.10362952865286
 1  18.85914352515251  5.42407863436344 -1.15226736783678
 1  17.20345291509151  6.20455486558656 -1.04322267436744
 1 -5.61576946154615 -7.78865996539654  0.24115979998000
 1 -6.74172466376638 -6.60352973437344  0.58891873517352
 1 -5.18036025342534 -6.79718959515952  1.60428329672967
 8 -7.97686058135814  6.82167219861986 -0.34677810621062
 1 -9.14010739453945  6.30392780848085 -1.92050051755176

