%nproc=3
%Mem=2GB
# td=(NStates=1) iop(3/107=0140000000,3/108=0140000000) iop(3/107=0140000000,3/108=0140000000) CAM-B3LYP/6-31G(d,p) 

TD

0 1
12 -5.62827855905591  1.16802683038304  0.25154782358236
 6 -4.98519864166417 -2.18229219391939 -0.37463052815282
 6 -3.39341080098010  1.13121566306631  2.68298973717372
 6 -6.26477289958996  4.56829485258526  0.66230859205921
 6 -8.06062698069807  1.13738242064206 -2.29268336223622
 7 -4.42413949844985 -0.35488141124112  1.10286045304530
 6 -4.24726994739474 -1.61602278367837  0.61259497799780
 6 -3.17141854355436 -2.40527172577258  1.41066665526553
 6 -2.88808296369637 -1.30258092779278  2.55996278287829
 6 -3.51995879587959  0.00603145054505  2.06710736933693
 6 -3.28217032503250 -1.70190688328833  3.97462532193219
 6 -2.01340618391839 -2.64265825902590  0.55094928102810
 6 -1.01185894879488 -3.53802889078908  1.29225310221022
 6  0.17740360776078 -3.96884175627563  0.53744190529053
 8  0.36212006590659 -3.50394008280828 -0.58795881128113
 8  1.07975965816582 -4.60566571137114  1.22722871137114
 7 -4.93724227522752  2.57456769346935  1.56938362496250
 6 -3.94670875807581  2.45219323532353  2.49992521832183
 6 -3.64434497169717  3.66195627812781  3.09265821022102
 6 -4.49324508020802  4.62698116361636  2.49227511171117
 6 -5.23066242864286  3.96462113861386  1.43432858475848
 6 -2.67008563346335  3.85472255595560  4.20857472797280
 6 -4.58349104910491  6.19153918811881  2.84397983478348
 8 -3.89865235253525  6.66028085828583  3.66610058255826
 7 -6.94335598519852  2.63086101860186 -0.57967063476348
 6 -7.14185638343834  3.88652905840584 -0.24816301940194
 6 -8.01008614881488  4.60419147594759 -1.16747955705571
 6 -8.48444147694769  3.59951908200820 -2.00679523192319
 6 -7.83197700920092  2.36999517361736 -1.62607637743774
 6 -8.17553983268327  6.03698506820682 -1.15507664226423
 6 -9.48267474587459  3.73705464376438 -3.10525307390739
 6 -8.91400038073807  3.88473983708371 -4.47507075377538
 7 -6.47831359865987 -0.19373455365537 -1.04927594799480
 6 -7.39295290199020  0.01141023542354 -2.05401132373237
 6 -7.63189630623062 -1.28913406610661 -2.66763978857886
 6 -6.74465994969497 -2.16661043434343 -2.04215342524252
 6 -6.09213713721372 -1.46242027152715 -1.05803366806681
 6 -8.54772014671467 -1.60679046764676 -3.85755667506751
 6 -6.17987161426143 -3.52806191219122 -2.02894828872887
 8 -6.51659490009001 -4.54668963906391 -2.64303454915492
 6 -5.06747700120012 -3.55982774947495 -0.94723134393439
 6 -5.27180430803080 -4.67072227382738  0.13847099809981
 8 -5.92663684628463 -4.50838677207721  1.15046216651665
 8 -5.00424038723872 -5.91789567366737 -0.34118829022902
 6 -5.45218856805681 -6.97123071417142  0.40990852565257
 6  2.25627230883088 -5.00200646084608  0.59915789708971
 6  3.43905721582158 -4.20535203450345  0.99468075387539
 6  4.12829193289329 -3.28528834973497  0.18609098409841
 6  3.77633253055306 -3.19213240164016 -1.23298096689669
 6  5.16612081808181 -2.42772704090409  0.82712456335634
 6  6.49252485718572 -2.68117307030703  0.17482780868087
 6  7.69302842954295 -1.80179182498250  0.79025285988599
 6  9.01584019251925 -1.97920390239024 -0.00925763896390
 6  9.46839391949195 -3.42750265276528  0.11011413641364
 6  10.02680811641164 -0.93241386228623  0.49001696509651
 6  11.40569372667267 -0.82999579467947 -0.31782709330933
 6  12.21644926552655  0.34412360286029  0.15014580278028
 6  13.56383577767777  0.56284597149715 -0.59732949014901
 6  14.54511268426843 -0.73228395839584 -0.41335802100210
 6  14.18271821002100  1.85307007920792 -0.19014665706571
 6  15.53350263116312  2.22705464076408 -0.91667877557756
 6  16.06246586628663  3.57317982798280 -0.62253334633463
 6  17.37749214391439  3.95526444194419 -1.31919296709671
 6  17.23989297139714  4.01510707340734 -2.87552987298730
 6  18.10961438063806  5.20847897389739 -0.78618957595760
 1 -2.56764227012701  1.12475933953395  3.52771038223822
 1 -6.30100098299830  5.52403860606061  0.96953671637164
 1 -8.84086928602860  1.17155141664166 -3.24141952285229
 1 -3.76628369356936 -3.06636975367537  1.95636137823782
 1 -1.76821790779078 -1.03113072127213  2.56336850285029
 1 -2.78470779597960 -2.61352793369337  4.22716266216622
 1 -3.27174377447745 -0.91010312801280  4.52873900980098
 1 -4.49544121992199 -2.06343426142614  3.82431565416542
 1 -2.38812597819782 -3.08500154515452 -0.31989972457246
 1 -1.77822852255226 -1.59940856825683  0.28233907520752
 1 -0.71603599369937 -2.91299127142714  2.20523506460646
 1 -1.48392787138714 -4.51605844214421  1.78592762946295
 1 -1.64654330643064  3.65003969066907  3.62370475157516
 1 -2.70750840484048  5.03807344644464  4.38788445134513
 1 -2.77292722522252  3.18784197829783  5.20265724252425
 1 -5.53942780208021  6.92027000950095  2.47416953275328
 1 -10.09146312881288  2.83312046394639 -3.08951010561056
 1 -10.08570605350535  4.54951248574857 -2.87991098369837
 1 -9.69089485038504  4.25235313531353 -5.27610392099210
 1 -8.14825879187919  4.65007694829483 -4.51372105390539
 1 -8.18491876677668  2.97500181408141 -4.91619573427343
 1 -8.23305988758876 -0.82919617731773 -4.62117208620862
 1 -8.64730435833583 -2.72198925922592 -4.07050639453945
 1 -9.60402365146515 -1.06477311191119 -3.77366165126513
 1 -4.16052782878288 -3.94589041204120 -1.34283921402140
 1  2.36746469026903 -6.14069136223622  1.03842223012301
 1  2.16875020162016 -5.08065659205921 -0.43327876297630
 1  3.60663664606461 -4.33290341264126  2.16209457355736
 1  2.71745919781978 -3.48563011791179 -1.45430808090809
 1  4.11253859185919 -2.18380308090809 -1.46521473897390
 1  4.40068257565757 -3.97256911321132 -1.84379583688369
 1  4.82575644464446 -1.43949949454945  0.80395078617862
 1  5.26306866526653 -2.47302161936194  1.98118200450045
 1  6.73460268026803 -3.85458975847585  0.21071039273927
 1  6.60264910441044 -2.44503671967197 -0.89336902310231
 1  7.12184298589859 -0.83979053335334  0.83402215551555
 1  7.71727063726373 -1.79090733923392  1.87358483088309
 1  8.74258015761576 -1.79285732643264 -1.01875009370937
 1  8.89767193259326 -4.06548540844084 -0.43680615081508
 1  10.49630265966597 -3.40200355505551 -0.08334591649165
 1  9.39991673927393 -3.70729645824582  1.25613657665767
 1  9.40329139003900  0.05704411481148  0.59508868326833
 1  10.22439139773977 -1.12920123942394  1.49810074737474
 1  11.92168409950995 -2.00314763646365 -0.06023533133313
 1  11.15632157235724 -0.71752338783878 -1.46013685738574
 1  11.82666268436844  1.30080315211521  0.01564435403540
 1  12.53338409710971  0.26655793909391  1.17930710581058
 1  13.30592133443344  0.60075481828183 -1.74871107590759
 1  15.01220144734474 -0.80044306160616  0.67050214771477
 1  14.02478286478648 -1.66116929582958 -0.77138339243924
 1  15.46697655415541 -0.52855618331833 -1.10136253925393
 1  13.53450269586959  2.65791409060906 -0.30504038133813
 1  14.34438205040504  1.72281869636964  0.94904373167317
 1  16.34626335343534  1.46623208470847 -0.77545536053605
 1  15.28147294279428  1.93638188958896 -2.03035656655666
 1  15.50659212131213  4.44783799149915 -0.97121840184018
 1  16.14402403630363  3.56993295269527  0.48662112091209
 1  18.09543936073607  3.04133764226423 -1.33377776567657
 1  16.58059519631963  5.02639991889189 -3.32394667356736
 1  18.31333372327233  4.04113050625062 -3.35278271187119
 1  16.68552323762376  3.05436034723472 -3.19591014421442
 1  17.94296217021702  4.99620027302730  0.32319148484848
 1  19.21690930173017  5.22308853535353 -1.01736387748775
 1  17.73678624842484  6.16428083818382 -1.00704905700570
 1 -5.30896878147815 -7.76540764016402 -0.25324964096410
 1 -6.60711120242024 -7.02406178757876  0.47027687098710
 1 -5.06653887128713 -7.18603848004800  1.58186105450545
 8 -7.69582247754775  6.92371240264026 -0.45883931233123
 1 -8.74275765956596  6.40630804650465 -1.96144461196120

