%nproc=3
%Mem=2GB
# td=(NStates=1) iop(3/107=0140000000,3/108=0140000000) iop(3/107=0140000000,3/108=0140000000) CAM-B3LYP/6-31G(d,p) 

TD

0 1
12 -5.60463619481948  1.18699872757276  0.13194586338634
 6 -5.02802292409241 -2.22887685238524 -0.37683074817482
 6 -3.43227468736874  1.11209375087509  2.78197963616362
 6 -6.10811723402340  4.48646666976698  0.72776513771377
 6 -7.84135505350535  1.21062974537454 -2.56819091299130
 7 -4.35214229872987 -0.29627555065507  1.06045621262126
 6 -4.31212643304330 -1.60045122652265  0.62241596009601
 6 -3.30645204690469 -2.33386458505851  1.65390097869787
 6 -3.04962911831183 -1.30888155785579  2.80064685128513
 6 -3.56826362636264 -0.12425157775778  2.27309796839684
 6 -3.74445655365537 -1.79895658825883  4.08015587498750
 6 -2.08136297959796 -2.71957595079508  0.80027421352135
 6 -0.99965772867287 -3.57359244714471  1.56828070497050
 6  0.21462733013301 -3.87019189128913  0.76698485958596
 8  0.41819567346735 -3.35407509630963 -0.33101311671167
 8  1.03553523572357 -4.74357950275027  1.33629961846185
 7 -4.87744629562956  2.59589982668267  1.52083877047705
 6 -4.02219630683068  2.37023503950395  2.50490571637164
 6 -3.54691522872287  3.64530461296130  3.17380632503250
 6 -4.38797455315532  4.66811527702770  2.53359924412441
 6 -5.24180354275428  3.98820349684968  1.55959111101110
 6 -2.63825245014501  3.73872095579558  4.32681655215522
 6 -4.46647934793479  6.07165719991999  2.93946938373837
 8 -3.81523401070107  6.56818164836484  3.78669264176418
 7 -6.79433108270827  2.60519845234523 -0.72630529822982
 6 -6.92577477527753  3.91489189468947 -0.30293849694969
 6 -7.87437257745775  4.50350140694069 -1.21748455755576
 6 -8.31359439223922  3.61324045414541 -2.13050760316032
 6 -7.64599841134113  2.42953112721272 -1.93000677047705
 6 -8.33744602330233  5.94247561726173 -1.09572070667067
 6 -9.34088056645665  3.70480141844184 -3.21502405100510
 6 -8.73110209090909  4.23069443254325 -4.51917516421642
 7 -6.29329509680968 -0.18542372257226 -1.15860688108811
 6 -7.21966557325733 -0.06592749834984 -2.18722464506451
 6 -7.48751186778678 -1.31373652635264 -2.79617264186419
 6 -6.57843332703270 -2.17023079637964 -2.18406761666167
 6 -5.94211213471347 -1.49732376187619 -1.20552841754175
 6 -8.59439481418142 -1.63330311891189 -3.84676559595960
 6 -6.20161378847885 -3.64691379737974 -2.00455584948495
 8 -6.73331657225723 -4.61976694679468 -2.54593483918392
 6 -5.09814006750675 -3.63975574227423 -0.88590521132113
 6 -5.51203833143314 -4.69130433203320  0.02255940694069
 8 -5.91350553315332 -4.51676761016102  1.19031615191519
 8 -5.29193915711571 -5.87160104420442 -0.48781295269527
 6 -5.39844319351935 -6.98917250835084  0.42315985078508
 6  2.29100578217822 -5.00488674887489  0.67241522282228
 6  3.41537484758476 -4.05473697299730  1.00869215501550
 6  4.04671377507751 -3.17133695459546  0.19662203720372
 6  3.62401729902990 -2.98739192759276 -1.20269793859386
 6  5.08154236023602 -2.21438570677068  0.79810166106611
 6  6.44950055475547 -2.55443039603960  0.00106043194319
 6  7.63936306300630 -1.71159280508051  0.60116395099510
 6  8.99766837533753 -1.94413039503950 -0.09219593279328
 6  9.45112219231923 -3.41571147364736  0.15897902290229
 6  10.09692512811281 -0.96287690859086  0.47674563796380
 6  11.38885204250425 -0.83979677477748 -0.32103741434143
 6  12.25777339793979  0.26946613711371  0.12745353355336
 6  13.56860625472547  0.49956964386439 -0.66631638883888
 6  14.43302147514751 -0.71288201820182 -0.44234091929193
 6  14.25767570577058  1.79674444664466 -0.22894053645365
 6  15.45342462336234  2.23344527982798 -1.02681978967897
 6  16.02984260396040  3.59460197019702 -0.62026311931193
 6  17.33404779947995  3.92476139163916 -1.40464151195120
 6  17.15213419551955  4.20772633533353 -2.92274459445945
 6  17.88527194639464  5.12464059005901 -0.75729668666867
 1 -2.57234274017402  1.05085194879488  3.47322493369337
 1 -6.31278216111611  5.46744294649465  0.93173293599360
 1 -8.55366056515651  1.12910717221722 -3.34033941484148
 1 -3.80390745594559 -3.29092220892089  2.10510625272527
 1 -1.86326741274127 -1.10767837603760  3.09870203620362
 1 -3.45189451465146 -2.74917149804980  4.46654660056006
 1 -3.91897849794979 -1.02272439013901  4.87460359625963
 1 -4.87872954875487 -2.00709862786279  4.00414363696370
 1 -2.22938010361036 -3.08990203520352 -0.23571130573057
 1 -1.52597329702970 -1.99430805820582  0.55769661096110
 1 -0.93475786588659 -3.08721869416942  2.60767530863086
 1 -1.73088256685669 -4.47104394069407  1.87136617331733
 1 -1.68184683678368  3.18257294399440  3.98833121422142
 1 -2.63726138013801  4.90885052415241  4.74104976787679
 1 -3.05818575107511  3.08182137623762  5.18184516131613
 1 -5.15121898119812  6.69288727122712  2.51915403120312
 1 -9.84098808130813  2.79598675057506 -3.49169032363236
 1 -10.09720720362036  4.51724925942594 -2.97413040564056
 1 -9.60944670557056  4.35260316031603 -5.28761507210721
 1 -8.08344231023102  5.12962490309031 -4.35536521832183
 1 -8.15290556545655  3.28799311321132 -5.05878999369937
 1 -8.32280886248625 -1.17464072177218 -4.72118208720872
 1 -8.75927555545555 -2.68482554285429 -3.96327567146715
 1 -9.51415466456646 -1.10970760536054 -3.41095538063806
 1 -4.31546332233223 -4.20267609060906 -1.40989591969197
 1  2.72793073687369 -6.05131242434243  0.95704409230923
 1  2.07641096769677 -5.08054658105811 -0.36547198229823
 1  3.75153113551355 -4.22879300160016  2.08021638573857
 1  2.59554700660066 -3.22066362126213 -1.39815246534653
 1  3.85541287928793 -1.89394409500950 -1.48661687918792
 1  4.04266677407741 -3.54465632193219 -2.13040449774978
 1  4.87875174417442 -1.15627117171717  0.54868525962596
 1  5.02145450385038 -2.28021233843384  1.77090097639764
 1  6.61800102010201 -3.64110841034103  0.07762708440844
 1  6.23865270477048 -2.26911912791279 -1.07419710591059
 1  7.55122592419242 -0.63765031933193  0.36221497479748
 1  7.77257616781678 -1.99757800630063  1.66047351975197
 1  8.82649854945495 -1.72741078177818 -1.17104532323232
 1  8.74908707410741 -4.16222508240824 -0.15393786398640
 1  10.34732776217622 -3.63250660536054 -0.42238982088209
 1  9.75554230183018 -3.59309503810381  1.21909287228723
 1  9.58221928282828 -0.01865345494549  0.35884505890589
 1  10.21231018961896 -1.10185850515052  1.52681361866187
 1  11.98006993809381 -1.86024334603460 -0.44073338113811
 1  11.02542848304831 -0.64786642214222 -1.43892473617362
 1  11.60650066816682  1.26796986878688  0.13521631123112
 1  12.36539729842984  0.23037432073207  1.22099127422742
 1  13.67558830113011  0.35496023882388 -1.69588579337934
 1  14.79441966916692 -0.80662367966797  0.55383048054805
 1  14.04417480398040 -1.69199237813781 -0.81956821092109
 1  15.23226308280828 -0.77670099779978 -1.02998540154015
 1  13.52533177877788  2.75414371357136 -0.19910978827883
 1  14.59434704690469  1.65441185568557  0.83316214351435
 1  16.23241196829683  1.59070453195320 -1.03964177917792
 1  15.25269006450645  2.35656390779078 -1.96698022892289
 1  15.18694015611561  4.38263147084708 -0.79647092709271
 1  16.30138977287729  3.55857181658166  0.39486194499450
 1  18.03344316111611  3.07985149364937 -1.26102048994900
 1  16.35119225602560  4.82637991689169 -3.45247952685268
 1  18.19322171207121  4.40029642284228 -3.46963439703970
 1  17.08664334963496  3.15675058625863 -3.50474102730273
 1  18.03429130313031  4.93291394439444  0.35276444214421
 1  18.80387799859986  5.54972119861986 -1.40664280538054
 1  17.23123569336934  5.96577098719872 -0.81546989908991
 1 -4.97811569616962 -7.92630372977298 -0.11356567256726
 1 -6.38873936523652 -7.27154653605361  1.03563340664066
 1 -4.72837505490549 -6.63507338353835  1.21113398179818
 8 -7.75088798409841  6.77271730313031 -0.41953538193819
 1 -8.96683006680668  6.17567498319832 -1.88226669416942

