%nproc=3
%Mem=2GB
# td=(NStates=1) iop(3/107=0140000000,3/108=0140000000) iop(3/107=0140000000,3/108=0140000000) CAM-B3LYP/6-31G(d,p) 

TD

0 1
12 -5.55064079527953  1.27669769746975  0.10845351415142
 6 -4.94282440424042 -2.04288825352535 -0.34759782488249
 6 -3.37570903080308  1.11990453195320  2.80883232143214
 6 -6.29269569186919  4.53433145624563  0.67860022122212
 6 -7.89302022002200  1.26340502290229 -2.38860295419542
 7 -4.25992307680768 -0.22819874297430  1.08072823982398
 6 -4.16843206360636 -1.60536171757176  0.66076979547955
 6 -3.20120152185219 -2.39039023762376  1.57089267786779
 6 -2.86046020142014 -1.36490716041604  2.61844863146315
 6 -3.47691449144914  0.03665451285129  2.19168982758276
 6 -3.45499760776078 -1.60400709330933  4.03692155155515
 6 -1.95947079037904 -2.78318231143114  0.66068025412541
 6 -0.93428119101910 -3.50221530943094  1.43483736063606
 6  0.26738260566057 -3.98083295539554  0.80096825792579
 8  0.44347820172017 -3.51254094289429 -0.40111012641264
 8  1.00144182638264 -4.84858000280028  1.46424241274127
 7 -4.94717326832683  2.61804204090409  1.49056574317432
 6 -3.97831191839184  2.47107512351235  2.52247747354735
 6 -3.78781931913191  3.62553263576358  3.20121906630663
 6 -4.55857161286129  4.59564803030303  2.55703158735874
 6 -5.34610397279728  3.98275295179518  1.52905805770577
 6 -2.96670529542954  3.80327741144114  4.37782165266527
 6 -4.65095779577958  5.96811684588459  2.93676911371137
 8 -4.10017250455046  6.57903273347335  3.89600357285729
 7 -6.75922757235724  2.65473340584058 -0.82082475017502
 6 -6.89765196299630  3.95015542104210 -0.41050925402540
 6 -7.89223436363636  4.54345540234023 -1.23408621772177
 6 -8.36614964776478  3.68338746884688 -2.16700125252525
 6 -7.63958777027703  2.47950612471247 -1.83582735253525
 6 -8.36893917261726  5.99066043574357 -1.08743987858786
 6 -9.47521399979998  3.76037697599760 -3.16087863646365
 6 -8.74602358305831  4.17923928702870 -4.55796904360436
 7 -6.29010477777778 -0.10552573277328 -1.20685170557056
 6 -7.27387099379938 -0.00584148974898 -2.17075299789979
 6 -7.48957207380738 -1.28859401210121 -2.75734875947595
 6 -6.50135561926193 -2.08205197849785 -2.15144435433543
 6 -5.84377230073007 -1.31881591109111 -1.14697256195620
 6 -8.44090946564656 -1.65048483708371 -3.85235615501550
 6 -6.11520514761476 -3.49932903890389 -2.08512390629063
 8 -6.50106334693469 -4.46131110121012 -2.73717396309631
 6 -5.06835708920892 -3.50160192689269 -0.90687730853085
 6 -5.26564369196920 -4.70276547814781  0.00574772577258
 8 -5.62623680628063 -4.57531346474647  1.19371649194919
 8 -5.05187515071507 -5.85814969906991 -0.49657382878288
 6 -5.30366371557156 -7.00432402350235  0.43890142494249
 6  2.36617329892989 -5.23469973017302  0.77674565586559
 6  3.42987629772977 -4.28619011831183  1.19666095189519
 6  3.98389749344934 -3.41230105100510  0.32602497749775
 6  3.66167106440644 -3.05313850225023 -1.04369203800380
 6  5.07723192919292 -2.44348861706171  0.83068491939194
 6  6.42974857955796 -2.58530348334834  0.05149547544754
 6  7.61721084778478 -1.84017566336634  0.68710254485449
 6  8.98193680218022 -2.07394337633763 -0.09086579977998
 6  9.47939501960196 -3.48159806230623  0.23194631963196
 6  9.98799423502350 -0.92236285718572  0.47893585698570
 6  11.25753891119112 -0.81674446954695 -0.34390970157016
 6  12.12450007060706  0.43003219371937  0.05851663986399
 6  13.51436083018302  0.62637232413241 -0.65733549074907
 6  14.38150632363236 -0.70488121812181 -0.56547323252325
 6  14.14586452465247  1.86585135733573 -0.29175681808181
 6  15.41704098499850  2.17288922422242 -1.06706381408141
 6  15.97663728342834  3.53414592459246 -0.69954104710471
 6  17.23781817651765  3.89940885638564 -1.37678872667267
 6  17.11510049214922  3.88975453815382 -2.85502782278228
 6  17.78844226342634  5.13600172617262 -0.97389834683468
 1 -2.90865637153715  1.12797966156616  3.74242185338534
 1 -6.64208509140914  5.54135033723372  0.93679344204420
 1 -8.74791999109911  1.33995825732573 -3.10861624252425
 1 -3.61695876107611 -3.32831594829483  2.11149689178918
 1 -1.86972805880588 -1.43840144834483  2.83933609960996
 1 -3.03405273047305 -2.49643622452245  4.47424737063706
 1 -3.21141774187419 -0.89152126982698  4.92346848274828
 1 -4.50576225202520 -1.81334925292529  4.17847106970697
 1 -2.27151431703170 -3.30419346434643 -0.07230496509651
 1 -1.57966866656666 -1.90103873127313  0.18634947624762
 1 -0.60843523362336 -2.89423939623962  2.38271281238124
 1 -1.47215669426943 -4.38285512181218  1.79507854455446
 1 -1.84559321142114  3.37240192689269  4.35415779687969
 1 -2.90018767276728  4.72641228032803  4.75333099599960
 1 -3.38213814631463  3.23626682078208  5.25250222702270
 1 -5.37315117441744  6.56967494999500  2.26401851765177
 1 -10.20742472497250  2.96506365826583 -3.38372952755276
 1 -10.14852233513352  4.72848038253825 -2.95123811641164
 1 -9.36720248114812  4.51645954595460 -5.34538084868487
 1 -7.94535850185019  5.08512045264527 -4.24616429822982
 1 -8.49302957785779  3.37501181508151 -5.00021413611361
 1 -8.20200678227823 -1.01408466616662 -4.68464843384338
 1 -8.33275290319032 -2.52411947224722 -4.17248659255926
 1 -9.44759800890089 -1.66293292789279 -3.66701098619862
 1 -4.06951872787279 -3.68418424142414 -1.62340727082708
 1  2.48383632743274 -6.42139943304330  1.10129851775178
 1  2.23196652325233 -5.14531305770577 -0.38315375047505
 1  3.83477946034603 -4.26069619191919  2.09243760786079
 1  2.60220767266727 -3.45343689858986 -1.11563421352135
 1  3.76177351535154 -2.03883858445845 -1.52894111161116
 1  4.37291979937994 -3.62086394269427 -1.69229068636864
 1  4.63319718871887 -1.38560410501050  0.45963635473547
 1  5.40875323372337 -2.55238955615562  1.98932281858186
 1  6.58887810781078 -3.65414971447145 -0.03310398869887
 1  6.34610344984498 -2.48939115511551 -1.08263794999500
 1  7.28107890949095 -0.72051860616062  0.98518727202720
 1  7.84589349954995 -2.45769401790179  1.74053152555256
 1  8.82399829942994 -1.82796083678368 -1.12260047874787
 1  8.71305347074708 -4.22425128502850 -0.07573004320432
 1  10.30413344274427 -3.60520387508751 -0.20563814571457
 1  9.93328007560756 -3.67491321992199  1.23090405340534
 1  9.52042310321032 -0.10553214281428  0.39104827922792
 1  10.18799775837584 -0.85471379067907  1.62986392369237
 1  11.87612954405441 -1.74890221192119 -0.12826213401340
 1  11.05107104730473 -0.72747438293829 -1.37761860556056
 1  11.31877189528953  1.41875494729473 -0.32541975237524
 1  12.33312407110711  0.46249753305331  1.24820399549955
 1  13.11155189748975  0.73371811461146 -1.64545074987499
 1  14.59644987218722 -0.73343636093609  0.42395749324932
 1  13.99452983948395 -1.79202238113811 -0.61855810991099
 1  15.18076793329333 -0.74246757445745 -1.17989039203920
 1  13.35537478307831  2.56967526672667 -0.35360523782378
 1  14.57843545574558  1.83471988648865  0.70034886218622
 1  16.34640336743674  1.57009247074707 -0.70187800280028
 1  15.29703449894989  1.86559481088109 -2.08152168306831
 1  15.36482794489449  4.49357256495650 -0.72515379537954
 1  16.09854948884888  3.49321528092809  0.27018947774777
 1  17.96762657945795  2.99028253675368 -1.09027341524152
 1  16.49826696349635  4.67590486938694 -3.36694097299730
 1  18.15714810471047  4.09709610281028 -3.30428786238624
 1  16.81748643394339  3.00444535573557 -3.36914746794679
 1  17.87947582158216  5.11965261826183  0.04536370207021
 1  18.67602521332133  5.35632185868587 -1.53081522262226
 1  16.85285785558556  5.89467387748775 -0.81685003710371
 1 -4.92624050865087 -7.84727582698270 -0.16450076607661
 1 -6.34889538083808 -7.17523690509051  0.83842368566857
 1 -4.88663088048805 -6.97281715791579  1.30443331173117
 8 -7.94086698199820  6.78377840924092 -0.33051648004800
 1 -9.11061444524452  6.27861527722772 -1.85650411791179

