%nproc=3
%Mem=2GB
# td=(NStates=1) iop(3/107=0140000000,3/108=0140000000) iop(3/107=0140000000,3/108=0140000000) CAM-B3LYP/6-31G(d,p) 

TD

0 1
12 -5.60857658885889  1.28589861756176  0.19121178997900
 6 -5.07722784458446 -2.15345931063106 -0.38424148924892
 6 -3.31611307120712  1.20465300680068  2.71239267746775
 6 -6.17167358965897  4.65635365846585  0.58568092929293
 6 -8.05918683668367  1.08758744114411 -2.28197229112911
 7 -4.38476556105611 -0.29867579067907  1.06328649564956
 6 -4.21818703910391 -1.59048022942294  0.61244496299630
 6 -3.22562396409641 -2.30820201880188  1.50904649324933
 6 -2.97422157755776 -1.37808847854785  2.57767455405541
 6 -3.54322112211221 -0.08366751935194  2.12130278887889
 6 -3.49285139313931 -1.72604929752975  3.98861672107211
 6 -1.94137898119812 -2.69312330553055  0.68477266336634
 6 -1.00659842274227 -3.69294438233823  1.46908078497850
 6  0.25224109150915 -3.91532640474047  0.62684084518452
 8  0.48823267716772 -3.59798948774877 -0.47474749014902
 8  1.11902358455846 -4.70690583538354  1.39868585708571
 7 -4.94455300630063  2.69161939863986  1.44723140974097
 6 -3.94756884408441  2.43682169816982  2.42031725752575
 6 -3.65274581178118  3.61184126662666  3.08356730113011
 6 -4.45989174487449  4.62055052055205  2.52426831103110
 6 -5.23945330773077  3.98660333683368  1.46206135803580
 6 -2.79473809870987  3.81524860856086  4.30993486398640
 6 -4.49028172817282  5.97147718191819  2.91751718851885
 8 -3.87519000630063  6.65194002420242  3.71806577907791
 7 -6.93841549114911  2.59932786528653 -0.77763043074307
 6 -6.92180437823782  3.95098550405041 -0.40011821492149
 6 -8.00980612081208  4.66898795559556 -1.12289509860986
 6 -8.46285931873187  3.68581771187119 -2.02556710911091
 6 -7.85152896439644  2.45016319041904 -1.89770354015402
 6 -8.20691296999700  6.11139250895090 -1.13996513111311
 6 -9.46232271067107  3.94228516681668 -3.09904245284528
 6 -8.66290527122712  3.99039040214021 -4.48280152685268
 7 -6.26267203450345 -0.06248142834283 -1.15663668406841
 6 -7.37485109180918 -0.02349325492549 -2.07957387998800
 6 -7.73642675927593 -1.31775692839284 -2.58494151875188
 6 -6.66959244294430 -2.16455022832283 -2.07437664756476
 6 -5.97974589808981 -1.35296932643264 -1.08801666636664
 6 -8.63062843754375 -1.70473026162616 -3.77965888528853
 6 -6.15475910301030 -3.54654376037604 -2.01965735963596
 8 -6.61933517411741 -4.53332830293029 -2.54843508920892
 6 -5.03234348784878 -3.61560332703270 -0.90834745554555
 6 -5.39830695829583 -4.64841004260426  0.16224337533753
 8 -5.81706588918892 -4.49771570497050  1.17736485678568
 8 -5.03259322252225 -5.86970085418542 -0.33880805220522
 6 -5.40384373357336 -6.89818340944094  0.61685922072207
 6  2.27391407300730 -5.19671593179318  0.62744072537254
 6  3.40469377947795 -4.25002650195019  1.01135242104210
 6  4.05677478117812 -3.40652047294730  0.20377275227523
 6  3.66768166546655 -3.28702189058906 -1.36252392119212
 6  5.19927413341334 -2.61674594279428  0.73545539643964
 6  6.61875748044804 -2.98277323032303  0.07966829272927
 6  7.60707983468347 -1.92152379817982  0.61975581018102
 6  9.05115372387239 -2.12813879587959 -0.08867558075808
 6  9.49590667076708 -3.46899680218022  0.03418654365437
 6  9.93596903250325 -0.97248786968697  0.28050601400140
 6  11.28387154445445 -0.77623041814181 -0.47667297789779
 6  12.18455607620762  0.38336752725273  0.19097988618862
 6  13.45662505660566  0.67493718061806 -0.61429118631863
 6  14.44308248124812 -0.54885561556156 -0.42220890609061
 6  14.08028796699670  2.06070084228423 -0.21290893329333
 6  15.45111439233923  2.18296023132313 -0.87378448614861
 6  15.95486510621062  3.70789329932993 -0.64159525252525
 6  17.33113750845084  3.97119603510351 -1.23822487028703
 6  17.27800678277828  4.02245780848085 -2.76990931093109
 6  17.88774219341934  5.29984811081108 -0.70691164816482
 1 -2.43982948884888  1.21853871747175  3.37190480168017
 1 -6.34246512941294  5.74832103430343  0.74116387908791
 1 -8.95995119421942  0.98585284678468 -3.11835721662166
 1 -3.84943200840084 -3.20602371907191  2.05460120222022
 1 -1.86862794879488 -1.23109071727173  2.43941610761076
 1 -2.76110543574357 -2.49385596649665  4.57899784568457
 1 -3.45794239433943 -0.79257137483748  4.61235737163716
 1 -4.51365304110411 -2.19604752275227  3.85011823442344
 1 -2.36963412901290 -3.07328037303730 -0.20310804540454
 1 -1.33667436713671 -1.96800542794279  0.40095093639364
 1 -0.74417880798080 -3.15981595389539  2.49294383548355
 1 -1.51521099969997 -4.47603443974397  1.71377041374137
 1 -1.80295894799480  3.28673336003600  4.17045942704270
 1 -2.83285093909391  4.93101274037404  4.45804146704670
 1 -3.35658559105911  3.10977417151715  5.03533050985098
 1 -5.07992185148515  6.69597758025803  2.30437255305531
 1 -10.08134211671167  3.12904005590559 -3.05700685528553
 1 -9.96927441034103  4.90951848634863 -2.93858685128513
 1 -9.40399616051605  4.13798169816982 -5.22981929252925
 1 -7.81840580658066  4.66368830943094 -4.28341802360236
 1 -8.13715399029903  3.02248656255626 -4.58074218891889
 1 -8.31269785138514 -1.00911416911691 -4.54207417641764
 1 -8.22028165606561 -2.70062712301230 -3.95871521542154
 1 -9.57929117821782 -1.58219485408541 -3.57130141524152
 1 -4.04841661766177 -3.74864068706871 -1.44443937403740
 1  2.72196013981398 -6.14161145424542  1.19032742064206
 1  2.08359168576858 -5.28744727112711 -0.38922435753575
 1  3.65846182858286 -4.33063318561856  2.14541290539054
 1  2.71516896879688 -3.93790534543454 -1.74241689178918
 1  3.43206054405441 -2.16235093569357 -1.62494071157116
 1  4.63726623402340 -3.50646250255026 -1.88474993229323
 1  4.82644651365136 -1.55014055865587  0.52487287838784
 1  5.29323168156816 -2.85111942914292  1.69201308760876
 1  6.59081830183018 -4.07724202370237  0.34872419411941
 1  6.52921176067607 -2.99005122112211 -1.03322300850085
 1  7.24281508310831 -0.81432798709871  0.39950870417042
 1  8.06490540074007 -2.16615486398640  1.79627710011001
 1  8.88203410301030 -1.91214925562556 -1.22978119681968
 1  8.73797596299630 -4.22013087298730 -0.15005747594759
 1  10.49335236463646 -3.74986834153415 -0.47710529242924
 1  9.75749249684968 -3.67332306090609  1.24357532053205
 1  9.50694175507551 -0.07459904950495  0.23073224762476
 1  10.29276823542354 -0.97027534683468  1.27820875817582
 1  11.90745267636764 -1.92100942264226 -0.58502781058106
 1  11.16609254945495 -0.36000763626363 -1.55025586928693
 1  11.53572359045904  1.34901797359736  0.34474726432643
 1  12.44611537023702  0.16510779407941  1.24533370847085
 1  13.16680742304230  0.87297204000400 -1.67484368916892
 1  14.84046427362736 -0.39839285658566  0.70891598909891
 1  14.11453183968397 -1.46354953385338 -0.82494874897490
 1  15.18890874737474 -0.29329265696570 -1.10068247124713
 1  13.61199044464446  2.71020932013201 -0.60347022432243
 1  13.99085669786979  2.04991140564056  1.08301712901290
 1  16.18125685278528  1.30541600310031 -0.75554336933693
 1  15.12273706920692  2.19688794019402 -1.93976750765077
 1  15.18978044014401  4.25860906860686 -0.85546682668267
 1  16.01602123602360  3.81272723212321  0.48717117591759
 1  18.03072288908891  3.21910541904190 -0.94450883878388
 1  16.60247738453845  4.77894517341734 -2.86126040494049
 1  18.16495888578858  4.28440483368337 -3.25847328092809
 1  16.89203388868887  3.12965787698770 -3.22331288448845
 1  17.93645151915191  5.43229388238824  0.35783494919492
 1  18.88037564836484  5.55268149464946 -1.19046118721872
 1  17.28846141594159  6.16810122022202 -1.25103345544555
 1 -5.51139902450245 -7.87265836523652 -0.05363967996800
 1 -6.38469896119612 -6.84321370277028  0.70956079937994
 1 -4.87183940134013 -7.03310318651865  1.50833370177018
 8 -7.64153704900490  6.91769180058006 -0.45536896529653
 1 -9.03848723252325  6.47778519421942 -1.82787125462546

