%nproc=3
%Mem=2GB
# td=(NStates=1) iop(3/107=0140000000,3/108=0140000000) iop(3/107=0140000000,3/108=0140000000) CAM-B3LYP/6-31G(d,p) 

TD

0 1
12 -5.77096282748275  1.22173220092009  0.30696336513651
 6 -5.05006512831283 -2.11144510921092 -0.35456852195220
 6 -3.62623408330833  1.15301784328433  2.72634407260726
 6 -6.31040746304630  4.48450647374738  0.65439780098010
 6 -8.08165908390839  1.12790147254725 -2.29683377727773
 7 -4.45214229872987 -0.33148907200720  0.99798996599660
 6 -4.27449266966697 -1.60743192459246  0.73090680918092
 6 -3.26058746044604 -2.23816501510151  1.55831141974197
 6 -3.03701785718572 -1.24864553425343  2.68432521912191
 6 -3.68026482648265 -0.08994814741474  2.07671833043304
 6 -3.56669877787779 -1.71867856045605  4.04683254265427
 6 -2.08335317861786 -2.65616961016102  0.63281746784678
 6 -1.07547531043104 -3.54955004290429  1.48739261616162
 6  0.28795466286629 -3.83620849294929  0.70234839593959
 8  0.36236008990899 -3.31127081588159 -0.44057407280728
 8  1.04602628482848 -4.71078622342234  1.31634762326233
 7 -5.06470502150215  2.62440267696770  1.55009169576958
 6 -4.09877396459646  2.45894391039104  2.44825005080508
 6 -3.75204574177418  3.68894897739774  3.22030097449745
 6 -4.63320907660766  4.60079854535454  2.61841772597260
 6 -5.47968733113311  3.91105578207821  1.53546869876988
 6 -2.79936856175618  3.91488857255726  4.23654752525253
 6 -4.70366306630663  6.06293632783278  2.89322475927593
 8 -4.19866235353535  6.51524635483548  3.82633660616062
 7 -6.95734738433843  2.63805173767377 -0.73392606030603
 6 -7.03590578837884  3.95815622112211 -0.47824602770277
 6 -7.88828396859686  4.58730978777878 -1.31104391349135
 6 -8.45418845164516  3.63542267236724 -2.13117767016702
 6 -7.82179599109911  2.38402657675768 -1.64597836763676
 6 -8.36618889758976  6.00632200190019 -1.23377451205120
 6 -9.57809428782878  3.65727666596660 -3.13352590119012
 6 -8.94529351005101  4.18995035813581 -4.49259250595059
 7 -6.35496126342634 -0.13885906610661 -1.13193421382138
 6 -7.30456406310631 -0.05558646424642 -2.12821874447445
 6 -7.60964408100810 -1.33463861656166 -2.69247227182718
 6 -6.60753623732373 -2.15300907420742 -2.14009321922192
 6 -5.87328525202520 -1.39725375487549 -1.12215007970797
 6 -8.59714508920892 -1.75711550015002 -3.78614953435344
 6 -6.15482911001100 -3.53989309530953 -1.94280967486749
 8 -6.49746298689869 -4.46320129022902 -2.63716396209621
 6 -5.05061531503150 -3.54235600230023 -0.89921654245425
 6 -5.34387151475147 -4.61912711431143  0.17231438243824
 8 -5.54431861446145 -4.61146708010801  1.39630675097510
 8 -5.08582854605461 -5.82233611771177 -0.45806997839784
 6 -5.18388173737374 -7.12352594369437  0.29291682648265
 6  2.23989067066707 -4.99987624782478  0.62051003230323
 6  3.36551986208621 -4.03957545684568  1.00899218501850
 6  4.22109121282128 -3.21295111601160  0.24460683568357
 6  3.79121401870187 -3.16333952235224 -1.28421609040904
 6  5.28118232423242 -2.25504977317732  0.71174302520252
 6  6.62519812451245 -2.61040599359936 -0.02701237533753
 6  7.66218534523452 -1.74804645044504  0.65011884648465
 6  9.06784539303930 -1.87917389938994 -0.15503221642164
 6  9.64461154125413 -3.22416231873187 -0.05485236023602
 6  9.96253168876888 -0.83352397329733  0.30653861726173
 6  11.30580373767377 -0.73123591869187 -0.44640995159516
 6  12.32684030463046  0.30396958745875  0.11799258745875
 6  13.66492588668867  0.46384607150715 -0.65571532873287
 6  14.46991516451645 -0.79975070507051 -0.37948463366337
 6  14.41331126932693  1.68514328652865 -0.06475411781178
 6  15.70322960386039  2.02173410871087 -0.94677178487849
 6  16.25866548624862  3.48599110911091 -0.59017011001100
 6  17.56723111781178  3.70292920842084 -1.39993104090409
 6  17.35688467056706  4.02804836753675 -2.92394471447145
 6  18.29835325452545  4.97837596359636 -0.65462641964196
 1 -2.74602010791079  1.29925678927893  3.53304091529153
 1 -6.80676155905591  5.49275547774777  0.95637540024002
 1 -8.89767496659666  1.41074533603360 -3.01381676257626
 1 -3.67760482568257 -3.18980209690969  2.07082282438244
 1 -1.97331841784178 -1.22420002820282  2.91048321432143
 1 -2.98675800100010 -2.60731731263126  4.34971491739174
 1 -3.29964656475648 -0.84782690039004  4.66514265016502
 1 -4.54332600840084 -1.93636155415542  4.00306352895290
 1 -2.55067223282328 -3.39402244724472 -0.23865159975998
 1 -1.60317101680168 -1.76368499589959  0.35474631593159
 1 -0.97569195929593 -3.12998297059706  2.57192173327333
 1 -1.39360883948395 -4.70180701700170  1.52355139183918
 1 -1.67158581068107  3.65383006970697  3.98069045014501
 1 -2.77068472247225  4.89416905600560  4.54418008090809
 1 -2.83665359785979  3.17787098119812  5.13627060386039
 1 -5.48310216951695  6.53540152265227  2.14256637243724
 1 -9.88099208170817  2.63714086598660 -3.20504165876588
 1 -10.43945142804280  4.39313684818482 -2.74196718931893
 1 -9.67227298819882  4.79743764376438 -5.40796710731073
 1 -7.98673263926393  4.92210415101510 -4.20870055185518
 1 -8.59297957285729  3.37594190809081 -5.07117123182318
 1 -8.48398498009801 -1.20705396309631 -4.74185415441544
 1 -8.36288591649165 -2.78676573687369 -4.08477782168217
 1 -9.53659690879088 -1.96742337693769 -3.18629291439144
 1 -4.06669844584458 -3.76783260626063 -1.41151608170817
 1  2.30020796459646 -6.02764005710571  1.02912130003000
 1  2.02655598219822 -5.02733125952595 -0.51023645874588
 1  3.58772475487549 -3.87639776207621  2.17058542264226
 1  2.70655810771077 -3.49631118601860 -1.38452110221022
 1  3.92434977297730 -2.08303300390039 -1.57338555605561
 1  4.38726123352335 -4.00550240654065 -1.82961441874187
 1  5.07944181318132 -1.33649919451945  0.58292868396840
 1  5.33107546594659 -2.52550686788679  1.71102498879888
 1  6.86255547554756 -3.60379467896790  0.30955027672767
 1  6.70041888138814 -2.54919713571357 -0.97672735893589
 1  7.58953975557556 -0.72538909320932  0.87829658295830
 1  8.09615852605260 -2.18095634413441  1.65990346274627
 1  9.09754565416542 -1.79097713841384 -1.18312653135314
 1  9.08295046044605 -4.04187304720472 -0.61041351155116
 1  10.66957998739874 -3.38582193689369 -0.58849643154315
 1  9.98588533613361 -3.56470219881988  0.98620958395840
 1  9.42575363626363  0.20394880528053  0.42252142654265
 1  10.27736669526953 -1.03310162946295  1.36755769306931
 1  11.70729266036604 -1.63429075077508 -0.12342164996500
 1  11.26810275047505 -0.72786442194219 -1.48890973467347
 1  11.77499751785179  1.19653272507251  0.23168595819582
 1  12.46950770947095 -0.02990170687069  1.08741791689169
 1  13.45920666296630  0.39817456025603 -1.62043824862486
 1  14.90499072627263 -0.76166918421842  0.60267536503650
 1  14.02866325282528 -1.68472165106511 -0.75464171827183
 1  15.45095495199520 -0.77011033873387 -1.03884628762876
 1  13.66982622822282  2.43004130333033 -0.18177805510551
 1  14.58239585178518  1.42626904140414  1.03515234253425
 1  16.46880560766077  1.32706816831683 -0.79901771677168
 1  15.44681947744774  1.99880813221322 -2.07533106400640
 1  15.48013947604760  4.22008521622162 -0.77247852785279
 1  16.55612524642464  3.74077003640364  0.56929938873887
 1  18.14410422722272  2.69967347584758 -1.08412280018002
 1  16.71088822562256  5.05971325022502 -3.02993727262726
 1  18.24218660856086  4.26097249044904 -3.50961839543954
 1  16.84058874417441  3.22987789898990 -3.55466601980198
 1  18.52234010801080  4.82768342134213  0.33113227892789
 1  19.28709632043205  5.36151237773777 -1.11954409550955
 1  17.64414698449845  5.88191260136014 -0.55397374947495
 1 -5.20552843744374 -7.93454455385539 -0.46680099609961
 1 -6.13256374767477 -6.86841622302230  1.00543038633863
 1 -4.18251046844684 -7.17660753695370  1.13904677307731
 8 -7.83273616891689  6.77657768916892 -0.47475090349035
 1 -9.22014539833983  6.27918533423342 -1.82841130863086

