%nproc=3
%Mem=2GB
# td=(NStates=1) iop(3/107=0140000000,3/108=0140000000) iop(3/107=0140000000,3/108=0140000000) CAM-B3LYP/6-31G(d,p) 

TD

0 1
12 -5.50498622982298  1.24164419211921  0.14982765156516
 6 -5.00880100190019 -2.09002296699670 -0.37824088918892
 6 -3.40888234813481  1.14762730423042  2.86331776997700
 6 -6.04806122842284  4.58418644174417  0.68045040624062
 6 -7.86916783478348  1.18506718911891 -2.41054514841484
 7 -4.36806389088909 -0.23926985008501  1.00833100010001
 6 -4.23371859225923 -1.54492567396740  0.67072079057906
 6 -3.20943234493449 -2.32171336993699  1.57498308690869
 6 -2.91008516391639 -1.33279394909491  2.60441722832283
 6 -3.54848164816482 -0.11701085368537  2.17400805940594
 6 -3.34262637063706 -1.73012970557056  4.01884974437444
 6 -1.94006885018502 -2.78628262146215  0.71414560066007
 6 -1.05239300220022 -3.69449453735374  1.51471534843484
 6  0.23143901130113 -3.97933280538054  0.74870303140314
 8  0.42210606450645 -3.64208389718972 -0.38743875927593
 8  1.00546222842284 -4.87204234903490  1.36660264876488
 7 -4.81994054505451  2.61406164286429  1.51062774937494
 6 -3.88274236143614  2.42202021802180  2.40063528932893
 6 -3.64074461166117  3.74067414991499  3.23306225062506
 6 -4.43856961266127  4.64378284378438  2.52228811301130
 6 -5.16717608000800  3.95398007450745  1.49045419731973
 6 -2.65162378727873  3.82836992069207  4.30670454095410
 6 -4.47908060806081  6.04721475567557  2.91506694349435
 8 -3.87333982128213  6.55310014021402  3.75258923142314
 7 -6.82579422902290  2.66914484698470 -0.74829749744975
 6 -6.90074227202720  3.99482988848885 -0.41340954405441
 6 -7.87858299849985  4.60248130493049 -1.20430323942394
 6 -8.43639667246725  3.67096622672267 -2.07148170057006
 6 -7.72842665416542  2.41742991709171 -1.80616438623862
 6 -8.37479975867587  6.00676204590459 -1.15219635423542
 6 -9.42615909430943  3.85305624392439 -3.14400694929493
 6 -8.77822680338034  4.09478084118412 -4.53622686938694
 7 -6.29085485278528 -0.04624980518052 -1.16816783718372
 6 -7.34961856855686 -0.00392129772977 -2.12482840544054
 6 -7.55837895449545 -1.33821897459746 -2.66828985358536
 6 -6.66780226392639 -2.21516528982898 -2.09983919381938
 6 -6.01610953445345 -1.35742977247725 -1.13497136183618
 6 -8.49255463016302 -1.65485527412741 -3.89626054545455
 6 -6.24217784488449 -3.54579368536854 -2.01543693759376
 8 -6.60535377597760 -4.53159812991299 -2.62834308000800
 6 -4.98926918041804 -3.51663343004300 -0.93013963476348
 6 -5.20473760136014 -4.66435163676368  0.11880903190319
 8 -5.67473165576558 -4.54808074147415  1.21290841114111
 8 -4.82494245744574 -5.79124300840084 -0.40363453485349
 6 -5.27433078227823 -6.95279887098710  0.49817735253525
 6  2.23091977357736 -5.17399365956596  0.66139412071207
 6  3.33012632273227 -4.22619411871187  0.92682396819682
 6  3.95320442414241 -3.29702952385239  0.12680505550555
 6  3.60360525782578 -3.19212240064006 -1.27427509630963
 6  5.06382058805881 -2.43295756395640  0.68995084598460
 6  6.50444604930493 -2.80432538553855  0.06487681358136
 6  7.52702182888289 -1.85651729752975  0.51346518111811
 6  8.92394100260026 -2.06662264426443 -0.07724443764376
 6  9.47246432653265 -3.39142904540454  0.25102822782278
 6  9.75833126872687 -0.89381000190019  0.41671963536354
 6  11.23602675997600 -0.88584137923792 -0.32945825642564
 6  11.99331695229523  0.37804699519952  0.07822861106111
 6  13.40069946404640  0.50873055995600 -0.54918467566757
 6  14.36896506950695 -0.59489021902190 -0.31457814301430
 6  14.13259319751975  1.83538831103110 -0.13872151455146
 6  15.50893017391739  2.12617455275528 -0.93178028572857
 6  15.91927154685468  3.59528203820382 -0.59284037703770
 6  17.26271066576658  4.03069198469847 -1.37330837863786
 6  17.10234921702170  4.05384094679468 -2.95638795879588
 6  17.68756217541754  5.37830595659566 -0.87797875487549
 1 -2.97482298819882  1.12805966956696  3.72096970817082
 1 -6.27473835673567  5.60444664686469  0.65678544124412
 1 -8.77876307540754  1.16863112461246 -2.98172355325533
 1 -3.72892995819582 -3.28161127782778  1.91702744484448
 1 -1.84861594759476 -1.32433004120412  2.81056322232223
 1 -2.55891521672167 -2.47417399829983  4.33690363626363
 1 -3.40339693979398 -0.90174229192919  4.63373950985098
 1 -4.27555923172317 -2.24945286328633  4.04204742734273
 1 -2.25019218481848 -3.36426947194719 -0.17807554215422
 1 -1.34532523222322 -1.93772239963996  0.53760460176018
 1 -0.68196258635864 -3.23549352165217  2.35002954405441
 1 -1.43233271187119 -4.70577741404140  1.73566260296030
 1 -1.76199485158516  3.48715340204020  4.26722910401040
 1 -2.88095574957496  4.84833447254725  4.68186384928493
 1 -3.21124105660566  3.30728392249225  5.17748472527253
 1 -4.95954981428143  6.93631161366137  2.15805792159216
 1 -10.21927591009101  3.10061721362136 -3.20025117971797
 1 -10.01993947684769  4.74574210871087 -2.96927992059206
 1 -9.80569633053305  4.23670157015702 -5.23858016861686
 1 -8.11244521052105  4.94252619321932 -4.39191887368737
 1 -8.05072534743474  3.32037635153515 -4.88561267596760
 1 -8.07462404400440 -1.13377663536354 -4.92113208220822
 1 -8.34832446034603 -2.76800386068607 -4.12880222412241
 1 -9.47760100920092 -1.45743237783778 -3.66709099419942
 1 -4.11181295729573 -3.85087091009101 -1.63438836893689
 1  2.52252019581958 -6.15601289438944  1.12694108200820
 1  1.92733606020602 -5.29587811421142 -0.41402683778378
 1  3.81895787818782 -4.39783990629063  1.89723808790879
 1  2.63980143204320 -3.58718027292729 -1.61048369846985
 1  3.52283962196220 -2.03988868946895 -1.57102532003200
 1  4.52835534293429 -3.63517537383738 -1.84922637993799
 1  4.84575844484448 -1.49723526812681  0.42404279537954
 1  5.04324668306831 -2.63864818201820  1.75015890219022
 1  6.74414363436344 -3.95924022352235  0.32479180088009
 1  6.35011385088509 -2.79957217321732 -0.99924961116112
 1  7.24003480508051 -0.86979353365337  0.41858061136114
 1  7.63517242744274 -1.83883213171317  1.48227569997000
 1  8.93895979557956 -2.12603064376438 -1.20223844254425
 1  8.72120428582858 -4.20152901280128 -0.08229069926993
 1  10.35602863226323 -3.60757411211121 -0.15595317721772
 1  9.65897264486449 -3.65383111171117  1.31154211721172
 1  9.26651771267127  0.08128653905391  0.17467664206421
 1  9.83757271587159 -0.81152947224723  1.53122405970597
 1  11.73169510061006 -1.69579690139014  0.12145283748375
 1  11.15537147734774 -0.84439607510751 -1.34712555625563
 1  11.52705272337234  1.25685875767577 -0.22445965636564
 1  12.20880163886389  0.36832811611161  1.20499967506751
 1  13.09558030033003  0.69414415721572 -1.54484068886889
 1  14.78745897309731 -0.58161117841784  0.71799689718972
 1  13.94077446394640 -1.53704688358836 -0.74478073217322
 1  15.18332818931893 -0.35796912461246 -0.84571697469747
 1  13.39560880648065  2.94586288548855 -0.26353623092309
 1  14.55080269246925  1.87205361986199  0.80542937023702
 1  16.15939466656666  1.27569303080308 -0.41682949794980
 1  15.47622241774177  1.93730198159816 -1.93731726262626
 1  15.12671413351335  4.15711891959196 -0.61034231423142
 1  16.29784941884188  3.56167212661266  0.52570502930293
 1  18.01552136893689  3.29830333883388 -1.07556194409441
 1  16.49715685248525  4.94574185308531 -3.27052133103310
 1  18.13297568746875  4.11401779497950 -3.34738217181718
 1  16.59263394869487  3.04611952315232 -3.45146569976998
 1  17.78312618661866  5.30015066806681  0.16413557925793
 1  18.69908751955196  5.72311853835383 -1.19226136723672
 1  16.87653022282228  5.99809421952195 -1.19078743084308
 1 -5.03372125672567 -7.78088918831883 -0.34495881188119
 1 -6.19589008030803 -6.75339472087209  0.82995283858386
 1 -4.60039225662566 -6.74543441964196  1.34636750515052
 8 -7.80141303660366  6.84648467986799 -0.42047547594759
 1 -9.00582396619662  6.26739415511551 -1.86814528202820

