%nproc=3
%Mem=2GB
# td=(NStates=1) iop(3/107=0140000000,3/108=0140000000) iop(3/107=0140000000,3/108=0140000000) CAM-B3LYP/6-31G(d,p) 

TD

0 1
12 -5.66118184938494  1.28990901860186  0.24659732853285
 6 -4.94536465826583 -2.15677964266427 -0.44597766286629
 6 -3.50397185708571  1.13494603610361  2.80932237043704
 6 -6.23096951925193  4.51781980508051  0.74712707390739
 6 -8.08569948794880  1.09621830423042 -2.36562065596560
 7 -4.35202228672867 -0.32221814491449  1.01793196019602
 6 -4.23017823822382 -1.59689087048705  0.64486820532053
 6 -3.16651805350535 -2.29705090369037  1.50758634723472
 6 -2.96026018141814 -1.29567023672367  2.67418420502050
 6 -3.63473027302730 -0.03563271587159  2.13289394799480
 6 -3.59092120012001 -1.86014270687069  4.01384924432443
 6 -1.83418826212621 -2.56521051425142  0.71954614071407
 6 -0.97451521442144 -3.68516360426043  1.34159803670367
 6  0.25043091049105 -3.88555342744274  0.74050221132113
 8  0.50850470437044 -3.43182287108711 -0.38608862426243
 8  1.06510819301930 -4.82848799359936  1.35612160066007
 7 -4.90837938893889  2.59898013471347  1.46682336893689
 6 -4.13880796799680  2.40041805780578  2.56704192999300
 6 -3.76378691589159  3.68834891739174  3.18884782918292
 6 -4.60560631633163  4.57613607910791  2.61101698589859
 6 -5.25548491089109  3.91398607510751  1.58372352425243
 6 -2.83676230113011  3.91435851955196  4.24861873237324
 6 -4.79662236223622  6.04543457765777  2.87300273707371
 8 -4.07615010231023  6.58660349054905  3.68493246574657
 7 -6.86406805640564  2.63393132563256 -0.63648631633163
 6 -6.96268846664666  3.95723612911291 -0.32577078017802
 6 -7.98194333453345  4.67263832063206 -1.13426623572357
 6 -8.43639667246725  3.66024515461546 -2.04418897129713
 6 -7.80250406190619  2.35184335843584 -1.65009877967797
 6 -8.31906418511851  5.99410077977798 -1.23976511111111
 6 -9.33641011941194  3.80557149544954 -3.15376792539254
 6 -8.73874285498550  4.04745610871087 -4.48560180688069
 7 -6.30962672997300 -0.09107428762876 -1.10115113551355
 6 -7.40808441514151 -0.09713061866187 -2.02595851845185
 6 -7.58186130273027 -1.28235338803880 -2.70553357795780
 6 -6.65476095979598 -2.16123989728973 -2.16742595249525
 6 -5.83698162166217 -1.39773380288029 -1.16638450315032
 6 -8.50063543824382 -1.57187697629763 -3.78350927032703
 6 -6.13885751285128 -3.55842494849485 -2.07535292919292
 8 -6.56190943154315 -4.54686965706571 -2.70054029972997
 6 -4.91227148064806 -3.61257302400240 -0.96870349114912
 6 -5.25364249184918 -4.65437063866387  0.01954910591059
 8 -5.62704688728873 -4.50885681908191  1.21504862516252
 8 -4.95661562476248 -5.88530241434143 -0.41005517691769
 6 -5.24458780798080 -6.89194278537854  0.48925646044604
 6  2.35639232083208 -5.07806406660666  0.72064004530453
 6  3.37855116521652 -4.05365686498650  1.11831311711171
 6  3.98695779947995 -3.19383920482048  0.22982535753575
 6  3.65426032333233 -2.97714090249025 -1.29177684648465
 6  5.07463166916692 -2.24687895609561  0.66715856675668
 6  6.49806541124112 -2.61234618761876  0.10864119001900
 6  7.62660178687869 -1.71761340714071  0.62748658325833
 6  8.99904851335133 -2.02147812981298 -0.11109782298230
 6  9.50456753685368 -3.43925382788279  0.07544066906691
 6  10.02659809540954 -0.91572219311931  0.30512847624762
 6  11.32841599889989 -0.73568636373637 -0.33381869246925
 6  12.21192881348135  0.33841303180318  0.09629041724172
 6  13.48059745384538  0.39019870677068 -0.68877863506351
 6  14.40960913391339 -0.74354508450845 -0.40116680188019
 6  14.21745168336834  1.71529630183018 -0.21237888028803
 6  15.54684396529653  2.03629556485649 -0.94683179087909
 6  16.06342596229623  3.51746425642564 -0.68365945894589
 6  17.38547294199420  3.84489340484048 -1.33285433323332
 6  17.24130311241124  3.92154771747175 -2.79963228322832
 6  17.94850827002700  5.10719884588459 -0.81224218121812
 1 -2.75153065896590  0.99636650025003  3.59640725192519
 1 -6.48544942784278  5.51687788998900  0.92159192189219
 1 -8.76474167326733  0.81542580408041 -3.06383176407641
 1 -3.57267433263326 -3.26668978567857  1.74228997109711
 1 -1.76650773677368 -1.20344795299530  2.90885305130513
 1 -3.04639396459646 -2.84223080398040  4.30629057495750
 1 -3.33607020712071 -1.15993811151115  4.64642077797780
 1 -4.56525820162016 -2.04414233223322  3.94125734833483
 1 -1.86446361196120 -3.09691273627363 -0.36357409200920
 1 -1.19838053775378 -1.65768439583958  0.63429427072707
 1 -0.73292768286829 -3.31865183748375  2.34669921102110
 1 -1.60890036863686 -4.56284312061206  1.45844488118812
 1 -1.70744939703970  3.88706339303930  3.88500088118812
 1 -2.68797645164516  4.91712135123512  4.53018868176818
 1 -2.85477541004100  3.18915210931093  5.12496947374737
 1 -5.35425928522852  6.64394237673767  2.38307042284228
 1 -9.83651763426343  2.72967011891189 -3.36389754435443
 1 -10.21880936383639  4.56259379387939 -2.96952994559456
 1 -9.46381214211421  4.53571147114711 -5.10438674927493
 1 -7.76882084808481  4.73349529012901 -4.28286796859686
 1 -8.33495377027703  3.07555186908691 -4.86707082178218
 1 -8.34251083268327 -1.07504076177618 -4.62715268426843
 1 -8.80617024492449 -2.65699275957596 -3.84729407330733
 1 -9.57843109220922 -1.45260189478948 -3.60040432553255
 1 -4.01326310231023 -3.91565738873887 -1.46880181028103
 1  2.49196714051405 -5.99475676877688  1.15139352725273
 1  2.40835416201620 -4.93173169956996 -0.37045248034803
 1  3.75574155655566 -4.21730185248525  2.09747811191119
 1  2.56430388228823 -3.02388394329433 -1.57945059515952
 1  4.06493383138314 -1.84022872347235 -1.43815203270327
 1  4.30324283168317 -3.42100395669567 -1.90479193649365
 1  5.01092496149615 -1.10731627622762  0.58001839293929
 1  5.02075443384338 -2.27336165336534  1.90111399769977
 1  6.69605882588259 -3.76067036653665  0.18497781948195
 1  6.36234507400740 -2.42048426442644 -0.98340802700270
 1  7.12956375797580 -0.60446700100010  0.50816957025703
 1  7.82848175837584 -1.74141238973897  1.65326279867987
 1  8.78546444604460 -1.96990503120312 -1.27698591729173
 1  8.75312747814782 -4.23173203310331 -0.02736520672067
 1  10.41098412781278 -3.61218457315732 -0.47470505240524
 1  9.55969271687169 -3.74225995459546  1.19299026202620
 1  9.53742480338034  0.01375978637864  0.35903507790779
 1  10.23137209580958 -0.99630795009501  1.37190812811281
 1  11.82351428252825 -1.76270359205921 -0.28120742854285
 1  11.31349728992899 -0.62677431293129 -1.37795863956396
 1  11.76939695779578  1.33346641844184 -0.01176838723872
 1  12.46759751845185  0.18207949124913  1.12587176227623
 1  13.22867360966097  0.46970171297130 -1.73456966176618
 1  14.75305553275328 -0.88436145344534  0.73975907340734
 1  13.84066445294529 -1.64336751565157 -0.62361861596160
 1  15.37546740324032 -0.67400072777278 -1.04250665366537
 1  13.48217746334633  2.45498379757976 -0.19389926722672
 1  14.35170278247825  1.62297871237124  0.83006183348335
 1  16.34648337543754  1.30739620112011 -0.40424823982398
 1  15.61384618011801  1.78514676607661 -2.04128765966597
 1  15.29156061816182  4.33172638033803 -1.06747802780278
 1  16.34500413431343  3.62771873127313  0.41048350715071
 1  18.20596041284129  3.14644815331533 -1.20395478337834
 1  16.70703784058406  4.86169344824483 -3.24739901880188
 1  18.23815620552055  4.00620701390139 -3.36420385398540
 1  16.73353803910391  3.29162407360736 -3.48867942114211
 1  18.02201007500750  5.11273192619262  0.37974714041404
 1  19.00378798959896  5.36980320682068 -1.32738487958796
 1  17.47686025582558  5.95224963506351 -0.92384073617362
 1 -4.65588347294729 -7.88434953435344  0.02267795179518
 1 -6.36478696999700 -7.18456783818382  0.51944178747875
 1 -4.74310652805281 -6.69007888408841  1.45798866726673
 8 -7.88988188348835  6.87760779217922 -0.55652908130813
 1 -9.27826120992099  6.39034645034503 -1.89112758025803

