%nproc=3
%Mem=2GB
# td=(NStates=1) iop(3/107=0140000000,3/108=0140000000) iop(3/107=0140000000,3/108=0140000000) CAM-B3LYP/6-31G(d,p) 

TD

0 1
12 -5.45376110731073  1.20794082178218  0.24613728252825
 6 -4.88958908070807 -2.07143110781078 -0.33696676177618
 6 -3.35620708060806  1.26462900440044  2.82169360756076
 6 -6.21274769706971  4.58355637873787  0.66073843504350
 6 -8.02929384738474  1.09697838023802 -2.36402049594959
 7 -4.24534161866187 -0.22711863496350  1.07617778477848
 6 -4.18210343074307 -1.58827000840084  0.68283200170017
 6 -3.19213061476148 -2.36026722532253  1.54456004460446
 6 -2.72592674807481 -1.34276494619462  2.60846763336334
 6 -3.49311611161116 -0.02697184978498  2.17164782338234
 6 -3.39224133213321 -1.67765445804580  4.03668152755275
 6 -2.00439528282828 -2.64024801800180  0.64654884098410
 6 -0.96706446934693 -3.54591967986799  1.36901077797780
 6  0.15547141454145 -3.93973884598460  0.56585474657466
 8  0.42845669956996 -3.44238392719272 -0.54326434183418
 8  0.98699038123812 -4.81773691849185  1.18930491899190
 7 -4.84837338833883  2.71469170587059  1.32966965356536
 6 -3.90528461566157  2.50212822882288  2.38463368916892
 6 -3.75682621982198  3.72083216571657  3.20057900230023
 6 -4.54803055875588  4.63063152865287  2.51628751295130
 6 -5.23727308970897  3.99273394989499  1.46041119301930
 6 -2.84507313221322  3.82717980168017  4.35982985348535
 6 -4.66750945094509  6.07750778497850  2.89315475227523
 8 -3.99573206050605  6.59546437663766  3.80137410991099
 7 -6.93372502210221  2.57787572007201 -0.66229889758976
 6 -6.99127132493249  3.92705311081108 -0.27452565566557
 6 -8.02644778497850  4.53434449124912 -1.14794760386039
 6 -8.49017205000500  3.60208933903390 -2.02923747614761
 6 -7.92069588108811  2.31830000410041 -1.64741851165117
 6 -8.38355063376338  5.97789915961596 -1.15642677727773
 6 -9.59011548994900  3.68937987628763 -3.19746229482948
 6 -8.79453843454345  3.90553191629163 -4.46430967766777
 7 -6.22795856315632 -0.12150733093309 -1.15678669906991
 6 -7.27908151485148 -0.01247215281528 -2.13266918951895
 6 -7.48114123072307 -1.31863701640164 -2.71596462106211
 6 -6.58489397309731 -2.16322009530953 -2.09191840174017
 6 -5.90566849034903 -1.40644467396740 -1.16245411011101
 6 -8.50047542224222 -1.59627941654165 -3.82107302670267
 6 -6.10953458055806 -3.53475258125813 -1.99804519841984
 8 -6.60065330593059 -4.54513948404840 -2.52369261496150
 6 -5.04440469396940 -3.54463623032303 -0.92289891069107
 6 -5.31777890549055 -4.63366856845685  0.18921607260726
 8 -5.74944912751275 -4.51973790719072  1.24190131043104
 8 -5.02752271547155 -5.92735661976198 -0.35290946234623
 6 -5.32820616981698 -7.04350794189419  0.48466600140014
 6  2.27693437503750 -4.98288454865486  0.47916589788979
 6  3.36482979307931 -4.02859435873587  0.94819610541054
 6  4.00038914261426 -3.22894271517152  0.10282265726573
 6  3.70042493979398 -3.00682387078708 -1.39072674147415
 6  5.19043324932493 -2.36531079927993  0.67575942684268
 6  6.55518112281228 -2.64184913791379 -0.03801347544755
 6  7.58433756045605 -1.78781042684268  0.49805363996400
 6  9.01136974547455 -1.98221420342034 -0.09186589978998
 6  9.56975405550555 -3.32033193569357  0.18583170817082
 6  9.96875231083108 -0.87810843174317  0.47765572897290
 6  11.36304946224622 -0.90514330943094 -0.19480479107911
 6  12.13713133373337  0.26807599809981  0.30777156535654
 6  13.44979437353735  0.42987267416742 -0.53363312051205
 6  14.32969114211421 -0.75019574957496 -0.39681636683668
 6  14.24265420362036  1.69023379557956 -0.19530717311731
 6  15.57542682358236  2.08095003030303 -0.89351645934593
 6  16.08388800850085  3.48099060906091 -0.52712380538054
 6  17.34169856455646  3.87704662016202 -1.31765281308131
 6  17.03889287138714  3.82526808950895 -2.84453677367737
 6  17.88733215241524  5.28750687668767 -0.90074103110311
 1 -2.77143264916492  1.09647651125113  3.75084269546955
 1 -6.51789267216722  5.60168637083708  0.84820458315832
 1 -8.85235043414341  1.12443670517052 -3.12799818071807
 1 -3.70282734793479 -3.33632674937494  1.81256699879988
 1 -1.75776686268627 -1.03366097429743  2.55772793879388
 1 -3.13333265846585 -2.68358493939394  4.16314626052605
 1 -2.94726132623262 -0.92165428312831  4.66553268916892
 1 -4.50339201500150 -1.73496141414141  4.08796201880188
 1 -2.32969013461346 -3.23568661366137 -0.17013474807481
 1 -1.63540424012401 -1.67752638003800  0.42140298159816
 1 -0.61395578567857 -3.05360533283328  2.23797833893389
 1 -1.23683316191619 -4.39911674797480  1.90026906360636
 1 -1.76211486358636  3.67689237593759  3.92373475457546
 1 -3.00152780678068  4.80675031413141  4.95954161706171
 1 -3.15642557505751  3.11020421452145  5.06159313611361
 1 -5.35523938323832  6.66531451395139  2.21578369416942
 1 -10.29516349884988  2.75892304420442 -3.22308346294629
 1 -10.09395687858786  4.57298483298330 -2.98197118971897
 1 -9.54598035893589  4.32594049404941 -5.32075838643865
 1 -8.07134110011001  4.67444938553855 -4.29589927172717
 1 -8.13302357725773  3.11524583848385 -5.00171428612861
 1 -8.11097767936794 -0.83285654335434 -4.65739570857086
 1 -8.56337596549655 -2.55559261956196 -4.15039438333833
 1 -9.49351260036004 -1.30984761936194 -3.53165745084508
 1 -4.25874765076508 -3.95843166616662 -1.54427935803580
 1  2.48636658045805 -5.97617491059106  0.69662805070507
 1  2.05645897249725 -4.97140566696670 -0.51045648074808
 1  3.53263924632463 -4.10278040034003  2.04597296139614
 1  2.72190964286429 -3.45176673157316 -1.71231388148815
 1  3.93987132513251 -1.81030573117312 -1.25005322282228
 1  4.54821732913291 -3.68695055135514 -1.97021847914791
 1  4.84125799479948 -1.30200574517452  0.16499689078908
 1  5.47977033543354 -2.38512282948295  1.71277516381638
 1  6.74665388538854 -3.60630492999300  0.33159248094809
 1  6.38881772127213 -2.76474869086909 -1.11636132233223
 1  7.16031683328333 -0.73859041334133  0.46078483178318
 1  7.70872978317832 -2.03796204470447  1.54193166556656
 1  8.89935583518352 -1.79373741444144 -1.12539075777578
 1  8.64228639403940 -4.05231409130913  0.03108063786379
 1  10.42469549894989 -3.88738209290929 -0.46733431533153
 1  9.72769951755176 -3.17925365396540  1.25064602760276
 1  9.48791985288529  0.01071948234824  0.35255442984298
 1  9.99152811141114 -1.20487880718072  1.59443038033803
 1  11.92732466356636 -1.89996731843184  0.15781647384738
 1  11.20162610281028 -0.68579021452145 -1.17822866656666
 1  11.67802782088209  1.15116818861886  0.23226601620162
 1  12.25538629732973 -0.03777249394939  1.36910608570857
 1  13.07982872517252  0.39475421822182 -1.61798800360036
 1  14.55705593279328 -0.90639365666567  0.75516061356136
 1  13.69334972147215 -1.60399357825783 -0.59927618171817
 1  15.25431528802880 -0.78239156685669 -0.94349675267527
 1  13.46585583118312  2.57187548674868 -0.41450132743274
 1  14.38449606180618  1.46627304180418  0.90239906720672
 1  16.40386911401140  1.17042250375038 -0.86596441144114
 1  15.22347714321432  2.29457770917092 -1.95834936583658
 1  15.07891935403540  4.14299750745074 -0.83543482348235
 1  16.17114674857486  3.66014197359736  0.50561302010201
 1  18.01748156495650  3.07674118261826 -1.04403879177918
 1  15.98128526532653  4.32580985988599 -2.99287356625663
 1  17.83355574547455  4.04509090229023 -3.31589902350235
 1  16.86823150845084  2.73288820002000 -3.04666521972197
 1  17.95458333233323  5.47251790479048  0.17006617231723
 1  18.91088869966997  5.50020624712471 -1.28606074717472
 1  17.31024359415942  6.08896330643064 -1.36648500060006
 1 -4.93720160476048 -7.86746784618462 -0.05031934793479
 1 -6.42460295159516 -7.15793517491749  0.77591743504350
 1 -4.89189140654065 -6.99872974917492  1.28666153455346
 8 -7.97240013531353  6.90929096049605 -0.44012744114411
 1 -9.08454183798380  6.19857727342734 -1.95695416291629

