%nproc=3
%Mem=2GB
# td=(NStates=1) iop(3/107=0140000000,3/108=0140000000) iop(3/107=0140000000,3/108=0140000000) CAM-B3LYP/6-31G(d,p) 

TD

0 1
12 -5.79134486568657  1.19736976467647  0.23682635143514
 6 -4.98060818261826 -2.03179714441444 -0.36990005510551
 6 -3.46325778567857  1.17003954545455  2.78524996319632
 6 -6.34935135743574  4.51820984408441  0.64987734893489
 6 -8.04738565656566  1.19254793719372 -2.29212330623062
 7 -4.39907699219922 -0.26631255435544  1.12516268326833
 6 -4.14854007440744 -1.58052923432343  0.59788350685069
 6 -3.19436083778378 -2.28392959155916  1.48110369896990
 6 -2.92082623802380 -1.28626929662966  2.56560334693469
 6 -3.53587038703870 -0.13176232883288  2.15586624522452
 6 -3.31331343934393 -1.70798749134914  4.01622948234824
 6 -2.02945778907891 -2.71248524172417  0.72416660276028
 6 -0.98005576847685 -3.62631771967197  1.44285816271627
 6  0.28921478887889 -3.93225809790979  0.65131329242924
 8  0.55388924282428 -3.49746943574357 -0.46766678207821
 8  1.18675035723572 -4.61435658045805  1.39174516301630
 7 -5.09024757575758  2.58832906960696  1.49761644824482
 6 -4.05456954415441  2.44519253525353  2.42652787858786
 6 -3.83208374557456  3.64184426692669  3.20163910831083
 6 -4.62679843554355  4.57098556405640  2.52821870607061
 6 -5.33732309470947  3.95492016851685  1.46360151205120
 6 -2.91202982788279  3.70628771247125  4.38168203870387
 6 -4.50653335333533  5.97003703790379  2.78652408920892
 8 -3.96382887018702  6.50998582878288  3.72072604510451
 7 -6.94613626322632  2.63478141064106 -0.69618228592859
 6 -7.04331652945295  3.88553895939594 -0.33074127722772
 6 -7.95780092029203  4.63335439223922 -1.22929573867387
 6 -8.56025905870587  3.62117124722472 -2.04559911231123
 6 -7.80216402790279  2.37998617271727 -1.70345411521152
 6 -8.43231551025103  6.01235260496050 -1.15165630023002
 6 -9.47051352975298  3.74740567886789 -3.16423897249725
 6 -8.72280126082608  3.88052941604160 -4.50892413911391
 7 -6.25843161046105 -0.07946312651265 -1.21277229762976
 6 -7.38095170187019 -0.05690659625963 -2.12894881748175
 6 -7.61314443104310 -1.39150430313031 -2.69816284088409
 6 -6.70060554425443 -2.18943271657166 -2.05113432333233
 6 -5.87948587208721 -1.36471050055006 -1.13511137583758
 6 -8.56682205690569 -1.69117890649065 -3.81928284768477
 6 -6.21515514261426 -3.45620472647265 -1.99210460436044
 8 -6.60152339293929 -4.40640561066107 -2.62247249294930
 6 -5.01770202370237 -3.45228699539954 -1.01135775657566
 6 -5.15237236483648 -4.50281548314832  0.04970212121212
 8 -5.48582276487649 -4.28294422782278  1.20197731803180
 8 -4.91907187038704 -5.72778666276628 -0.41042521392139
 6 -5.14269761896190 -6.82398598969897  0.52461999679968
 6  2.37121380298030 -5.05637189738974  0.66472445374537
 6  3.39841315141514 -3.98733023232323  1.04581586738674
 6  3.92410151385139 -3.11170099099910  0.21850422542254
 6  3.59967486478648 -3.11411459985999 -1.30112778157816
 6  5.17620182618262 -2.25834010221022  0.74897674857486
 6  6.46422202690269 -2.72892784578458  0.10002032793279
 6  7.67099622632263 -1.91061270707071  0.61370520512051
 6  8.99875848434844 -1.97500348234823 -0.22987970117012
 6  9.47343442354235 -3.52452235473547 -0.00713758875888
 6  9.99351478707871 -0.96962758365837  0.42627059045905
 6  11.33153631093109 -0.91699449454945 -0.24190950155016
 6  12.26966458705871  0.30232942344234 -0.04947415921592
 6  13.65425481958196  0.47837752465247 -0.67086684388439
 6  14.53985215821582 -0.79827055705571 -0.33230991619162
 6  14.36130606880688  1.68494326652665 -0.14514215661566
 6  15.58122740364036  1.96857879317932 -0.98823593129313
 6  16.09786940664066  3.41535404540454 -0.56929802280228
 6  17.32325672037204  3.91726064156416 -1.27731877967797
 6  17.18390737283729  3.91835739843984 -2.73198551855186
 6  17.73512693189319  5.36524465046505 -0.84739569656966
 1 -2.67317282318232  1.46335319891989  3.53762137333733
 1 -6.49721060396040  5.51129733193319  0.75533529622962
 1 -8.92937813691369  1.13054731623162 -2.89822520342034
 1 -3.70261732693269 -3.10325344204420  1.90983672577258
 1 -1.90513159915992 -1.32068967716772  2.68553071907191
 1 -3.02775210041004 -2.83383996489649  4.12693263916392
 1 -2.76534313441344 -1.02302442014201  4.96443257915792
 1 -4.37406908270827 -1.51258917691769  4.03655687828783
 1 -2.26433359895990 -3.08874191919192 -0.41540927552755
 1 -1.49705040474047 -1.84626325372537  0.49199004030403
 1 -0.68107249734974 -3.19998997129713  2.52841738283828
 1 -1.56410588918892 -4.61269810611061  1.58841787848785
 1 -1.90538919101910  3.68639332603260  4.06256863796380
 1 -3.03539119311931  4.74951459055906  4.63720938383838
 1 -3.41622155465547  3.36013920802080  5.24365134193419
 1 -4.93200706000600  6.70557854035404  2.07052916871687
 1 -10.18738272077208  3.05570272217222 -3.06202735733573
 1 -10.06226370927093  4.59847738223822 -3.00867385998600
 1 -9.35037079797980  3.68850675067507 -5.40066637723772
 1 -7.94649861586159  4.80609254985499 -4.51232091389139
 1 -7.87416769166917  3.00234454835484 -4.44853896859686
 1 -8.38683526512651 -1.08230148784879 -4.72775274427443
 1 -8.58949857775777 -2.63959101940194 -4.05870521442144
 1 -9.56766001510151 -1.44750138473847 -3.38065235033503
 1 -4.15554733073307 -3.70733655665567 -1.79781471157116
 1  2.33831177497750 -5.91975926902690  1.21054944284428
 1  2.25992931953195 -5.32651117751775 -0.33141857695770
 1  3.61781776417642 -3.89704982728273  2.15390375447545
 1  2.73344079597960 -3.50928248314831 -1.70779342944294
 1  3.70875821382138 -2.18773347394739 -1.63341155865587
 1  4.37948045544555 -3.62280413671367 -1.58792024932493
 1  5.04688855785579 -1.26086163076308  0.48923931503150
 1  5.21090344874488 -2.54837915511551  1.82928681498150
 1  6.51515073507351 -3.81824612411241  0.23290261196120
 1  6.17915675517552 -2.49815203120312 -0.89827951415141
 1  7.08893969556956 -0.80162671697170  0.62232098539854
 1  8.02951186138614 -2.20913916241624  1.61400887328733
 1  8.51624752435244 -1.57218525922592 -1.25258347704770
 1  8.86682884828483 -4.33192205210521 -0.10840331053105
 1  10.45979900930093 -3.84587794249425 -0.70155773767377
 1  9.76608335593559 -3.39980570917092  1.05945690869087
 1  9.49269032993299  0.16750516091609  0.68302747714772
 1  10.14876383498350 -1.24709302860286  1.49945088238824
 1  11.85992792389239 -1.81315863756376 -0.05871517931793
 1  10.99029496969697 -0.89829146464646 -1.43265410911091
 1  11.48910892899290  1.21331440324032 -0.11328853925393
 1  12.54112487118712  0.25829711301130  0.97743691879188
 1  13.65640638293829  0.35361010381038 -1.80082628742874
 1  14.97660788798880 -0.97822083938394  0.70473557105711
 1  14.23661404790479 -1.87384056295630 -0.50602685678568
 1  15.33611346784678 -0.81139446714671 -0.97897030003000
 1  13.67538678427843  2.55651395059506 -0.19658953625363
 1  14.55804341654165  1.58179459395940  0.78134696199620
 1  16.39009773687368  1.27639310081008 -0.97059487448745
 1  15.45665046054605  2.11998024942494 -2.04352788368837
 1  15.28586004810481  4.20988419611961 -0.56575785578558
 1  16.19237887178718  3.34909086848685  0.49045150395040
 1  18.09815963276328  3.32631614011401 -0.93190757865787
 1  16.37369450625063  4.66561384028403 -2.99715399429943
 1  18.07261965186519  4.41376776997700 -3.11302873647365
 1  16.99434411971197  3.03979889108911 -3.39475002820282
 1  18.33513138713871  5.48961961496150  0.11846101180118
 1  18.49866747754776  5.61368759525953 -1.71148328942894
 1  16.86559912971297  5.99962437253725 -0.79634798689869
 1 -4.77388527312731 -7.88263936333633 -0.16191050705071
 1 -6.37615810711071 -6.70237961936194  0.78504834813481
 1 -4.45208742614261 -6.82088196439644  1.46134900330033
 8 -7.85556845214521  6.80207023842384 -0.38853228162816
 1 -9.20204358815882  6.42342975867587 -1.95079354685469

