%nproc=3
%Mem=2GB
# td=(NStates=1) iop(3/107=0140000000,3/108=0140000000) iop(3/107=0140000000,3/108=0140000000) CAM-B3LYP/6-31G(d,p) 

TD

0 1
12 -5.71311704290429  1.21019104680468  0.20061273007301
 6 -5.12995311711171 -2.05407937263726 -0.36821988708871
 6 -3.31516297619762  1.08912145364536  2.71092253045305
 6 -6.15639206150615  4.57492551565157  0.68543090429043
 6 -8.00929184718472  1.25750443284328 -2.35215930983098
 7 -4.35779286378638 -0.29784570767077  1.03429359635964
 6 -4.23373859425943 -1.60823200460046  0.58829254775478
 6 -3.24510591229123 -2.30354155275528  1.51285687428743
 6 -2.89410356575658 -1.34498516821682  2.64703148974897
 6 -3.47202400240024 -0.08793794639464  2.12155281388139
 6 -3.30065217321732 -1.86408310091009  4.00277813721372
 6 -1.99051389468947 -2.75595958915892  0.65505969206921
 6 -0.99839760266027 -3.64062915081508  1.46245012191219
 6  0.26133200060006 -3.89106397849785  0.54004216531653
 8  0.41380523442344 -3.45298498729873 -0.57300731613161
 8  1.09637131933193 -4.71789693449345  1.20575656415642
 7 -4.95930448144814  2.50543077977798  1.50897758435844
 6 -3.97494158135814  2.37925594159416  2.45602082788279
 6 -3.71798233543354  3.72234231673167  3.16766571097110
 6 -4.49056481218122  4.57313577907791  2.49129501370137
 6 -5.29941930433043  3.85102977947795  1.53295844774477
 6 -2.72937156205621  3.93418050175017  4.27075094559456
 6 -4.51364406440644  5.97183721792179  2.67060249704970
 8 -4.04718720602060  6.64854968516852  3.67035100760076
 7 -6.98057970757076  2.66887481998200 -0.64703737143714
 6 -7.05037723552355  4.01984238973897 -0.24913311641164
 6 -8.00698583878388  4.60406146294629 -1.16770958005801
 6 -8.46745977877788  3.72674180428043 -2.06424097649765
 6 -7.72267607910791  2.46094426852685 -1.74362813261326
 6 -8.30675295399540  6.05788715841584 -1.15434656925693
 6 -9.46954343274327  3.86970790909091 -3.12157470607061
 6 -8.76778575927593  3.91588295139514 -4.54957820452045
 7 -6.44131989928993 -0.13150833103310 -1.12318333873387
 6 -7.42640624732473  0.04511360576058 -2.04022994559456
 6 -7.65026814341434 -1.33362851555156 -2.67252027662766
 6 -6.78042352605261 -2.23507728102810 -1.97714692459246
 6 -6.06826474997500 -1.45849987948795 -1.05934379907991
 6 -8.51644701940194 -1.70644043264326 -3.92180309970997
 6 -6.36312994009401 -3.63843294929493 -1.92163755765577
 8 -6.73884712531253 -4.54970994109411 -2.50535078077808
 6 -5.13168342184218 -3.55798756545655 -0.83224984578458
 6 -5.23107023462346 -4.58848405000500  0.18382553355336
 8 -5.78572275487549 -4.46532246564656  1.30800792109211
 8 -4.98202816601660 -5.79655353945395 -0.33804797619762
 6 -5.44192754195420 -6.95778937003700  0.46192372717272
 6  2.31888857045705 -5.12159842004200  0.46589457075708
 6  3.54028733883388 -4.09537103640364  0.90758204400440
 6  4.13903300700070 -3.28467828872887  0.02627500250025
 6  3.77111200850085 -3.16870005840584 -1.41740940974097
 6  5.16041024702470 -2.39843411161116  0.70000185108511
 6  6.62109771447145 -2.74364931793179  0.14010433633363
 6  7.62649177587759 -1.67352899869987  0.56630046464646
 6  8.99097770627063 -1.94721070307031 -0.06502321552155
 6  9.58026510661066 -3.33528343084308  0.21102422742274
 6  10.04828026362636 -0.88529915081508  0.43557152055206
 6  11.37776093339334 -0.82139493459346 -0.26454176477648
 6  12.21102872347235  0.36141533203320  0.11510229842984
 6  13.56870626472647  0.48034772167217 -0.54754451165116
 6  14.58060623362336 -0.72882361236124 -0.24596128132813
 6  14.23302324052405  1.82252702490249 -0.18545618801880
 6  15.55451473237324  2.17576951225123 -0.94045115281528
 6  16.05393501320132  3.47022953295330 -0.66521761476148
 6  17.32618701340134  3.88602751825183 -1.31363241104110
 6  17.26760574267427  4.03815937863786 -2.83740606060606
 6  17.86294971417142  5.18666679267927 -0.71194215121512
 1 -2.56994250015002  1.28047491109111  3.54567217841784
 1 -6.32993387628763  5.61351755395540  0.83206296899690
 1 -8.79240443954395  1.26136039753975 -3.18898427932793
 1 -3.83160022522252 -3.12429554625463  1.93184892699270
 1 -1.69813089908991 -1.24710231843184  2.67891005700570
 1 -2.60592991819182 -2.77710429132913  4.21019096499650
 1 -3.27347394749475 -1.16816893459346  4.87002313821382
 1 -4.29719139493949 -2.17072499049905  3.77840106270627
 1 -2.12999016461646 -3.32171521652165 -0.16781451605160
 1 -1.55993669336934 -1.87211583898390  0.27389823112311
 1 -0.64396878697870 -3.16746671897190  2.50517505860586
 1 -1.52655213381338 -4.68731556785678  1.67710674737474
 1 -1.64592324442444  3.60026471317132  4.04422680378038
 1 -2.86886454045404  5.09858949804980  4.22767843074308
 1 -2.75339527202720  3.31114430853085  5.19983696049605
 1 -4.90465432473247  6.71581956445644  1.92017413321332
 1 -10.12960694319432  3.04578173007301 -3.12333348794879
 1 -9.92611009390939  4.61987952245225 -2.96777977057706
 1 -9.37741350225023  4.17351525152515 -5.48253456405641
 1 -8.14920888688869  4.75388732933293 -4.66908659045905
 1 -8.05795607050705  2.99759407330733 -4.65974008870887
 1 -8.45561214281428 -1.13122638033803 -4.85926589558956
 1 -8.27479710761076 -2.81443850415042 -4.06333567746775
 1 -9.67723097219722 -1.86132276687669 -3.42474675977598
 1 -4.14635641164117 -3.67255307830783 -1.24988991909191
 1  2.33197114091409 -6.19583687678768  0.93258164606461
 1  2.25161848844885 -4.92444097049705 -0.54315975107511
 1  3.89464544694469 -3.87027715001500  1.89473783788379
 1  2.75956340824082 -3.57749930483048 -1.42261491159116
 1  3.66502384038404 -2.02621732233223 -1.62974119161916
 1  4.49925243264326 -3.83790564686469 -2.34584604190419
 1  4.92939680868087 -1.33759930453045  0.35505589668967
 1  5.33962632103210 -2.51614593179318  1.76540042634263
 1  6.63680290029003 -3.68112241174117  0.53947326902690
 1  6.59394823432343 -2.78607082308231 -0.96318600480048
 1  7.40112091369137 -0.73311986628663  0.38901765506551
 1  7.67828673887389 -1.68236648514851  1.69256672907291
 1  8.81100700030003 -1.79783782448245 -1.22694091279128
 1  8.84479664506451 -4.15999485938594  0.14113164296430
 1  10.54941797119712 -3.51646500120012 -0.25815339723972
 1  9.65343209080908 -3.46974270287029  1.27105806880688
 1  9.44477553845384  0.08048645904590  0.09560873527353
 1  10.09275823442344 -1.07971629092909  1.46086702400240
 1  11.97633956505651 -1.66035335703570 -0.15550485828583
 1  11.05732167236724 -0.50903253875387 -1.35396624032403
 1  11.77169718781878  1.25909898169817 -0.04781199159916
 1  12.43885464416442  0.23068435173517  1.39796897199720
 1  13.16364710701070  0.31378612141214 -1.53709991479148
 1  14.97476770397040 -0.72888590589059  0.91640673817382
 1  13.99546993349335 -1.67072025092509 -0.34482073617362
 1  15.53665352185218 -0.69026235393539 -0.78983138613861
 1  13.66005525112511  2.65490378957896 -0.49138901620162
 1  14.44742235443544  1.63031944644464  0.87780660796080
 1  16.19137786488649  1.51926738823882 -0.53820163516352
 1  15.37487228272827  2.04989324072407 -1.95775930683068
 1  15.36746820892089  4.32788599629963 -0.81429270927093
 1  16.26980661456145  3.53512947234724  0.50124258305831
 1  18.08379819661966  3.14595810431043 -1.05365975387539
 1  16.59165630243024  4.61245852475248 -3.24779905880588
 1  18.20702309220922  4.31894828802880 -3.15268270187019
 1  16.91647633293329  3.05610052125212 -3.47144769796980
 1  18.10474834883488  5.16478713171317  0.33045221092109
 1  18.67788539933994  5.51769799629963 -1.15244738583858
 1  16.89611218101810  5.90243465356536 -0.64174252635264
 1 -5.44428231283128 -7.76503760316032 -0.24611892789279
 1 -6.44663515481548 -6.78515789718972  0.69934977827783
 1 -4.81278349574958 -6.78467834403440  1.26254912331233
 8 -7.71726462176218  6.78390842224222 -0.38512194059406
 1 -9.06271965576558  6.49300671637164 -1.87475594309431

