%nproc=3
%Mem=2GB
# td=(NStates=1) iop(3/107=0140000000,3/108=0140000000) iop(3/107=0140000000,3/108=0140000000) CAM-B3LYP/6-31G(d,p) 

TD

0 1
12 -5.64291002220222  1.22215224292429  0.09347201600160
 6 -5.05777589938994 -2.14781874657466 -0.26455952105211
 6 -3.40241170107011  1.14723726522652  2.75216665486549
 6 -6.12692911521152  4.55880390349035  0.64255661686169
 6 -7.97768868686869  1.15553423582358 -2.34463855775578
 7 -4.43207029152915 -0.25350127322732  1.07475764276428
 6 -4.31575679607961 -1.64406558795880  0.76209992849285
 6 -3.13270467216722 -2.33580477907791  1.49473506210621
 6 -2.94780893629363 -1.33819448914891  2.56324311091109
 6 -3.50746754675467 -0.04647379998000  2.09489014761476
 6 -3.63471557955796 -1.83077977057706  3.91507936733673
 6 -1.88491333463346 -2.67201119431943  0.68094228032803
 6 -0.97886564946495 -3.60756584448445  1.47646152305231
 6  0.20482635003500 -3.94071894399440  0.62558071917192
 8  0.41549540344034 -3.48080776957696 -0.50623063846385
 8  1.06370805300530 -4.90683582838284  1.13892988148815
 7 -4.78612716371637  2.70357059375938  1.42544923152315
 6 -3.82562664986499  2.45067308330833  2.38542376817682
 6 -3.62024256145615  3.64180426292629  3.04644358875888
 6 -4.48981473717372  4.65689415491549  2.58362424662466
 6 -5.12604196659666  4.00129480598060  1.45652080398040
 6 -2.66999562446245  3.67300438413841  4.31076494699470
 6 -4.52829552955296  6.12485251945195  2.82863830063006
 8 -3.82192467976798  6.57698252845285  3.75676964946495
 7 -6.79250089968997  2.60619855235524 -0.76297896559656
 6 -6.91409360716072  3.91658206370637 -0.37718592169217
 6 -7.96503164336434  4.59728078487849 -1.14481729082908
 6 -8.52201523432343  3.59691882198220 -1.96027057945795
 6 -7.79077288878888  2.39365753985399 -1.66825059485949
 6 -8.47463974267427  6.02051342104210 -1.11207234183418
 6 -9.51523800220022  3.84236517481748 -3.10107265586559
 6 -8.78070705140514  3.96257762086209 -4.46912015871587
 7 -6.33820958825883 -0.06763194339434 -1.15554657505751
 6 -7.33146675337534  0.00698979337934 -2.18434435703570
 6 -7.47214033063306 -1.36626177887789 -2.77228025262526
 6 -6.60012549624963 -2.21303507680768 -2.07986719661966
 6 -5.95713363686369 -1.37504153365337 -1.12061992669267
 6 -8.45202057675768 -1.72268205680568 -3.73175409480948
 6 -6.07307093419342 -3.52570167616762 -1.93362875677568
 8 -6.50364360496050 -4.59381435153515 -2.51114135983598
 6 -5.01953220672067 -3.53114488118812 -0.85960258105811
 6 -5.33445057265727 -4.58115331693169  0.22147929892989
 8 -6.01416559915992 -4.38624455785579  1.31541866216622
 8 -4.98093805700570 -5.80023390749075 -0.28274244564456
 6 -5.41866521572157 -6.93835742684268  0.49815735053505
 6  2.31636831843184 -5.12318857905791  0.48456643794379
 6  3.31936524662466 -4.03332483178318  0.82292357815782
 6  3.97398650235024 -3.15859568046805  0.03209558455846
 6  3.71867676497650 -3.03397658605861 -1.46717438623862
 6  5.05682988898890 -2.26080034823482  0.68453030393039
 6  6.51028663336334 -2.69940489348935  0.09434976087609
 6  7.65439456615662 -1.85441708750875  0.71153498809881
 6  9.07002561106111 -2.10507648964896 -0.12646936013601
 6  9.51959904000400 -3.46915681818182  0.08629175417542
 6  9.96218165376538 -1.01393201410141  0.41966993039304
 6  11.35525868316832 -0.86415921102110 -0.20448575917592
 6  12.23101072167217  0.24642383288329  0.41210199839984
 6  13.58697809190919  0.38716840374037 -0.42604236143614
 6  14.53258143114311 -0.65227595759576 -0.16710339553955
 6  14.23151308950895  1.83548832103210 -0.08522616501650
 6  15.40441972287229  2.10055199049905 -0.94520162786279
 6  15.99954957465746  3.55969847984798 -0.61954304730473
 6  17.24197859255926  3.90538945444544 -1.40830187798780
 6  17.02061104320432  4.03234879757976 -2.86985930593059
 6  17.68792221142114  5.42764089008901 -0.99786074307431
 1 -2.59281478737874  1.15241210481048  3.54373198439844
 1 -6.36709759265927  5.62038824102410  0.59025878857886
 1 -8.59931513061306  1.14503876537654 -3.19742512341234
 1 -3.60211727692769 -3.16556967366737  1.78700444254425
 1 -1.90357144314431 -1.08497610581058  2.73680584658466
 1 -3.31230055525553 -2.72508908980898  4.00593053895390
 1 -3.17665426552655 -1.11602372007201  4.51537767366737
 1 -4.64656633243324 -1.72475039303930  3.69430265286529
 1 -2.49152631823182 -3.05216826182618 -0.25616335093509
 1 -1.49544024372437 -1.67257588498850  0.43034387568757
 1 -0.65423981408141 -3.05575554785479  2.23774831593159
 1 -1.46412589118912 -4.53568040434043  1.78182721942194
 1 -1.59538819091909  3.50434512121212  3.86125850695070
 1 -2.51745939993999  4.80031967106711  4.51903756665667
 1 -2.88197813031303  3.22266546064606  5.10229720652065
 1 -5.30419427872787  6.65408339083908  2.27092920872087
 1 -10.22380636313631  3.06126327822782 -3.28120927552755
 1 -10.06644412731273  4.79706724122412 -2.72245523812381
 1 -9.62715847674767  4.00905880588059 -5.09921623222322
 1 -8.06205017101710  4.76794873547355 -4.41003068486849
 1 -8.18125840074007  3.04638895279528 -4.68396251095109
 1 -8.51597817941794 -0.90605386308631 -4.74338430743074
 1 -8.25726535443544 -2.67692475277528 -4.28680802470247
 1 -9.51336458555856 -1.44868150275027 -3.34085837093709
 1 -4.00866264226423 -3.84972079507951 -1.08855378547855
 1  2.67110505430543 -6.01936923002300  0.76164455235524
 1  2.04739806640664 -5.08145667206721 -0.57971340644064
 1  3.40496647904790 -3.88633875617562  1.92909127322732
 1  2.62465991789179 -3.10725228012801 -1.52360501060106
 1  4.22339967796780 -1.97474217481748 -1.73400161766177
 1  4.30210271767177 -3.59077093339334 -1.94828628592859
 1  4.91781565056506 -1.35069061366137  0.23119351045105
 1  5.19877223562356 -2.35961027822782  1.72439632593259
 1  6.64805402540254 -3.73647794729473  0.45263458515852
 1  6.44417325682568 -2.58655087108711 -0.82676236243624
 1  7.42793359495950 -0.77432398669867  0.41969072237224
 1  7.70916982718272 -2.27571582008201  1.73678115051505
 1  8.78348424802480 -1.91555959665967 -1.26423464216422
 1  8.56233839923993 -4.20786964686469 -0.21283375357536
 1  10.40508353775377 -3.70295365006501 -0.44980256215621
 1  9.70322707030703 -3.74984071267127  1.18440940394039
 1  9.46165722662266 -0.08549013861386  0.32517169156916
 1  10.14267322592259 -1.04356267556756  1.59236017331733
 1  11.95770770187019 -1.62365968766877  0.01356204840484
 1  11.28336427662766 -0.73763539903990 -1.25645648934894
 1  11.54544456255625  1.24955802760276  0.42517530713071
 1  12.46637739643965 -0.26917563426343  1.52973214831483
 1  13.13697443974397  0.38988373117312 -1.42936914171417
 1  14.75304553175318 -0.77955097239724  0.96844194169417
 1  14.39558994549455 -1.74636781568157 -0.50721697579758
 1  15.59872972947295 -0.35578890659066 -0.59316171917192
 1  13.40023926952695  2.44844314351435 -0.18917879517952
 1  14.44557216941694  1.80170658515852  0.94663349064906
 1  16.14656338343834  1.40589605110511 -0.77816563156316
 1  15.10519531503150  2.31376962836284 -2.01347487838784
 1  15.25974743684368  4.24651785948595 -0.85592687268727
 1  16.07209684358436  3.72821878127813  0.40063252205220
 1  17.96688650545055  3.19779328782878 -1.13517790569057
 1  16.21765890269027  4.67573485238524 -3.29941422032203
 1  17.94652704260426  4.66525291849185 -3.46684411801180
 1  16.74584927022702  3.07922283348335 -3.47454800800080
 1  17.98794666866686  5.37459811281128  0.06217538323832
 1  18.53969157995800  5.85299152565257 -1.48092023312331
 1  16.86291886168617  6.02007641774177 -1.04337268936894
 1 -5.55126301090109 -7.63270436983698 -0.10410472647265
 1 -6.31813230453045 -6.86372575397540  1.12969281258126
 1 -4.60666288368837 -7.13820369656966  1.40445331373137
 8 -7.86109900520052  6.82411244264426 -0.38460188858886
 1 -9.32976636043604  6.23065048074807 -1.67967643514351

