%nproc=3
%Mem=2GB
# td=(NStates=1) iop(3/107=0140000000,3/108=0140000000) iop(3/107=0140000000,3/108=0140000000) CAM-B3LYP/6-31G(d,p) 

TD

0 1
12 -5.56922265346535  1.30644067176718  0.18365103390339
 6 -5.01746186798680 -2.05901986668667 -0.41436450155015
 6 -3.32658411831183  1.21549409090909  2.72718415661566
 6 -6.32189861216122  4.47280530363036  0.71558391959196
 6 -7.98138905690569  1.17192587498750 -2.40631472537254
 7 -4.33273035753575 -0.25774169726973  0.97520768776878
 6 -4.20241546194619 -1.60792197359736  0.66457017551755
 6 -3.23263466516652 -2.29079027762776  1.52145773437344
 6 -2.95367952335233 -1.34504517421742  2.66898368496850
 6 -3.55471227122712 -0.00902005460546  2.12582324092409
 6 -3.41856396439644 -1.89415610821082  4.00579843924392
 6 -2.03244808810881 -2.74852884608461  0.68842302840284
 6 -0.97881564446445 -3.50312540044004  1.48566244314431
 6  0.33481934933493 -3.80969584168417  0.69484764586459
 8  0.50538439233923 -3.37704739353935 -0.40511052645265
 8  1.16516819901990 -4.63485863066307  1.33672966146615
 7 -4.84596314731473  2.65767600430043  1.45723240984098
 6 -3.95406949414941  2.42337035303530  2.51335656145615
 6 -3.65899643684368  3.70805088758876  3.06081502590259
 6 -4.56726248194819  4.52297076257626  2.59621550575058
 6 -5.24828419081908  3.94886956345635  1.49681483338334
 6 -2.78536716161616  3.82158924262426  4.25346921742174
 6 -4.68136083608361  6.00063009720972  2.91649708650865
 8 -4.02847533483348  6.57271210141014  3.82628660116012
 7 -6.88390003960396  2.60736866936694 -0.69245191289129
 6 -7.05613781158116  3.91753215871587 -0.36243444654465
 6 -7.96738187838784  4.47539859665967 -1.24237704680468
 6 -8.47700073287329  3.59678880898090 -2.13605815821582
 6 -7.70318412991299  2.31219939403940 -1.76756052585259
 6 -8.41347362606261  5.91095246494649 -1.18835997059706
 6 -9.45084156255626  3.71130206850685 -3.17347989658966
 6 -8.87315629632963  3.99668103120312 -4.52358560526053
 7 -6.34387015431543 -0.09207438763876 -1.17071809220922
 6 -7.36398000470047 -0.05853675927593 -1.99351527412741
 6 -7.55501861846185 -1.28696384908491 -2.70435345994600
 6 -6.69386487018702 -2.21275504880488 -2.08056726662666
 6 -5.94302222572257 -1.36662069156916 -1.13415127982798
 6 -8.61763713841384 -1.55773556215622 -3.73967488688869
 6 -6.23895752285229 -3.52074118011801 -1.97949334323432
 8 -6.69574281488149 -4.55403037313731 -2.41389163486349
 6 -5.00813106660666 -3.52586435313531 -0.91439806060606
 6 -5.38077520512051 -4.67005220682068  0.17432458345835
 8 -5.87283146574657 -4.49755568896890  1.24497161746175
 8 -5.01744170737074 -5.84436832093209 -0.42528670007001
 6 -5.57382073127313 -6.96642023312331  0.20702823762376
 6  2.49481616321632 -4.92284854505450  0.68200618191819
 6  3.52859616971697 -4.00884238353835  1.02424371017102
 6  3.96603570727073 -3.10127994889489  0.10071244624462
 6  3.59889478677868 -2.90464365276528 -1.25751342014201
 6  5.15963016901690 -2.28795306350635  0.62278412931293
 6  6.52855846054605 -2.61227618061806  0.02988331423142
 6  7.65435456215622 -1.84485613141314  0.62795663026303
 6  8.97902651115112 -1.91915789778978 -0.12508922212221
 6  9.55778285838584 -3.27327723022302  0.02627575257526
 6  9.96473190879088 -0.89305992689269  0.42914087748775
 6  11.36569972727273 -0.84786758185819 -0.38788409900990
 6  12.36298391899190  0.24281347184718  0.09350013821382
 6  13.66896629072907  0.23610329722972 -0.57020677787779
 6  14.64174234723472 -0.88074880488049 -0.21039772497250
 6  14.26881681988199  1.66248102030203 -0.25764340674067
 6  15.53258253915392  2.04132606790679 -1.05554266196620
 6  16.12616223592359  3.38050056005601 -0.60916200920092
 6  17.34008840354035  3.90240915641564 -1.29030007780778
 6  17.21915089718972  4.13560912361236 -2.87251957195720
 6  17.86604002320232  5.18850697669767 -0.65406636363636
 1 -2.69933543944394  0.95118198179818  3.56375398659866
 1 -6.42649353225323  5.51168737093709  0.84786454915492
 1 -8.73480867996800  1.24801906340634 -3.12461784268427
 1 -3.82684975017502 -3.23849696639664  1.93704944704470
 1 -1.87170825682568 -1.09305691389139  2.81975414141414
 1 -2.74877420262026 -2.74365094599460  4.33596354225423
 1 -3.07983458355836 -1.19297141484148  4.74256039193919
 1 -4.48198987478748 -1.86928484648465  4.06974019661966
 1 -2.42435960156016 -3.46797984298430  0.06147841324132
 1 -1.61071177087709 -1.74789341674167  0.18798964026403
 1 -0.51729611971197 -2.95856582888289  2.21794633573357
 1 -1.23122260086009 -4.55190202650265  1.91349038573857
 1 -1.73601225332533  3.52897758445845  4.02243462456246
 1 -2.87447510151015  4.69249888898890  4.69900556345635
 1 -3.05798573107311  3.14066726082608  5.03526050285028
 1 -5.54630849014902  6.43148113061306  2.36191830763076
 1 -10.09822380488049  2.75454260616062 -3.13221437603760
 1 -10.32073955685569  4.43465099959996 -3.06047904050405
 1 -9.90483624452445  4.08439633963396 -5.17810412101210
 1 -8.21265523152315  4.77915985658566 -4.44905458725873
 1 -8.49805007990799  3.08357267116712 -4.95732984768477
 1 -8.16610319191919 -0.96555981368137 -4.61872184118412
 1 -8.73119274717472 -2.56297335763576 -4.07858720262026
 1 -9.71777502660266 -1.14475110971097 -3.48575286038604
 1 -4.00431220722072 -3.63481930493049 -1.19676460656066
 1  2.73826176997700 -5.89199649274927  1.06231461936194
 1  2.24669799639964 -4.96052457885789 -0.33399883498350
 1  3.56622260466047 -3.92160228252825  2.07894625872587
 1  2.60446789868987 -3.30918247314731 -1.35619826992699
 1  3.68581591959196 -1.79606430703070 -1.56890510801080
 1  4.13385589298930 -3.59476133243324 -2.01550300760076
 1  4.96150001900190 -1.26036158075808  0.42780317141714
 1  5.27209956835684 -2.37417173437344  1.77554144044404
 1  6.64192341234123 -3.79761406090609  0.18398772047205
 1  6.53589242874287 -2.59372158815882 -0.96401608780878
 1  7.29967076867687 -0.79817637193719  0.63125187848785
 1  7.83479238943894 -2.14911315981598  1.78162563496350
 1  8.89344524412441 -1.70092813351335 -1.12444066276628
 1  8.87700986638664 -4.18544740464046 -0.19733220342034
 1  10.53902693209321 -3.49558291299130 -0.29412699459946
 1  9.74556130373037 -3.38932466106611  1.15288625162516
 1  9.74551561246125  0.14121253165317  0.26195536993699
 1  10.15328428702870 -1.17020533983398  1.53426436373637
 1  11.81761369246925 -1.93228054975498 -0.32062136993699
 1  10.99479541974197 -0.71377301280128 -1.38497934163416
 1  11.69969998809881  1.23495656745675 -0.00147735813581
 1  12.47688844754476  0.13965524882488  1.26535571067107
 1  13.50344108640864  0.42427717051705 -1.73430963576358
 1  14.80495072227223 -0.71593461076108  0.81613671117112
 1  14.39378976547655 -2.04515769466947 -0.30618687278728
 1  15.35741559805981 -0.74902823052305 -0.76929933293329
 1  13.61323056865687  2.40914921412141 -0.52399227652765
 1  14.65291290349035  1.84126054055406  0.76507533483348
 1  16.20192891999200  1.22408787028703 -0.82774058905891
 1  15.34787958345835  2.05461371277128 -2.15748927982798
 1  15.17445890799080  3.96997020472047 -0.96738801880188
 1  16.07229686358636  3.43032899229923  0.47894035283528
 1  18.09767958475848  3.06976048454845 -1.10953534143414
 1  16.71035817261726  4.95987326622662 -3.18136241514151
 1  18.07468985888589  4.32193858705871 -3.49055648924892
 1  16.60739542484248  3.24525943714371 -3.31417197039704
 1  17.96109398339834  5.09216986998700  0.42742190789079
 1  18.87642525332533  5.47370359685969 -1.00671281238124
 1  17.03387595739574  6.09107351745175 -0.77648600070007
 1 -5.16920480508051 -8.14667576697670 -0.36293060906091
 1 -6.57036752805281 -7.03140252165217  0.59791963526353
 1 -5.01480369776978 -7.10100997719772  1.15996886528653
 8 -7.91414430973097  6.72012204360436 -0.44041747014701
 1 -9.46394977877788  6.22094951065106 -1.93177164466447

