%nproc=3
%Mem=2GB
# td=(NStates=1) iop(3/107=0140000000,3/108=0140000000) iop(3/107=0140000000,3/108=0140000000) CAM-B3LYP/6-31G(d,p) 

TD

0 1
12 -5.60672640384038  1.34316434413441  0.21627429622962
 6 -5.01318143994399 -2.18643260796080 -0.33977704280428
 6 -3.33212467236724  1.15900844234423  2.75073651185118
 6 -6.14109053135314  4.57091511461146  0.57983034423442
 6 -7.91139205720572  1.15451413381338 -2.42944703860386
 7 -4.31346843134313 -0.22577850095010  0.96083625062506
 6 -4.30847606800680 -1.50281146254625  0.63758747724772
 6 -3.16830823252325 -2.34062526112611  1.40519610821082
 6 -2.80371452685268 -1.33393406310631  2.64096088268827
 6 -3.58163496349635 -0.09825897849785  2.07083774237424
 6 -3.49414152215222 -1.85251194379438  3.83848170757076
 6 -1.90638548184818 -2.66870086328633  0.61784597069707
 6 -1.02699046194619 -3.59161424932493  1.39522339923992
 6  0.22493836123612 -3.93081795389539  0.62689085018502
 8  0.43814766866687 -3.50214990379038 -0.50469048444844
 8  1.07977966016602 -4.74767991279128  1.35475146364636
 7 -4.85405395639564  2.68427866456646  1.46289297589759
 6 -3.93125721292129  2.52017003300330  2.46046127192719
 6 -3.74851538873887  3.71148123062306  3.20157910231023
 6 -4.55995175087509  4.61115958145815  2.55745162936294
 6 -5.24312367476748  3.96640131663166  1.50248540044004
 6 -2.78003662856286  3.85587267096710  4.38772264276428
 6 -4.71092379237924  6.06155618981898  2.97077251405141
 8 -4.17239972727273  6.67201203140314  3.85754972747275
 7 -6.79378102770277  2.65651358385839 -0.75606827452745
 6 -6.93064526232623  3.95447585308531 -0.39653785688569
 6 -7.97682282248225  4.57139819661966 -1.16642945204520
 6 -8.46457949074907  3.61631076117612 -2.04606915931593
 6 -7.76153996549655  2.41806998109811 -1.76271004080408
 6 -8.27240951965197  6.00763213291329 -1.09508064266427
 6 -9.58947542594260  3.80193113141314 -3.13945649424942
 6 -8.97304628532853  3.88144950805080 -4.54737798449845
 7 -6.36992275957596 -0.15476065626563 -1.08004902530253
 6 -7.25934954165417  0.01743083748375 -2.01418734133413
 6 -7.58086120272027 -1.29288444114411 -2.80766379097910
 6 -6.70781626532653 -2.22039581288129 -2.03309251915192
 6 -5.98994691819182 -1.42591662116212 -1.05162302700270
 6 -8.57749312401240 -1.65221501010101 -3.79410032943294
 6 -6.28296192329233 -3.50736984298430 -2.00371576547655
 8 -6.65739898049805 -4.51924689478948 -2.57688793449345
 6 -5.05119537303730 -3.61073283998400 -0.95465208600860
 6 -5.27546467406741 -4.66794199579958  0.08718586958696
 8 -5.73913809640964 -4.46427236063606  1.25130225052505
 8 -5.05958592179218 -5.91982586668667 -0.33569774117412
 6 -5.34168751795180 -6.89916350745074  0.65555309010901
 6  2.36407308890889 -5.06917317751775  0.71385936723672
 6  3.49694300440044 -4.17583908320832  1.02052333813381
 6  4.10684978867887 -3.33966378727873  0.15713808880888
 6  3.65570046734673 -3.16576976537654 -1.22482015081508
 6  5.18074228022802 -2.37849211741174  0.67704955585559
 6  6.60651625632563 -2.69142409540954 -0.06225589968997
 6  7.75830495719572 -1.82422406820682  0.47085091969197
 6  9.11571017951795 -2.03168915091509 -0.24050076327633
 6  9.65563264336433 -3.44286418891889  0.27475060006001
 6  10.05035047064707 -0.88347896879688  0.28699666306631
 6  11.39880303760376 -0.99447224232423 -0.33835914651465
 6  12.19568718931893  0.23754294479448  0.14104489268927
 6  13.60589998409841  0.48169785668567 -0.53728348554855
 6  14.57841601460146 -0.74181491149115 -0.47645433063306
 6  14.20674061226123  1.67881265346535 -0.04566220862086
 6  15.50525980688069  2.09779171447145 -0.84444155185519
 6  15.95725534523452  3.55238774877488 -0.64193528652865
 6  17.23287768246825  3.94321323682368 -1.33767481528153
 6  17.14021300340034  4.04167973067307 -2.81348366836684
 6  17.69706312551255  5.30829895589559 -0.71591254825483
 1 -2.99273477937794  1.30448731233123  3.65719333053305
 1 -6.28640952385238  5.80649685188519  0.78499826252625
 1 -8.84525972507251  1.16264052555256 -3.26914229512951
 1 -3.44788185338534 -3.43489660636064  1.63932967506751
 1 -1.68490957695770 -1.05441304950495  2.47809997599760
 1 -3.06964628982898 -2.83429000990099  4.29530947684769
 1 -3.50026662676268 -1.12526464416442  4.61419755565557
 1 -4.56016769256926 -1.95881379937994  3.46426964956496
 1 -2.32862002760276 -3.21715476047605 -0.31804953955396
 1 -1.40281098079808 -1.87234586198620  0.22193303460346
 1 -0.61412580268027 -3.05079505180518  2.41114565566557
 1 -1.59643912251225 -4.47548438473847  1.55063410011001
 1 -1.75191384348435  3.81039572627263  3.96809919101910
 1 -3.19444709870987  4.86243588268827  4.94947060996100
 1 -2.95323525602560  3.07005019911991  5.00271724852485
 1 -5.31388524782478  6.66465444794480  2.10636275207521
 1 -10.35784976747675  2.98779593149315 -2.85670682528253
 1 -10.26276375927593  4.68611614611461 -2.73728672127213
 1 -9.91070683158316  3.68259615961596 -5.13748005860586
 1 -8.66419038503850  4.99073101370137 -4.74694437623762
 1 -8.24325460036004  3.23286760066007 -4.53191730643064
 1 -8.44787136873687 -0.92278553625363 -4.59919988898890
 1 -8.47395702360236 -2.73573063336334 -4.08611795569557
 1 -9.65489873897390 -1.38181481608161 -3.65175946104610
 1 -4.23888566456646 -3.92421824482448 -1.62276720682068
 1  2.78814675847585 -6.01137843094309  1.11135952385239
 1  2.04854818141814 -5.07590611701170 -0.34367980308031
 1  3.82500848324832 -4.06867698999900  2.13835219931993
 1  2.64228168006801 -3.25870742564256 -1.51336398649865
 1  3.83621095909591 -2.24058875947595 -1.58057627512751
 1  4.26604911231123 -3.91434329062906 -1.88510996829683
 1  4.87086095509551 -1.26200174477448  0.54037442854285
 1  5.27107946634663 -2.43268758595860  1.75888977527753
 1  6.73892311231123 -3.80826512601260  0.01678099979998
 1  6.54708354785479 -2.42137435343534 -1.10769045524552
 1  7.34535533713371 -0.86507306160616  0.39727848114811
 1  7.71243015321532 -1.76305455395540  1.58026549894989
 1  8.85894179377938 -2.11286932763276 -1.29492771147115
 1  8.91354351975198 -4.22661152105211 -0.05596806700670
 1  10.55438846824682 -3.39803315801580 -0.17392497439744
 1  9.64695144274427 -3.40710643924392  1.30951191419142
 1  9.39743080398040 -0.00055164476448  0.05759493389339
 1  10.11285024362436 -0.83000131943194  1.34297523482348
 1  11.93894582568257 -1.78067538923892 -0.02979228702870
 1  11.49949588978898 -0.82007364286429 -1.31806264996500
 1  11.48008802690269  1.14598767056706 -0.11612882328233
 1  12.36677743644364  0.05940722402240  1.06126530163016
 1  13.38760950325032  0.54490923372337 -1.56669287408741
 1  15.31738196539654 -0.95561857915792  0.51465656315632
 1  14.00200058655866 -1.80607378627863 -0.42369862396240
 1  15.38078793529353 -0.75791911961196 -1.20532293529353
 1  13.58208745434543  2.29895819501950  0.18152827552755
 1  14.40826843904390  1.42092850735073  0.98605743304330
 1  16.30828955605561  1.34524998649865 -0.57576539153915
 1  15.40838563406341  2.08512676407641 -1.97331086198620
 1  14.90752221432143  4.17891109880988 -0.82694397439744
 1  16.13705333923392  3.76660261966197  0.46496895569557
 1  17.94558437523752  3.08371187968797 -1.21479586748675
 1  16.55024216101610  4.82821009990999 -2.90604488338834
 1  18.16264865476548  4.35804219741974 -3.25996342994299
 1  16.93293797909791  3.03502841404140 -3.30103065626563
 1  17.84074194819482  5.34139479247925  0.25890505620562
 1  18.75609322012201  5.57379360586059 -1.23305544664466
 1  17.01704427422742  6.16549095919592 -1.02422077417742
 1 -5.08870675527553 -7.88211931133113 -0.06887120312031
 1 -6.33506399769977 -6.87545692709271  0.95194503780378
 1 -4.75931814921492 -6.73999387558756  1.62745561396140
 8 -7.76845974127413  6.85398542994299 -0.46845027342734
 1 -9.16679006280628  6.24800221592159 -1.70593906140614

