%nproc=3
%Mem=2GB
# td=(NStates=1) iop(3/107=0140000000,3/108=0140000000) iop(3/107=0140000000,3/108=0140000000) CAM-B3LYP/6-31G(d,p) 

TD

0 1
12 -5.69721545274527  1.29034906260626  0.26527919671967
 6 -5.11773189498950 -2.19376334103410 -0.33295636073607
 6 -3.38753021292129  1.15607814931493  2.83999543774377
 6 -6.18012443474347  4.58457648074808  0.65438779998000
 6 -7.91563248124812  1.22465114751475 -2.43113720762076
 7 -4.38411549604960 -0.22221814491449  1.09646981398140
 6 -4.31640686108611 -1.56302748414841  0.78003172167217
 6 -3.24614601630163 -2.26115731433143  1.58773436203620
 6 -2.99122327772777 -1.30396106580658  2.68854564116412
 6 -3.59474627462746  0.01664251165116  2.14682534113411
 6 -3.68871097909791 -1.72920961356136  4.00241810121012
 6 -1.99998484178418 -2.64558855205521  0.66524071017102
 6 -1.04012177507751 -3.58708379627963  1.44648852575258
 6  0.21623749114911 -3.98611348344834  0.58252641374137
 8  0.44553840774077 -3.43296298509851 -0.40434044944494
 8  1.07953963616362 -4.73038818361836  1.25145113361336
 7 -4.95952450345034  2.61298153485349  1.51255794239424
 6 -4.08775286248625  2.35092310831083  2.59569479527953
 6 -3.77600813801380  3.59183926642664  3.22698164256426
 6 -4.53764952065207  4.62178064356436  2.58727461166117
 6 -5.29131849424942  3.92857753425343  1.52301745364536
 6 -2.86608523342334  3.66745382908291  4.38274214471447
 6 -4.60661336133613  6.01053108730873  2.97665310211021
 8 -3.91335382268227  6.59274410461046  3.79826379887989
 7 -6.82937458705871  2.66827475997600 -0.72280494819482
 6 -6.86929912771277  3.92057246274627 -0.36454465756576
 6 -7.79446458665867  4.66916797359736 -1.28862167126713
 6 -8.38123115591559  3.65452458255826 -2.10154470687069
 6 -7.67671148264827  2.45199337343734 -1.72559632943294
 6 -8.19722200090009  6.06679804950495 -1.25412654725473
 6 -9.29511598999900  3.85911684998500 -3.24100664926493
 6 -8.64541352205221  3.93555491859186 -4.65788903560356
 7 -6.43131889918992 -0.14426960716072 -1.10727174757476
 6 -7.35280888758876 -0.04969587518752 -2.11104702730273
 6 -7.62001511811181 -1.37404255695570 -2.69533255785579
 6 -6.74243972767277 -2.24117789108911 -2.08498770867087
 6 -6.06129405290529 -1.43470750025002 -1.11608947364736
 6 -8.43915929062906 -1.67669745834583 -3.90178109750975
 6 -6.17761138823882 -3.56954606060606 -2.05707110101010
 8 -6.62031527212721 -4.52824779487949 -2.69023926962696
 6 -5.11859211271127 -3.58308007470747 -0.83824044484448
 6 -5.46650377797780 -4.72746794839484  0.20641779277928
 8 -5.85112929552955 -4.43347928132813  1.23605072537254
 8 -4.93571353455346 -5.87223110721072 -0.26200037143714
 6 -5.30265361456146 -7.03985757685769  0.52279981478148
 6  2.33316999859986 -5.06480274047405  0.53080106140614
 6  3.47306061616162 -4.11491299059906  0.87548883468347
 6  4.03442254595460 -3.35243506440644  0.07236961196120
 6  3.72230712801280 -3.18565175357536 -1.39816748554855
 6  5.16561076707671 -2.45481975017502  0.61954380528053
 6  6.59057466216622 -2.79401435443544  0.06164649054905
 6  7.67610673737374 -1.77931957775778  0.69847368196820
 6  8.99530813931393 -1.93395937793779 -0.04134084728473
 6  9.67659473957396 -3.34253415591559  0.18876200120012
 6  9.87264269986999 -0.68595921682168  0.51329929332933
 6  11.27566072337234 -0.71121391649165 -0.25812112271227
 6  12.24296191679168  0.45856504700470  0.10419120732073
 6  13.54339373347335  0.51885157205721 -0.68568832603260
 6  14.46808498149815 -0.64530526052605 -0.46706339153915
 6  14.18716865506551  1.87386215841584 -0.41749939233923
 6  15.45799508040804  2.18303023832383 -1.14823193089309
 6  16.12194181388139  3.45286779677968 -0.66142723572357
 6  17.43125752045205  3.88311722722272 -1.31537258505851
 6  17.30785976807681  3.89021458415842 -2.77194951495149
 6  17.96383980318032  5.10007813381338 -0.71596255325533
 1 -2.81100660656065  1.18564542814281  3.77556516771677
 1 -6.55928681158116  5.79772597479748  0.81011077377738
 1 -8.85905110421042  1.10813507500750 -3.14095947684768
 1 -3.59035610081008 -3.25482859955996  2.04185992809281
 1 -1.93541462746275 -1.44223183138314  2.96782894889489
 1 -3.21914123932393 -2.74218079897990  4.41710165606561
 1 -3.41822842294229 -1.10976309400940  4.82933906980698
 1 -4.59062073787379 -1.84913283128313  3.81102432503250
 1 -2.24041120672067 -3.16172921792179 -0.19509724432443
 1 -1.44297499719972 -1.78447707510751  0.08386922822282
 1 -0.53297768786879 -3.16026599889989  2.49091363246325
 1 -1.80841031963196 -4.54032086838684  1.59779881658166
 1 -1.85164381648165  3.52955764246425  4.12562494359436
 1 -2.96829448344834  4.71668130723072  4.83169883278328
 1 -3.30976090859086  2.99419261336134  5.13736071287129
 1 -5.55724958425843  6.53668165066507  2.47111922772277
 1 -9.91181516401640  2.80764791669167 -3.17731888648865
 1 -9.87388487138714  4.80018755325533 -2.97632062466247
 1 -9.40225598649865  4.02824072407241 -5.43918022862286
 1 -8.06794076007601  4.71084302490249 -4.77037671947195
 1 -8.05475575047505  3.02710702460246 -4.97437155185519
 1 -8.13055963756376 -1.00950420812081 -4.84755472447245
 1 -8.34278390629063 -2.65390245054505 -4.34053339723972
 1 -9.59061231033103 -1.58195483008301 -3.66901118621862
 1 -4.09172094809481 -4.00496631963196 -1.31695662576258
 1  2.76125406920692 -5.91985927902790  1.00688907680768
 1  2.18137146374637 -5.12265079147915 -0.53783921902190
 1  3.60566654905491 -4.10321044334434  2.05869423352335
 1  2.57150460236024 -3.36235779067907 -1.45021767186719
 1  3.98882622062206 -2.11640634123412 -1.70053827132713
 1  4.25048755615562 -3.96393825012501 -1.90285174247425
 1  4.88687255625563 -1.50601614621462  0.32030242134213
 1  5.15377773617362 -2.55267958515852  1.76544043034303
 1  6.90842006200620 -3.68049234873487  0.09443876557656
 1  6.64314315381538 -2.71316353235324 -0.99610929712971
 1  7.17367816941694 -0.85783233753375  0.70775952925293
 1  7.74476338653865 -1.94687293579358  1.81568904130413
 1  8.84071997159716 -1.83917195789579 -1.02811102980298
 1  9.02321448684869 -4.09195805570557 -0.36201867206721
 1  10.50058308770877 -3.19456281098110 -0.40254783668367
 1  9.79606635423542 -3.49200492909291  1.21975293829383
 1  9.27903896479648  0.31458986938694  0.56173534793479
 1  10.13503246184619 -1.03952227152715  1.48524946224622
 1  11.78578050915091 -1.78222554425443 -0.09344865266527
 1  11.12710865106511 -0.82332396789679 -1.37355819951995
 1  11.80972099019902  1.32335540734073  0.02929571917192
 1  12.28577933663366  0.13849513281328  1.25888506360636
 1  13.38221896419642  0.60383512631263 -1.57426363116312
 1  14.75010523772377 -0.79342235953595  0.59945504300430
 1  13.90194058055806 -1.41703488238824 -0.90729698379838
 1  15.30196005250525 -0.54008733643364 -0.84008641164116
 1  13.36398564416442  2.67064536373637 -0.51761163846385
 1  14.65975358755876  2.07811422592259  0.67238606590659
 1  16.33596232333233  1.43609907140714 -0.92547036203620
 1  15.37552234773477  2.18464671607161 -2.29572310321032
 1  15.45714717681768  4.32185539323932 -0.82377365736574
 1  16.13207284118412  3.48222418181818  0.41049350815081
 1  18.28492830963096  3.21143465196520 -1.07763215111511
 1  16.67783492029203  5.05821310021002 -3.21508578747875
 1  18.42905529542954  4.11340773397340 -3.26859429302930
 1  16.81303598889889  3.10016492769277 -3.35765631883188
 1  17.83698157215721  5.19940059305931  0.40660982668267
 1  18.97602521332133  5.39247547404740 -1.03245538663866
 1  17.37457002680268  5.86963137323732 -1.06240459255926
 1 -4.67184506910691 -7.85638673807381  0.22049773377338
 1 -6.28732922422242 -7.32672205360536  0.54612445574557
 1 -4.96513873127313 -6.73546342254225  1.61376424482448
 8 -7.86541943724372  6.79051908330833 -0.38604203260326
 1 -9.02687607140714  6.38952636833683 -1.85696416391639

