%nproc=3
%Mem=2GB
# td=(NStates=1) iop(3/107=0140000000,3/108=0140000000) iop(3/107=0140000000,3/108=0140000000) CAM-B3LYP/6-31G(d,p) 

TD

0 1
12 -5.65029076027603  1.13320334803480  0.19798246704670
 6 -5.00779090089009 -2.12321628632863 -0.32884594969497
 6 -3.53538499839984  1.14943748524852  2.88707014521452
 6 -6.37510393269327  4.47920594369437  0.72638499969997
 6 -8.03849476747675  1.09999868226823 -2.45170926482648
 7 -4.32191927642764 -0.26997292039204  1.00817098409841
 6 -4.17865308570857 -1.62896407780778  0.62752647114711
 6 -3.21803320502050 -2.26222742134213  1.45720130873087
 6 -2.86922107750775 -1.30702137183718  2.56257304390439
 6 -3.52589938993899 -0.02302145474547  2.12124278287829
 6 -3.37376948494849 -1.68851554415442  3.96137399679968
 6 -1.98426326962696 -2.67499149234924  0.48852303840384
 6 -0.84603236613661 -3.38518360626063  1.36760063696370
 6  0.37621348874888 -3.74323919601960  0.57481564266427
 8  0.67566142004200 -3.24991468026803 -0.46649666506651
 8  1.07510919311931 -4.58200334513451  1.20153614211421
 7 -5.02178072907291  2.63500373707371  1.39381606820682
 6 -4.18070215741574  2.42723073907391  2.53358858465847
 6 -3.82204274147415  3.64756483898390  3.16541548594859
 6 -4.63624938063806  4.58684715021502  2.67084296849685
 6 -5.38677804020402  3.93023770027003  1.59102425432543
 6 -2.89937856275628  3.76341342504250  4.22119599009901
 6 -4.81590429042904  5.96018605280528  2.94938037483748
 8 -4.12606509380938  6.57076190639064  3.87058103060306
 7 -7.08400004960496  2.55833376587659 -0.65122779047905
 6 -7.13222542034203  3.83392379787979 -0.21957016011601
 6 -8.03179832003200  4.54321537833783 -1.17633044214421
 6 -8.57482051485148  3.64971410151015 -2.14539909230923
 6 -7.89493330483048  2.38612678677868 -1.74627839763976
 6 -8.36512879157916  5.98021939163916 -1.08957009160916
 6 -9.58456493489349  3.72020295859586 -3.24427697629763
 6 -8.97617659835984  3.98884024712471 -4.63768701540154
 7 -6.41507727502750 -0.09386456665667 -1.07661868226823
 6 -7.42177578427843 -0.05540644624462 -2.06453237583758
 6 -7.52444556115612 -1.31000615331533 -2.76695972057206
 6 -6.75675115881588 -2.12048582188219 -1.98264747464746
 6 -6.01849977347735 -1.36629065856586 -1.03886175087509
 6 -8.38311368606861 -1.75923571217122 -3.75294621402140
 6 -6.13831745884588 -3.54033313931393 -1.96602199609961
 8 -6.50261350195020 -4.45320029012901 -2.68272851855186
 6 -5.00562081558156 -3.51368313501350 -0.90944756555656
 6 -5.26482360996100 -4.60142534413441  0.15598274927493
 8 -5.72993717631763 -4.27737367076708  1.26346346664666
 8 -4.97026698989899 -5.81394527862786 -0.30479465086509
 6 -5.44366771597160 -6.86537012811281  0.47586512131213
 6  2.37381406300630 -4.99451571177118  0.62419040034003
 6  3.49001231133113 -4.10416191549155  1.00541182698270
 6  4.01792089578958 -3.20982080298030  0.13110548554855
 6  3.68747364466447 -3.02924611301130 -1.31130879967997
 6  5.06081028702870 -2.27856212441244  0.69265111601160
 6  6.55899150385038 -2.61295624862486  0.07426775267527
 6  7.68058718541854 -1.78439008480848  0.61955579017902
 6  9.12650125862586 -1.97175315731573  0.01684497129713
 6  9.66539361946195 -3.42399230173017  0.08366149114911
 6  10.08888432403240 -0.92064268516852  0.42111007440744
 6  11.43308646594659 -0.95062785788579 -0.17887319791979
 6  12.33550117071707  0.20521971247125  0.14903569176918
 6  13.68514790889089  0.33409309620962 -0.54189394659466
 6  14.52668084108411 -0.84985571557156 -0.37218390359036
 6  14.36935687388739  1.74460923312331 -0.11706934933493
 6  15.56052533343334  2.10326226152615 -1.01463857155716
 6  16.21192081178118  3.32138464846485 -0.65783687668767
 6  17.51189558425843  3.81474038953895 -1.44522557035704
 6  17.23340232233224  3.91414697739774 -2.85937825782578
 6  18.07312073127313  5.09410753675368 -0.79677063406341
 1 -2.84088959485949  1.22256912051205  3.58845645684568
 1 -6.73199408230823  5.45266146834684  0.77704746744675
 1 -8.50654585368537  1.13705796729673 -3.59134451535154
 1 -3.75052211741174 -3.23136625332533  1.97414315641564
 1 -1.96503758975898 -1.09242685088509  2.59542170817082
 1 -2.77025635083508 -2.67178375927593  4.24971491739174
 1 -3.12637923802380 -0.86662878057806  4.78645478137814
 1 -4.39188086388639 -1.81863978197820  4.01790501310131
 1 -2.44881204680468 -3.20188323332333 -0.24938267286729
 1 -1.67315801550155 -1.75826445384538 -0.03790294899490
 1 -0.59210360046005 -2.43865383768377  2.07437197829783
 1 -1.25438491709171 -4.32260909720972  2.01905094179418
 1 -1.91422007410741  3.38922360906091  3.77761014211421
 1 -2.81062871687169  4.87290692979298  4.58578424132413
 1 -3.40041997449745  2.99899309340934  4.91156813361336
 1 -5.59406326562656  6.51061904440444  2.33491560736074
 1 -10.35337932043204  2.97153430533053 -3.23659481408141
 1 -10.09146662956296  4.50361789628963 -3.05685867846785
 1 -9.75362112301230  4.03081098109811 -5.53044935553555
 1 -8.09179314531453  4.81417335793579 -4.37333701550155
 1 -8.56204647954796  3.20421473537354 -4.89559367406741
 1 -8.39266584818482 -1.10108336603660 -4.72106207520752
 1 -8.07088671657166 -2.71848890919092 -4.15154449834983
 1 -9.49281253035304 -1.93048968356836 -3.40241452655266
 1 -4.06070784678468 -3.63619944294429 -1.31129605970597
 1  2.49446739053905 -6.07378467156716  0.87017540544054
 1  2.18975230183018 -5.12241076747675 -0.35120055515552
 1  3.70974695709571 -4.04433455575557  2.01905026912691
 1  2.74736218811881 -3.29239079397940 -1.50049269936994
 1  3.87954529252925 -1.90699540014001 -1.81422964046405
 1  4.38951145854585 -3.74432628892889 -1.70461191849185
 1  4.79267313631363 -1.34199974457446  0.13580397149715
 1  5.05727808620862 -2.15896021322132  1.76383026932693
 1  6.60745996599660 -3.66075037453745  0.11663098479848
 1  6.60435927542754 -2.55780799679968 -0.98941862806281
 1  7.47846864846485 -0.79787634193419  0.64140289358936
 1  7.66294520472047 -1.92138038653865  1.73367083948395
 1  9.00020592019202 -1.86034407510751 -1.04662288098810
 1  9.05526769216922 -4.26879573947395 -0.35827829802980
 1  10.62301533093309 -3.42952630733073 -0.37091467336734
 1  9.76769351695170 -3.83644937353735  1.22364332733273
 1  9.60727178807881  0.00288869926993  0.36179535393539
 1  9.86380533913391 -0.94255257455746  1.53371430873087
 1  11.97028895999600 -1.93653097479748  0.09086977917792
 1  11.10644658485849 -0.94292592809281 -1.39262010571057
 1  11.72888290639064  1.17604067586759 -0.10700791119112
 1  12.68579933863386  0.37280856415642  1.24659383448345
 1  13.33950469276928  0.23750849364936 -1.56113231803180
 1  14.50836106330633 -0.87312032933293  0.75799089658966
 1  14.17484787128713 -1.68717189608961 -0.99378563266327
 1  15.56244610111011 -0.64688801650165 -0.75328773177318
 1  13.69140838643864  2.62403070227023  0.09898002070207
 1  14.92201981418142  1.50580699519952  0.74794362166217
 1  16.36841556865686  1.39771523302330 -0.91153896889689
 1  15.25136993249325  2.10746899829983 -1.94075760666067
 1  15.43939540164016  4.13009621732173 -0.69616089608961
 1  16.53325295919592  3.41408736813681  0.56784924372437
 1  18.27752756955696  3.15096860536054 -1.39218360626063
 1  16.66268340514051  4.58233551245125 -3.22570684958496
 1  18.14542693259326  4.35082147534753 -3.34829226282628
 1  17.12414710001000  2.94652956415642 -3.44184473767377
 1  18.42040991499150  4.95554620762076  0.27178634433443
 1  18.85489310011001  5.57134336083608 -1.41686382748275
 1  17.22490506030603  5.88365277537754 -0.79066741884188
 1 -5.06881476607661 -7.75101620102010 -0.08037235323532
 1 -6.44773526482648 -6.84966434783478  0.93591343464346
 1 -4.69977219461946 -6.91200107630763  1.23300616901690
 8 -7.92792568786879  6.86083611501150 -0.41247467586759
 1 -9.26513989778978  6.21626904260426 -1.78287675517552

