%nproc=3
%Mem=2GB
# td=(NStates=1) iop(3/107=0140000000,3/108=0140000000) iop(3/107=0140000000,3/108=0140000000) CAM-B3LYP/6-31G(d,p) 

TD

0 1
12 -5.59467519871987  1.26811683938394  0.19784245304530
 6 -5.08011813361336 -2.10179414411441 -0.44228729382938
 6 -3.23012447234724  1.21370391189119  2.62361379957996
 6 -6.31830825312531  4.49679770287029  0.63487584878488
 6 -8.00663158115812  1.18656733913391 -2.38792288618862
 7 -4.35514259875988 -0.26563248634864  0.93643381038104
 6 -4.24006922732273 -1.48224940634063  0.55242896139614
 6 -3.18311971367137 -2.31076227482748  1.40296588518852
 6 -2.87126128152815 -1.24144481418142  2.60620740734073
 6 -3.42340914091409 -0.05610476307631  2.02989364796480
 6 -3.41237334533453 -1.76699339193919  3.93173103250325
 6 -1.92994783808381 -2.65885987918792  0.55224941104110
 6 -1.03069083198320 -3.60334542244224  1.25225910281028
 6  0.26681254865487 -3.97546241834183  0.46446460756076
 8  0.50468432233223 -3.71460114891489 -0.68853886928693
 8  1.04408609080908 -4.79832497729773  1.19491548004800
 7 -4.83247179817982  2.64115435213521  1.45403208980898
 6 -3.98794288148815  2.48260627662766  2.39224445024502
 6 -3.70532106930693  3.69499958245825  3.18558750315031
 6 -4.48876463216322  4.64068253375337  2.62037792199220
 6 -5.27831719411941  3.98338301480148  1.56573172507251
 6 -2.72980160506051  3.76917400110011  4.24862873337334
 6 -4.67366006600660  6.00060009420942  2.97847328412841
 8 -3.96764925222522  6.58601343154315  3.77164113661366
 7 -6.93629527912791  2.59576750925092 -0.66078874657466
 6 -7.02208440624062  3.92385279077908 -0.36157436053605
 6 -8.05186032623262  4.62025308210821 -1.18152096119612
 6 -8.58702173497350  3.67686681678168 -2.01654620702070
 6 -7.90145395689569  2.38987716181618 -1.66379014881488
 6 -8.41562384108411  6.07589895959596 -1.17677881248125
 6 -9.45446192459246  3.80154109240924 -3.12772532113211
 6 -8.84975395609561  3.82716407950795 -4.46738998569857
 7 -6.50450621792179 -0.10486566676668 -1.01553257365737
 6 -7.46858046474647 -0.08948985458546 -2.06667258985899
 6 -7.67635075167517 -1.31181633433343 -2.70266329092909
 6 -6.84792027572757 -2.14033780708071 -2.08360757065707
 6 -6.00547847134713 -1.40024405390539 -1.16951481618162
 6 -8.67542291699170 -1.56558634723472 -3.64960587998800
 6 -6.36468009510951 -3.54989409540954 -1.93126852075208
 8 -6.62466570717072 -4.57401237133713 -2.53086333203320
 6 -4.95510576407641 -3.47531929862986 -1.01116773757376
 6 -5.16846397399740 -4.51659686128613  0.06394354535454
 8 -5.70117430003000 -4.39348528192819  1.15464258455846
 8 -4.92628259145915 -5.75880976507651 -0.37144131553155
 6 -5.32458580778078 -6.83382697379738  0.56015355015502
 6  2.32798948054805 -5.21342760296030  0.63448142944294
 6  3.41176448654865 -4.17333883318332  1.04796608240824
 6  4.07886699039904 -3.29342916381638  0.28496087108711
 6  3.76086098339834 -3.21395458385839 -1.17656532533253
 6  5.23582778877888 -2.52178644684468  0.77948979987999
 6  6.58828443314331 -2.72153710671067  0.07435776167617
 6  7.67394652135214 -1.87163880968097  0.65681951655166
 6  9.01564017251725 -1.94007998999900  0.11486477327733
 6  9.58552563266327 -3.30291019351935  0.30944406940694
 6  10.01560699629963 -0.76042666356636  0.44925288868887
 6  11.35165832313231 -0.78721151625163 -0.17988329892989
 6  12.24872249284929  0.33161235173517  0.32291307950795
 6  13.61125051915191  0.43077276417642 -0.48364812201220
 6  14.50192836583658 -0.76360709070907 -0.26419310451045
 6  14.33361329952995  1.80628540074007 -0.18337597999800
 6  15.42353163406341  2.13146508180818 -1.13765087278728
 6  16.15881550125012  3.44754726472647 -0.60340143314331
 6  17.43196759145914  3.83917283278328 -1.44962601040104
 6  16.96107508960896  4.16303186588659 -3.01750407040704
 6  17.93050646984698  5.09529765576558 -0.79214017101710
 1 -2.75545105100510  1.16560342394239  3.48200581178118
 1 -6.39598048094809  5.45024122632263  0.77934769746975
 1 -8.80509570867087  1.25507976947695 -3.05995137603760
 1 -3.71550861606161 -3.27560067676768  1.87040278237824
 1 -1.77788887488749 -1.20752836103610  2.63420558655866
 1 -2.86769609480948 -2.77189377027703  3.94859480538054
 1 -2.99173577367737 -1.09067118481848  4.68764490039004
 1 -4.49129080488049 -1.98294621262126  3.90203342594259
 1 -2.36833399899990 -3.13215626062606 -0.35807354195420
 1 -1.22056275597560 -1.78986761416142  0.25863670497050
 1 -0.38091248134814 -3.14554452675268  2.09596413751375
 1 -1.31101057965797 -4.41006784308431  1.61636067276728
 1 -1.72454110621062  3.61488617531753  4.17026940804080
 1 -2.73806146014601  4.90896053515352  4.55519118201820
 1 -3.06505643814381  3.10989418351835  4.92864984178418
 1 -5.28924278357836  6.67749573207321  2.56624874067407
 1 -10.09312329482948  2.87280443234323 -3.06273742834283
 1 -10.14726220912091  4.60846838133813 -2.75500849344934
 1 -9.49816557745775  3.68599649964996 -5.45058136873687
 1 -8.10228419441944  4.52713465406541 -4.54537421922192
 1 -8.03127340224022  2.96000031393139 -4.64551866656666
 1 -8.66493307490749 -0.96309956765677 -4.58913888288829
 1 -8.70021964986499 -2.67906496679668 -4.05486483038304
 1 -9.62815606470647 -1.50308694329433 -3.21323560866087
 1 -4.12557433343334 -3.87994381738174 -1.58722365246525
 1  2.46044398819882 -6.07726501960196  0.98084647254726
 1  2.14087741434143 -5.32002052845285 -0.42954838993899
 1  3.64611059345935 -4.17376749904990  2.05126349044904
 1  2.80853830573057 -3.46020757565757 -1.24188683878388
 1  4.38674601260126 -2.48736343694369 -1.78863708120812
 1  4.26512902030203 -4.03104496079608 -1.67514897219722
 1  4.98303217221722 -1.46228177277728  0.60402079317932
 1  5.24346670507051 -2.62045636283628  1.90710459675968
 1  6.79638885888589 -3.74342864236424  0.31731105280528
 1  6.81358019751975 -2.60730294629463 -1.00236992319232
 1  7.44778558015802 -0.98075462976298  0.56096484978498
 1  7.93251216141614 -2.04520276877688  1.65631310371037
 1  9.00476637623762 -1.94039207990799 -1.03200141884188
 1  8.86640880628063 -3.97659651955196 -0.18103057325733
 1  10.63595662506251 -3.58460181488149 -0.09101668356836
 1  9.60827757535754 -3.46946267486749  1.48419938293829
 1  9.61499256015601  0.31952036243624  0.35168434283428
 1  10.27808676727673 -0.91030935023502  1.55862679998000
 1  11.90215214631463 -1.65709303100310  0.14470516271627
 1  11.09764570477048 -0.62310394589459 -1.22965380908091
 1  11.76568658675868  1.17338040984098  0.52487527712771
 1  12.60653141184119  0.16352763606361  1.31738091319132
 1  13.32903364566457  0.53888863166317 -1.73999020382038
 1  14.73060328752875 -0.72215523282328  0.87799289678968
 1  14.14713510001000 -1.53145632453245 -0.54455070917092
 1  15.65786564306431 -0.58068139583958 -0.58023042604260
 1  13.60347959355936  2.54263256245625 -0.26070594789479
 1  14.81440905310531  2.01149756425643  0.93406223352335
 1  16.27880660776077  1.44360982248225 -0.97033484848485
 1  15.05613040854085  2.14551280268027 -2.17137066796680
 1  15.31400286238624  4.33289649734974 -0.50311159115912
 1  16.44386402030203  3.38195415481548  0.54555701450145
 1  18.25408522532253  3.02819632813281 -1.33759814771477
 1  16.25523266006601  4.83857113601360 -2.91149542844284
 1  17.97823021292129  4.35900229342934 -3.57609504310431
 1  16.55766045134513  3.36480139133913 -3.50411096429643
 1  18.14772264626463  4.98710936393639  0.19853901960196
 1  18.73150076087609  5.24509073557356 -1.26699884098410
 1  17.28260082988299  6.05483989408941 -0.94236258835884
 1 -5.13498138273827 -7.59022012141214 -0.21386570257026
 1 -6.40771126242624 -6.86266564796480  0.69678952225223
 1 -4.70623284068407 -7.01061093729373  1.53901677007701
 8 -7.92235513081308  6.85192522392239 -0.41705513391339
 1 -9.24664804860486  6.18421583728373 -1.93467193469347

