%nproc=3
%Mem=2GB
# td=(NStates=1) iop(3/107=0140000000,3/108=0140000000) iop(3/107=0140000000,3/108=0140000000) CAM-B3LYP/6-31G(d,p) 

TD

0 1
12 -5.59392512371237  1.26389641734173  0.19585225402540
 6 -4.99092921472147 -2.12562652735274 -0.42783584868487
 6 -3.48091955185519  1.15139768126813  2.81357279547955
 6 -6.37180360266027  4.56914493759376  0.80851321252125
 6 -7.91692261026103  1.20363904630463 -2.44213830773077
 7 -4.31725881038104 -0.27175309840984  1.02851301830183
 6 -4.22953817421742 -1.61877305870587  0.67621133963396
 6 -3.18812021372137 -2.24299549814981  1.57864345294529
 6 -2.96803095849585 -1.34397506720672  2.75172195879588
 6 -3.61927872787279 -0.15682483508351  2.16591725032503
 6 -3.54938704670467 -1.81163785638564  4.03495135453545
 6 -2.01590643394339 -2.54507850105011  0.64525871197120
 6 -1.01404916781678 -3.45427051495150  1.41663554045405
 6  0.20750661806181 -3.79956482858286  0.60898906000600
 8  0.49571342524252 -3.45951564036404 -0.46898691409141
 8  0.97879956215622 -4.63853899869987  1.30620660916092
 7 -4.92361091209121  2.62023225992599  1.49486617321732
 6 -3.99248333553355  2.38940695669567  2.40653587938794
 6 -3.78127866506651  3.67545762826283  3.15286423082308
 6 -4.55053080878088  4.63657212271227  2.70001588578858
 6 -5.32588195059506  3.95456013251325  1.58434358625863
 6 -2.78548717361736  3.85145222892289  4.33796766726673
 6 -4.65740844084409  6.02750278447845  3.00914635143514
 8 -4.20507299459946  6.64215904610461  3.99122309480948
 7 -6.84343599319932  2.58696662916292 -0.70845351305131
 6 -6.93958615641564  3.92062246774677 -0.30525872897290
 6 -7.97988312851285  4.60340139693969 -1.24061687078708
 6 -8.45681871467147  3.61557068716872 -2.05026957935794
 6 -7.79312312381238  2.46051422552255 -1.74007777757776
 6 -8.30907318601860  5.99673104280428 -1.28379951455146
 6 -9.54162064046405  3.48061900020002 -3.16763931253125
 6 -8.97172615331533  3.92573393649365 -4.52876612331233
 7 -6.31285705300530 -0.07397257745775 -1.12754377477748
 6 -7.30641424812481  0.04449354375438 -2.09916583918392
 6 -7.45684880148015 -1.31646679937994 -2.72354537913791
 6 -6.64287977167717 -2.18439221252125 -2.04856406630663
 6 -5.93562148564857 -1.39034306380638 -1.13462132683268
 6 -8.46833220792079 -1.54373416201620 -3.81822274167417
 6 -6.11406503360336 -3.55822492849285 -2.00844623852385
 8 -6.54097733833383 -4.54552952305231 -2.50701094679468
 6 -4.96511676517652 -3.45702746944694 -0.91160778157816
 6 -5.14465159275928 -4.61225642724272  0.06586373737374
 8 -5.39998418101810 -4.57812374577458  1.16404352465246
 8 -4.93481344454445 -5.76756064016402 -0.50893506490649
 6 -5.22571592079208 -6.92758634973497  0.36242377717772
 6  2.21192787438744 -5.09670593079308  0.70672865416542
 6  3.35574888498850 -4.13765526482648  1.05778706450645
 6  4.11210031373137 -3.36096591749175  0.15509788478848
 6  3.74282918021802 -3.25417860626063 -1.36492416121612
 6  5.17807201320132 -2.46693096129613  0.64012586348635
 6  6.56322192689269 -2.69126407940794  0.04940526642664
 6  7.56941606830683 -1.73067471327133  0.61540537513751
 6  8.95144375287529 -1.93220920292029 -0.05564227742774
 6  9.49068614871487 -3.31507140964096  0.33150627562756
 6  9.92647808340834 -0.79398001890189  0.38727669106911
 6  11.24405756305631 -0.84603739883988 -0.33619893049305
 6  12.07944556515652  0.37019621012101  0.14166495469547
 6  13.41945133923392  0.40721040794079 -0.65872562976298
 6  14.45021319431943 -0.80117084708471 -0.35131181638164
 6  14.27683762196220  1.71080585278528 -0.28970661306131
 6  15.38448772967297  2.05605754105411 -1.14316142384238
 6  16.06601622132213  3.46000851085109 -0.74556564956496
 6  17.42098649334934  3.81510042554255 -1.25202625042504
 6  17.43812279437944  3.94538010071007 -2.79263158315832
 6  17.94723814301430  5.11746987298730 -0.80042099909991
 1 -2.98026353225322  1.15568243184318  3.77149476067607
 1 -6.54653553645365  5.68822502470247  1.04123388608861
 1 -8.73842904200420  1.20050431193119 -3.08127350825083
 1 -3.64421148634864 -3.18890200690069  1.68822456455646
 1 -1.92155324132413 -1.17456506470647  2.81243340934093
 1 -3.04026335153515 -2.69299588048805  4.40636058195819
 1 -3.31286788688869 -1.03502562026203  4.96353248914891
 1 -4.52305398119812 -1.94155207320732  3.78030125272527
 1 -2.29806697229723 -3.22828587358736 -0.21690942554255
 1 -1.42199289898990 -1.64924355175518  0.36026686798680
 1 -0.59022341244124 -2.95743571587159  2.39097363846385
 1 -1.53293277187719 -4.28065490179018  1.69568860556056
 1 -1.66517516961696  3.78248293499350  4.16113849494949
 1 -3.21138879287929  4.92123176227623  4.68069373227323
 1 -2.86398633113311  2.95817901200120  5.19367634443444
 1 -5.56669052835283  6.59462744524452  2.55459757555756
 1 -9.87999198169817  2.57721487338734 -3.27410856545655
 1 -10.29325680858086  4.38236577107711 -2.91819481208121
 1 -9.75232099299930  3.86120402040204 -5.15358166876688
 1 -8.31213517951795  4.83928586918692 -4.53557323912391
 1 -8.28624889978998  3.14122843674367 -4.77945205990599
 1 -8.18412499409941 -0.97925118281828 -4.59176914591459
 1 -8.24960458835884 -2.53372043234323 -3.97481682558256
 1 -9.56908015711571 -1.35518215281528 -3.47658194329433
 1 -3.98934071007101 -3.64539036203620 -1.49440437053705
 1  2.45402334613461 -6.14743203630363  1.02528091599160
 1  2.21611493809381 -5.03226175257526 -0.31591702680268
 1  3.53239922232223 -4.07794791709171  1.95370373447345
 1  2.74893234513451 -3.46351790669067 -1.67662031213121
 1  3.88030536853685 -2.27458215881588 -1.63419163666367
 1  4.55820832823282 -3.71012286858686 -2.06819827712771
 1  4.92464633363336 -1.44175972057206  0.24190458155816
 1  5.20711306970697 -2.36088040524052  1.72502638893889
 1  6.84047326732673 -3.75289958945895  0.19120844254425
 1  6.50352919241924 -2.56751896789679 -0.96620630683068
 1  7.04506530813081 -0.70618717301730  0.31610036333633
 1  7.66786569676968 -1.80123837233723  1.69620709310931
 1  9.02001790139014 -1.98732677337734 -1.25275349404940
 1  8.96868903430343 -4.17220608050805 -0.31514398459846
 1  10.48377140654065 -3.31995535023502 -0.01540912281228
 1  9.54064081168117 -3.51410713931393  1.33924488748875
 1  9.43342440334033  0.15891430183018  0.21178035243524
 1  10.15266422502250 -0.86728504780478  1.38291922922292
 1  11.76568849995000 -1.73593091479148 -0.16508581638164
 1  11.08731467166717 -1.00061169666967 -1.46923776747675
 1  11.53004302240224  1.32988606040604 -0.08209541994199
 1  12.30301105980598  0.21482276557656  1.24613378847885
 1  13.16803754605460  0.37142188498850 -1.76315252005201
 1  14.80697092429243 -0.78234125142514  0.59549464696470
 1  14.09180956745675 -1.68590176907691 -0.60611686578658
 1  15.17383724022402 -0.75092842054205 -1.03644604760476
 1  13.53083232883288  2.56443474267427 -0.17034691199120
 1  14.53828144034403  1.70117653215322  0.73044187148715
 1  16.30066879397940  1.39873533503350 -1.05694350935093
 1  15.14278907440744  2.23385163656366 -2.20802433333333
 1  15.32980444254425  4.26576978467847 -0.84292557255726
 1  16.25640527442744  3.59860581998200  0.17816027482748
 1  18.16343616041604  2.87680118861886 -1.07761214911491
 1  16.61524866166616  4.59266654555456 -3.03053733263326
 1  18.33846623652365  4.29323571677168 -3.25929336293629
 1  17.24901958725873  2.95869078027803 -3.38720927412741
 1  18.11445931993199  5.15816646964697  0.33284244994499
 1  18.76440405120512  5.24546077257726 -1.42484462556256
 1  16.95106767656766  5.93630804090409 -0.90296864896490
 1 -5.20337822242224 -7.76151725112511 -0.27638195419542
 1 -6.19582007330733 -6.84523390479048  0.87577742104210
 1 -4.41434365176518 -6.95976585278528  1.37918078647865
 8 -7.83070596589659  6.85944597599760 -0.60149357775778
 1 -9.14640802460246  6.19258667436744 -2.02668113561356

