%nproc=3
%Mem=2GB
# td=(NStates=1) iop(3/107=0140000000,3/108=0140000000) iop(3/107=0140000000,3/108=0140000000) CAM-B3LYP/6-31G(d,p) 

TD

0 1
12 -5.66296202740274  1.22862288998900  0.24727739653965
 6 -5.10753087488749 -2.16739070377038 -0.34752781788179
 6 -3.42804426432643  1.17614015551555  2.73226466466647
 6 -6.12944936723672  4.61560958405841  0.61855421662166
 6 -8.20922184018402  1.10129881228123 -2.29028312221222
 7 -4.39282636713671 -0.29256517961796  1.02403257025703
 6 -4.35214043444344 -1.62202338373837  0.72657637613761
 6 -3.25789719141914 -2.35200639923992  1.50509609820982
 6 -2.87110126552655 -1.45290596029603  2.62066885348535
 6 -3.53253005300530 -0.09049820242024  2.10386104470447
 6 -3.27759986798680 -1.80931762436244  4.02978083748375
 6 -2.05197004030403 -2.69925391859186  0.62468665476548
 6 -1.02989075197520 -3.59084417231723  1.36962083898390
 6  0.25490135753575 -3.81476634873487  0.51587974907491
 8  0.37154100800080 -3.40723041184118 -0.64553456885689
 8  1.04449613181318 -4.66269141394139  1.18113410191019
 7 -4.96985553655365  2.64013425012501  1.48541522812281
 6 -4.03941802900290  2.42679069506951  2.43892911871187
 6 -3.57581811901190  3.69138922142214  3.06046499089909
 6 -4.40383613931393  4.64551301680168  2.50042592679268
 6 -5.24977433983398  3.92464714121412  1.44348950085008
 6 -2.50151877677768  3.78108519221922  4.15402927342734
 6 -4.62631533153315  6.03447348154816  2.89055449224923
 8 -4.00038252555256  6.68490332053205  3.71835580808081
 7 -6.89656130573057  2.59658759125913 -0.77094976267627
 6 -6.91833403120312  3.94517492299230 -0.39999820292029
 6 -7.87411255145515  4.59601065786579 -1.25520832993299
 6 -8.56324935773577  3.56603573367337 -1.96562111451145
 6 -7.87944175567557  2.35232340644064 -1.71512528232823
 6 -8.25289756845685  5.99441081078108 -1.24559569416942
 6 -9.58757523592359  3.73974491279128 -3.16188873747375
 6 -8.92798177887789  4.13047441054105 -4.43031627832783
 7 -6.52807857515752 -0.12468764896490 -0.94894591499150
 6 -7.49830343704370 -0.09947085268527 -1.94603052565257
 6 -7.69786290289029 -1.32411756445645 -2.64035706030603
 6 -6.74063954765477 -2.22531630493049 -2.06435564546455
 6 -5.99697762126213 -1.41887591709171 -1.15292315701570
 6 -8.65463083778378 -1.75740552915292 -3.58761968136814
 6 -6.22537616471647 -3.56255536153615 -2.01221661556156
 8 -6.49488272887289 -4.48594356445645 -2.64820506620662
 6 -5.11680193369337 -3.53023479017902 -0.87066368716872
 6 -5.27728485608561 -4.63034823642364  0.13395054605461
 8 -5.84103828642864 -4.35836176957696  1.23320044034403
 8 -4.99173913711371 -5.87740162426243 -0.30710488188819
 6 -5.52665601480148 -6.92225581668167  0.66532406720672
 6  2.28317499909991 -4.99920618081808  0.41250923222322
 6  3.37388069816982 -4.18226972627263  0.84895618141814
 6  4.06486559025903 -3.25944576547655  0.12463483848385
 6  3.87105200250025 -3.22329551795180 -1.42611027982798
 6  5.22058626462646 -2.33747801600160  0.59034088498850
 6  6.56602220692069 -2.76723167616762  0.17697802370237
 6  7.71338046474647 -1.87958960476048  0.56501033563356
 6  9.11132974147415 -1.95559154115412 -0.08541525472547
 6  9.56660374047405 -3.43055295779578  0.06235936093609
 6  10.05142057765777 -0.84879550045004  0.42197016041604
 6  11.40923408070807 -0.85707850295030 -0.27706301690169
 6  12.29818743934393  0.35747493799380  0.17681847004700
 6  13.63950334443444  0.52805249214921 -0.41614137133713
 6  14.54553272627263 -0.70481121112111 -0.20807749294929
 6  14.33723366156616  1.89010378257826 -0.02535017741774
 6  15.57492677357736  2.14752668796880 -0.89771687938794
 6  16.12728234793479  3.53961647164716 -0.57052814581458
 6  17.33787818251825  3.84141305680568 -1.33628467626763
 6  17.10047903000300  4.03786934963496 -2.76812913291329
 6  17.96243966316631  5.20599872587259 -0.78632958995900
 1 -2.78682418831883  1.26176303990399  3.65603321452145
 1 -6.08530941384138  5.72836903910391  0.60720048274828
 1 -8.99550474957496  0.95621988348835 -3.03242862376238
 1 -3.67334439963996 -3.41315443214321  1.95065080718072
 1 -1.82639372537254 -1.23612122032203  2.78697086308631
 1 -2.73179250445044 -2.72842942384238  4.27370731663166
 1 -2.97341394149415 -1.12801491919192  4.89591572747275
 1 -4.39348102390239 -2.02403032103210  4.26139936253625
 1 -2.44299146474647 -3.01340438543854 -0.12449018361836
 1 -1.57477817751775 -1.68003663106311  0.22635347664766
 1 -0.70710510061006 -3.12675264756476  2.22040658175818
 1 -1.65072455105510 -4.42651948824882  1.42333136983698
 1 -1.43879253135314  3.57557224392439  3.61053343444344
 1 -2.38869652365236  4.71497113621362  4.80894655755576
 1 -2.81886181868187  2.99108230233023  4.79142611941194
 1 -5.39752361166117  6.52009999249925  2.34931704750475
 1 -10.11763574607461  2.80129728162816 -3.23107426202620
 1 -10.23216069896990  4.57434496899690 -2.82277527012701
 1 -9.73873963486349  4.34970287028703 -5.15906221682168
 1 -8.10834480048005  5.12589453005300 -4.22175185698570
 1 -8.28071834673467  3.33587790169017 -4.77646176087609
 1 -8.31417799939994 -1.22248550625063 -4.67068703770377
 1 -8.64677430533053 -2.82539960026003 -3.98907825172517
 1 -9.65355860496050 -1.52538917351735 -3.33835812091209
 1 -4.24947672367237 -3.82008783178318 -1.57755268536854
 1  2.46034397819782 -6.04346163926393  0.84344273217322
 1  1.83390671727173 -5.06219474587459 -0.71300673577358
 1  3.60557654005401 -4.03893401570157  2.01823018711871
 1  2.91069852175217 -3.70929248414842 -1.86560921102110
 1  3.80619795779578 -2.19993469406941 -1.69459767726773
 1  4.55317782518252 -3.61072292859286 -2.13460491779178
 1  5.03289715871587 -1.25275081968197  0.25485587668767
 1  5.26939929832983 -2.11256557375738  1.86031991829183
 1  6.78093731373137 -3.99281358085809  0.44628395009501
 1  6.73492233173317 -2.61606382238224 -1.12036172237224
 1  7.24309511111111 -0.77559411371137  0.59876863016302
 1  7.82871178137814 -1.98020626912691  1.73434090649065
 1  8.98950485008501 -1.71208924962496 -1.15437365606561
 1  8.97204937033703 -4.09176803670367 -0.58218068826883
 1  10.52217524692469 -3.72314566926693 -0.37207478937894
 1  9.56629337693769 -3.83990971957196  1.11785274827483
 1  9.60888194909491  0.15073348374838  0.51165033943394
 1  10.39271823042304 -1.30972929222922  1.32451338863886
 1  12.00227215831583 -1.85641296299630 -0.17668697649765
 1  11.27067300750075 -0.69365100060006 -1.28020886458646
 1  11.58370838893889  1.35275834763476 -0.15803301370137
 1  12.37136789548955  0.55903718701870  1.38598777387739
 1  13.35386612891289  0.61391613441344 -1.59041524632463
 1  14.72931315851585 -0.88266128342834  0.91663676117612
 1  14.07783817031703 -1.57927110601060 -0.30231648574858
 1  15.39790964746475 -0.72258558625863 -0.85488789178918
 1  13.63767301290129  2.66980527972797 -0.32906278357836
 1  14.60958857105711  1.80775719021902  1.19440826812681
 1  16.46428515561556  1.40201566306631 -0.46166398139814
 1  15.30589538503850  1.84700295169517 -2.00716424732473
 1  15.35418688078808  4.36666987468747 -0.85602688268827
 1  16.43383301720172  3.75268122752275  0.71172363116312
 1  18.07667748454845  3.00624413291329 -1.30853524142414
 1  16.49187632443244  4.81394867376738 -3.06889116801680
 1  17.97194958485849  4.22372876607661 -3.21648908250825
 1  16.77181186648665  3.13768868006801 -3.16576712991299
 1  18.29523739773977  5.42020267326733  0.27958712441244
 1  18.94962257305730  5.60790701720172 -1.39669181028103
 1  17.15591816161616  6.08991340144014 -0.81793014511451
 1 -5.43943182778278 -7.86093719311931  0.15586127012701
 1 -6.44161465276528 -6.84488386978698  0.94199404270427
 1 -4.91954417181718 -6.83982385858586  1.56217908630863
 8 -7.72385528082808  6.81239127052705 -0.50233366176618
 1 -9.10326371017102  6.17958537423742 -1.99230769826983

