%nproc=3
%Mem=2GB
# td=(NStates=1) iop(3/107=0140000000,3/108=0140000000) iop(3/107=0140000000,3/108=0140000000) CAM-B3LYP/6-31G(d,p) 

TD

0 1
12 -5.59715544674467  1.20351037873787  0.15466813561356
 6 -5.01442156395639 -2.17168113281328 -0.37107017211721
 6 -3.41448290819082  1.20125266676668  2.78982042024202
 6 -6.13361978427843  4.53125114821482  0.67622998419842
 6 -8.07714863286329  1.13765244764476 -2.24185827972797
 7 -4.34030111461146 -0.26407233033303  1.07367753475348
 6 -4.30049526992699 -1.63802498389839  0.67658137663766
 6 -3.19395079677968 -2.32595379397940  1.43208879747975
 6 -2.81694584998500 -1.33366403610361  2.59027581418142
 6 -3.58157495749575 -0.02792194479448  2.15616627522752
 6 -3.27718982698270 -1.85957264986499  3.95560341974197
 6 -1.93789863316332 -2.63117711091109  0.63326751285129
 6 -0.96127389028903 -3.56905199309931  1.32183606050605
 6  0.26456232363236 -3.91794666676668  0.48510667176718
 8  0.40448430233023 -3.45444513331333 -0.60174018941894
 8  1.03632531473147 -4.58595374017402  1.27441342984298
 7 -4.96282483348335  2.63121335803580  1.53391007760776
 6 -4.06533062026203  2.42830084608461  2.56303152895290
 6 -3.63353389058906  3.68578866136614  3.17016596099610
 6 -4.53734949064907  4.59887835333533  2.54828071227123
 6 -5.19102846524653  3.98937361386139  1.48863401530153
 6 -2.77152577747775  3.89962704640464  4.26382025252525
 6 -4.54907760776078  6.04567460166017  2.78358379517952
 8 -3.82492497979798  6.56964179437944  3.63597757025703
 7 -6.94982663226323  2.55208314081408 -0.63536620432043
 6 -6.88374057185719  3.91022142764276 -0.30390859395940
 6 -7.91152629282928  4.56632768956896 -1.20735354445445
 6 -8.46992002480248  3.67106623672367 -2.01649620202020
 6 -7.74870868236824  2.37836601070107 -1.69143291309131
 6 -8.38735101380138  5.90758212791279 -1.09849098369837
 6 -9.55048152655266  3.81173211151115 -2.99448199679968
 6 -8.95065404610461  3.85452681578158 -4.45747899459946
 7 -6.43717948524852 -0.18055323552355 -1.07562858325833
 6 -7.36394000070007 -0.06570747634763 -2.11552747534753
 6 -7.66821993859386 -1.31608676137614 -2.65859888448845
 6 -6.72471795549555 -2.15445921922192 -2.10286949684969
 6 -6.03936185968597 -1.50761479097910 -1.09827769246925
 6 -8.41288666336634 -1.64383417201720 -3.92952387178718
 6 -6.30994462156216 -3.54014312031203 -2.04258965286529
 8 -6.70448368896890 -4.55579054915492 -2.60812105780578
 6 -5.10578083158316 -3.58663042974297 -0.89752637343734
 6 -5.40526765436544 -4.66551175277528  0.10301745274527
 8 -5.66779096169617 -4.51143707710771  1.29561668196820
 8 -5.15631559475948 -5.89372325642564 -0.43994816621662
 6 -5.54492784198420 -6.95306889798980  0.61849938473847
 6  2.27282396399640 -4.99669592979298  0.58515649694969
 6  3.35443875397540 -3.97738923822382  0.88625991179118
 6  3.92232133583358 -3.21498131903190 -0.02172979797980
 6  3.73281817911791 -3.07430061846185 -1.44713238203820
 6  5.12899710571057 -2.29133340154015  0.56163801470147
 6  6.57398300300030 -2.55930088308831  0.13200352625263
 6  7.56833596029603 -1.57920956675668  0.70294412901290
 6  8.90414902340234 -1.82848883088309  0.02330561736174
 6  9.48215529562956 -3.28408831133113  0.17072019701970
 6  9.92300773637364 -0.83285390629063  0.56245420882088
 6  11.30687384468447 -0.83227602270227 -0.24412972357236
 6  12.29004662526253  0.41839102960296  0.20423121132113
 6  13.63157255135513  0.46170585748575 -0.55911566876688
 6  14.53453162616262 -0.68097882788279 -0.38425511071107
 6  14.31005094329433  1.85219999219922 -0.18737638003800
 6  15.68677795869587  2.03922585788579 -0.80460756845685
 6  16.13289290899090  3.52722523252325 -0.72005309830983
 6  17.48511290599060  3.78617753325333 -1.30661170897090
 6  17.33290227232724  3.83433899659966 -2.87883020302030
 6  17.97863128232823  5.07945607160716 -0.72233319031903
 1 -2.50855636153615  1.30604746834684  3.60525813701370
 1 -6.37717860076008  5.49593579577958  0.66923668636864
 1 -8.74100930003000  1.13570783228323 -3.22237761866187
 1 -3.46723378857886 -3.43779689638964  1.78874461656166
 1 -1.57835892189219 -1.10772838103810  2.53848601460146
 1 -2.51872119731973 -2.65956253715372  4.05008495439544
 1 -3.33706030613061 -1.10059217691769  4.88095423132313
 1 -4.43411508730873 -2.30856877487749  3.88377159975998
 1 -2.10660782638264 -3.19859290429043 -0.25214294889489
 1 -1.59264996469647 -1.65060368776878  0.31225206650665
 1 -0.70622501260126 -3.14266423872387  2.32792733383338
 1 -1.37275675427543 -4.59259609590959  1.54995403210321
 1 -1.77138579067907  4.04871955865587  3.67742012311231
 1 -2.91488914291429  4.87969760886089  4.82646830973097
 1 -2.63789372187219  3.02689588368837  5.17094407120712
 1 -5.39607346664666  6.81411939443944  2.24718683448345
 1 -10.30610459295930  3.03794094599460 -2.85665682028203
 1 -10.31130861376138  4.55721325582558 -2.87396038863886
 1 -9.93971973287329  3.81270917091709 -4.96377268786879
 1 -8.34661862786279  4.83569551015102 -4.63502318411841
 1 -8.25587586248625  2.89317363126313 -4.82014612931293
 1 -7.95539212081208 -1.14219747744775 -4.80648061706171
 1 -8.46606623452345 -2.83229028932893 -3.98247759165917
 1 -9.51528477757776 -1.14038067266727 -3.83069735483548
 1 -4.10118189418942 -3.76313213621362 -1.37644257435744
 1  2.62985092889289 -5.87490478357836  1.15488387628763
 1  2.41416474307431 -5.40645917231723 -0.52475791089109
 1  3.93537952035203 -3.86607672997300  1.80643900800080
 1  2.74399185108511 -3.27470902580258 -1.77397004710471
 1  3.80706804480448 -2.17162186278628 -1.78749696719672
 1  4.28137064446445 -3.83033488978898 -2.15811726902690
 1  4.86423029202920 -1.29302484708471  0.52813320442044
 1  5.19349170757076 -2.61540585778578  1.70095398169817
 1  6.94105332533253 -3.57760205970597  0.59353867556756
 1  6.72503134263426 -2.64826704270427 -0.99243893009301
 1  7.21845264686469 -0.64458101240124  0.60823957725773
 1  7.55182409260926 -1.53251149964996  1.80280775317532
 1  8.90622652225223 -1.61471951265127 -1.16241446014601
 1  8.50626279167917 -3.81738059795980 -0.14923739393939
 1  10.44943797319732 -3.43214656935694 -0.37283486538654
 1  9.91376812441244 -3.59072480108011  0.98253921692169
 1  9.83259432033203  0.22431084148415  0.61155032943294
 1  10.17779673827383 -1.25938425772577  1.65290622792279
 1  12.06814874597460 -1.73061038273827  0.00997168936894
 1  11.03348928912891 -0.97312894839484 -1.22513335703570
 1  11.80900091819182  1.15321839363936  0.01042383198320
 1  12.42531329002900  0.16966825012501  1.17027620272027
 1  13.26799754205421  0.65361010381038 -1.56623282808281
 1  14.82910313751375 -0.98849186648665  0.52245734323432
 1  13.93318370487049 -1.44030720962096 -0.74927118121812
 1  15.45045490199020 -0.52765609330933 -1.04860726372637
 1  13.62130137573757  2.66296459565957 -0.22798267556756
 1  14.60352796499650  2.04026044054405  0.95684451175118
 1  16.63282200930093  1.43392885438544 -0.43530134513451
 1  15.36826162166217  1.90972922432243 -2.00256378727873
 1  15.42388385048505  4.51741494919492 -0.89725100510051
 1  16.31159079297930  3.52117807720772  0.53989644844484
 1  18.18885870267027  3.07541104960496 -0.98779316721672
 1  16.61705884268427  4.66366364526453 -3.23910818971897
 1  18.36396878677868  3.93900029322932 -3.14886231983198
 1  16.74770945624562  2.91187609880988 -3.17817837103710
 1  18.18648652265226  5.15683633663366  0.39031819751975
 1  18.93527113791379  5.26562278877888 -1.27730987208721
 1  17.35029759955995  5.78265267536754 -1.06301465356536
 1 -5.42242012661266 -7.89333043244324  0.01219690369037
 1 -6.62504299559956 -6.93917329872987  0.81327117041704
 1 -4.82875509290929 -6.99288916511651  1.41253412181218
 8 -7.85650854615461  6.77704773617362 -0.47836126452645
 1 -9.21433481728173  6.37894531023102 -1.79643811131113

