%nproc=3
%Mem=2GB
# td=(NStates=1) iop(3/107=0140000000,3/108=0140000000) iop(3/107=0140000000,3/108=0140000000) CAM-B3LYP/6-31G(d,p) 

TD

0 1
12 -5.57013274447445  1.24227425512551  0.19150181898190
 6 -4.97364748654865 -2.09944390909091 -0.33661672677268
 6 -3.43024448434844  1.22239478097810  2.75716715491549
 6 -6.38782520482048  4.53049107220722  0.84619698089809
 6 -7.90312123012301  1.17881656405641 -2.36631072497250
 7 -4.39803688818882 -0.23091901500150  1.15019518651865
 6 -4.30131535193519 -1.53709489088909  0.71487520602060
 6 -3.22949435113511 -2.27129832843284  1.51633722232223
 6 -2.86624077947795 -1.28218888858886  2.69712649924992
 6 -3.53660046004600  0.02793364076408  2.19037969656966
 6 -3.39833194119412 -1.79745643824382  4.12637049644965
 6 -1.91929677297730 -2.65768976217622  0.73284747084708
 6 -0.92856061896190 -3.64020910881088  1.50711458835884
 6  0.16295216261626 -3.93813868596860  0.59747790889089
 8  0.29086294019402 -3.57736742554255 -0.58039805520552
 8  1.11571325352535 -4.68468361316132  1.29557554605461
 7 -4.98895744674467  2.63225346204620  1.54955164176418
 6 -4.08709279647965  2.42566058205821  2.46702192799280
 6 -3.81191172837284  3.70475055755576  3.09420836523652
 6 -4.67824358005801  4.60480894639464  2.54858074227423
 6 -5.45311467386739  3.99363403990399  1.55548069997000
 6 -2.81059968486849  3.90689777347735  4.25803967446745
 6 -4.69934263426343  6.05591562576258  3.03765920272027
 8 -4.00626311361136  6.50116494669467  3.93200717321732
 7 -6.83509515911591  2.60477841034103 -0.65959862756276
 6 -6.97052925072507  3.92104250975098 -0.31636984008401
 6 -7.97200234043404  4.62302335913591 -1.20330313941394
 6 -8.45806883968397  3.56951608170817 -2.11802635503550
 6 -7.75097890939094  2.34635280938094 -1.68825259505951
 6 -8.45972825152515  5.97803917361736 -1.19388052265227
 6 -9.41442792119212  3.76870780908091 -3.14040658925893
 6 -8.70676965766577  3.98994035713571 -4.57262050875087
 7 -6.29859562686269 -0.09630481068107 -1.21632265266527
 6 -7.20612421912191 -0.00407131273127 -2.18285420802080
 6 -7.44256737333733 -1.31735688838884 -2.84724774937494
 6 -6.48600408410841 -2.14495826912691 -2.10192940284028
 6 -5.92369029252925 -1.45420945044504 -1.16205407010701
 6 -8.38211358605861 -1.64956474507451 -3.94877579697970
 6 -6.11392501960196 -3.52685179117912 -2.04722011591159
 8 -6.39206244684468 -4.58858382848285 -2.69042928862886
 6 -5.02294254775478 -3.52226399309931 -0.81614823562356
 6 -5.28410553815382 -4.57338253985399  0.16335348634863
 8 -5.79390357295730 -4.40006593999400  1.19538665896590
 8 -4.93729369256926 -5.77744162826283 -0.30421459285929
 6 -5.17431078027803 -6.86300989208921  0.47934546934693
 6  2.29121580318032 -5.11970823102310  0.68434641594159
 6  3.32389569966997 -4.07497899719972  1.08247953375338
 6  4.07809691339134 -3.29121894279428  0.21917429242924
 6  3.64579947724772 -3.26905009340934 -1.29203687248725
 6  5.13675788178818 -2.31911617981798  0.62815466636664
 6  6.55134073877388 -2.64337929092909 -0.10111978607861
 6  7.66563569026903 -1.77766941274127  0.39097293189319
 6  9.12277088558856 -1.96871285328533 -0.13572028522852
 6  9.55513259335934 -3.48218812131213  0.40219334433443
 6  9.96171160676068 -0.87870849174918  0.27296525992599
 6  11.33358651595159 -0.89178197329733 -0.33514882548255
 6  12.24186180678068  0.25638482898290  0.12377316551655
 6  13.54426382048205  0.46710639753975 -0.59655941314131
 6  14.39710788378838 -0.81828255825583 -0.51491817701770
 6  14.21409134733473  1.75417018921892 -0.24112175457546
 6  15.45387466836684  2.10901283658366 -1.06925403310331
 6  16.09429904960496  3.51083359335934 -0.66179727272727
 6  17.34118851355136  3.79999891539154 -1.31192224002400
 6  17.32957193929393  3.95464102680268 -2.84272659265927
 6  17.75512893209321  5.17178530453045 -0.65219617661766
 1 -2.68945445134513  1.51285814941494  3.69581719291929
 1 -6.68483936683668  5.45222142434243  0.99530929362936
 1 -8.79473467256726  1.09610387188719 -3.16561194209421
 1 -3.62460952615262 -3.11306442314231  1.97277301940194
 1 -1.86238732473247 -0.99028663686369  2.58821098709871
 1 -3.13986331153115 -2.66660324122412  4.27435738163816
 1 -3.01302790289029 -1.05724784248425  4.97487362326233
 1 -4.55479715551555 -1.96939485748575  4.14521774437444
 1 -2.05052221782178 -3.17892093709371 -0.29973770837084
 1 -1.33760446014601 -1.69992862026203  0.58778962026203
 1 -0.78006239633963 -3.05763573587359  2.22954749584959
 1 -1.50337981658166 -4.66620345664566  1.93730276697670
 1 -1.81450010211021  3.73235792249225  3.70783316441644
 1 -2.83052070607061  4.73523316241624  4.48689435233523
 1 -3.05344527702770  3.28509170327033  5.09544652145215
 1 -5.36702056135614  6.76192417491749  2.43421553735374
 1 -9.99755373787379  2.66865401730173 -3.25820697529753
 1 -10.17616509940994  4.74474200870087 -3.06505949854985
 1 -9.41184694559456  3.98502640264026 -5.48035434603460
 1 -8.08486245224523  4.83283522412241 -4.56267594939494
 1 -8.21918219311931  2.96058037193719 -4.94905902060206
 1 -8.28521510311031 -0.78516177387739 -4.58590855985599
 1 -8.09367899579958 -2.52555961626163 -4.44199354325433
 1 -9.49446269536954 -1.59892652725273 -3.30813509860986
 1 -4.00020179617962 -3.62225804880488 -1.25800073017302
 1  2.64921286508651 -6.11409870297030  1.17512590049005
 1  2.13142646924692 -5.05904443084308 -0.39273470857086
 1  3.83902988538854 -3.83239336163616  2.18115647974798
 1  2.51097854975498 -3.51702325722572 -1.38314096419642
 1  3.78456579457946 -2.25515021562156 -1.77569578707871
 1  4.30382288968897 -3.91067292359236 -1.82932438973897
 1  4.68448231723172 -1.29910545514551  0.31378176927693
 1  5.15898825722572 -2.34832915011501  1.78896278257826
 1  6.90064928492849 -3.65149944944494  0.18157747944794
 1  6.25638447794779 -2.50736295229523 -1.37854754095410
 1  7.37524832643264 -0.66683323762376  0.01210996429643
 1  7.75657456765677 -1.63722197069707  1.48270574297430
 1  9.01753765336534 -2.01309935063506 -1.20498871757176
 1  8.75323748914892 -4.06011487138714  0.23913144294429
 1  10.57274030343034 -3.98714206890689 -0.00104768666867
 1  9.61361810941094 -3.37109283788379  1.46214717771777
 1  9.50424148504850  0.14108251865187  0.14387356175618
 1  10.14084304290429 -0.85980429972997  1.26901783908391
 1  11.74008593969397 -1.77538486018602 -0.30925023282328
 1  11.25057099729973 -0.73528516401640 -1.52552339603960
 1  11.68064808290829  1.26558963076308  0.12513530313031
 1  12.63453421212121  0.05552683598360  1.18199737483748
 1  13.10543128542854  0.54103884668467 -1.68690489528953
 1  14.41162138933893 -1.14436745404540  0.49336443394339
 1  13.75518590509051 -1.55273845274527 -1.29546580068007
 1  15.42811266776678 -0.41931525922592 -0.94020642364236
 1  13.42248149374938  2.63796209540954 -0.00874075137514
 1  14.61544915711571  1.50274668916892  0.65890471777178
 1  16.26033476057606  1.27077253875388 -0.91691950695070
 1  15.13859865536554  1.98014626602660 -2.10122365326533
 1  15.29225068716872  4.34555776347635 -0.69451073107311
 1  15.96210584448445  3.35230118951895  0.44675713451345
 1  18.07275709250925  2.93163667216722 -1.08402279017902
 1  16.72316945374537  4.86188346724672 -2.96403068196820
 1  18.33455584548455  4.18187458065807 -3.25609304290429
 1  16.79568425372537  3.29025393659366 -3.26769732293229
 1  17.95768364236423  4.97515816881688  0.34140330603060
 1  18.69276688748875  5.65017124362436 -1.04662680378038
 1  17.02113468326833  6.08623303340334 -0.83628198029803
 1 -4.84412229682968 -7.70538163756376  0.00979666366637
 1 -6.24099459075908 -6.96855623702370  0.98068791209121
 1 -4.71616383378338 -6.70984086028603  1.39491235963596
 8 -8.07639053435343  6.91860189158916 -0.47837126552655
 1 -9.33273665746575  6.16284370007001 -1.89211767926793

