%nproc=3
%Mem=2GB
# td=(NStates=1) iop(3/107=0140000000,3/108=0140000000) iop(3/107=0140000000,3/108=0140000000) CAM-B3LYP/6-31G(d,p) 

TD

0 1
12 -5.76930266146615  1.25796582428243  0.21720438923892
 6 -5.05716583838384 -2.08306227092709 -0.36176924202420
 6 -3.47256871677168  1.17143968546855  2.82456389458946
 6 -6.21292771507151  4.62719074217422  0.67450981218122
 6 -7.84435535353535  1.23202188458846 -2.41426552045205
 7 -4.35385246974697 -0.26119204230423  1.12942310931093
 6 -4.28327354775478 -1.55688687008701  0.71911563006301
 6 -3.22184358605861 -2.30549174777478  1.51777736633663
 6 -2.78031218661866 -1.31005167486749  2.71542832943294
 6 -3.45202200220022 -0.03071222382238  2.10669132773277
 6 -3.21380348834883 -1.69306599919992  4.03374123352335
 6 -2.02607745104510 -2.74261825502550  0.60666485258526
 6 -0.99950771367137 -3.47514260216022  1.41412528942894
 6  0.24850071747175 -3.85180005210521  0.65664382548255
 8  0.41955580948095 -3.40029971877188 -0.46595661106111
 8  1.03054473667367 -4.67065221002100  1.35601158965897
 7 -5.00601915291529  2.69316955365537  1.49885657225723
 6 -4.03462754995500  2.41855987198720  2.39123434923492
 6 -3.83383392059206  3.66636671917192  3.20029897429743
 6 -4.50327608330833  4.60457892339234  2.61440732493249
 6 -5.27536689908991  3.96814149064906  1.53752890479048
 6 -2.78881750665066  3.74518160186019  4.25870974147415
 6 -4.44588728872887  6.11279131333133  2.85734117091709
 8 -3.84588707600760  6.58844367456746  3.75294926742674
 7 -6.87374902450245  2.59872780528053 -0.68291095879588
 6 -6.97743994179418  3.95376578207821 -0.30776897999800
 6 -7.90119525972597  4.58680973777378 -1.23746655575558
 6 -8.33598663146315  3.73928305840584 -2.08435298769877
 6 -7.62025583708371  2.46376455055506 -1.81289505930593
 6 -8.29584186288629  6.01536290599060 -1.20117125172517
 6 -9.43630010841084  3.74323526182618 -3.18975152375238
 6 -8.72863184388439  4.02282364546455 -4.61297454415442
 7 -6.30713648094809 -0.08818399859986 -1.15836685708571
 6 -7.29784339103910  0.01851094549455 -2.13449937253725
 6 -7.47699081568157 -1.28113326602660 -2.78409143374337
 6 -6.74161964566457 -2.19057283058306 -2.05254446434643
 6 -5.96478440194019 -1.30393442294229 -1.10607847254725
 6 -8.47643301800180 -1.58454824342434 -3.79273019241924
 6 -6.19389301640164 -3.53043214921492 -1.89718511241124
 8 -6.59074231483148 -4.54017898799880 -2.53934418011801
 6 -4.99770002350235 -3.56455822252225 -0.89253587438744
 6 -5.22838996659666 -4.72081728332833  0.11979913091309
 8 -5.74875905850585 -4.49555548894890  1.19990711101110
 8 -4.86940690389039 -5.96193007710771 -0.29131330273027
 6 -5.22248559775978 -6.93881747284728  0.68882641744174
 6  2.29474615621562 -5.09829608980898  0.60846882818282
 6  3.37313062316232 -4.18762026132613  0.88357964376438
 6  4.04004310801080 -3.39250907180718  0.12915529052905
 6  3.59542443974397 -3.21364455285529 -1.35969363816382
 6  5.13834804080408 -2.52749701790179  0.58077992889289
 6  6.48250385508551 -2.76855180818082 -0.06752642674267
 6  7.68585771247125 -1.91305295109511  0.44208804340434
 6  9.04904351285129 -2.18065404740474 -0.13997071027103
 6  9.58483556365636 -3.62636253875388  0.17107023202320
 6  10.09916535213521 -1.10559118001800  0.56447441084108
 6  11.33211636893689 -0.91169396449645 -0.30430574117412
 6  12.15185280588059  0.26695588608861  0.27634842304230
 6  13.40047944204420  0.44027371427143 -0.56240599779978
 6  14.33770194319432 -0.74584531453145 -0.51360804600460
 6  14.20062000020002  1.77001177337734 -0.13459110151015
 6  15.32346162706271  2.27952988828883 -1.01851895959596
 6  15.81977159685968  3.70649315931593 -0.61742283528353
 6  17.19439383408341  4.03062197769777 -1.20045109290929
 6  17.11756073817382  4.09427499019902 -2.79051137113711
 6  17.70052347154715  5.36060418641864 -0.73723468046805
 1 -2.72303780968097  1.11779864346435  3.65101271247125
 1 -6.68751963486349  5.59401560376038  0.79142890559056
 1 -8.76252145124512  0.98819308080808 -3.20032541344134
 1 -3.61648871407141 -3.31504462116212  2.08821456355636
 1 -1.65163624962496 -1.16472408060806  2.54004617061706
 1 -2.81061038623862 -2.65463204410441  4.21628157405741
 1 -2.88677527762776 -1.27588970667067  4.96029216511651
 1 -4.27296897269727 -1.91268918691869  4.13696691929193
 1 -2.62464963056306 -3.36284932993299 -0.26716445104510
 1 -1.46479717941794 -1.91796042344234  0.27628847014702
 1 -0.72654704480448 -2.80750072237224  2.24767930903090
 1 -1.30262974157416 -4.44759159545955  1.66788582528253
 1 -1.85944459655966  3.35845053175318  4.11467384848485
 1 -2.74893254725473  4.64600423952395  4.76191185408541
 1 -3.02437236973697  3.00200339443944  5.03057003380338
 1 -4.93158701800180  6.69249723222322  2.14003611941194
 1 -10.03938792129213  2.76445359725973 -3.43490464506451
 1 -10.12828031093109  4.62494002850285 -3.12256524912491
 1 -9.70777653855386  3.77771567156716 -5.30969728032803
 1 -8.07309127512751  4.81359329992999 -4.71374105590559
 1 -7.93712398729873  2.94583889778978 -4.55318943364336
 1 -8.22167874947495 -1.07819107680768 -4.73830379937994
 1 -8.48969859775977 -2.70360742104210 -3.81631097499750
 1 -9.45686893599360 -1.45015164976498 -3.58123240834083
 1 -4.08200997699770 -3.73461928492849 -1.20038496859686
 1  2.56038398219822 -6.06636392949295  1.04018240614061
 1  1.80538386498650 -5.06940546694670 -0.50566600170017
 1  3.81578756115611 -4.38317844014401  1.98259662376238
 1  2.68573602550255 -3.55281683658366 -1.32472512261226
 1  4.05462280028003 -2.21546624722472 -1.65996421392139
 1  4.08010051745175 -3.82239409570957 -2.21747320462046
 1  4.94762863186319 -1.43501904650465  0.40823121422142
 1  5.41054341274127 -2.69872418961896  1.63008689498950
 1  6.48584780478048 -3.88508280778078 -0.05127580588059
 1  6.52577141664166 -2.69636185218522 -1.19139882608261
 1  7.45815661726173 -0.80072662696270  0.24702345564556
 1  7.53369227942794 -2.27340558905891  1.42991046344634
 1  8.91132703230323 -1.89895793649365 -1.23542176087609
 1  8.93710587598760 -4.31365022492249 -0.47688015821582
 1  10.38672170157016 -3.84805816051605 -0.27676525842584
 1  9.68258500610061 -3.84721044964496  1.25733669666967
 1  9.55189625052505  0.03709211961196  0.79915909030903
 1  10.30081904050405 -1.60634895419542  1.37563850115012
 1  11.86983891499150 -1.87812513421342 -0.42563187098710
 1  10.96701264146415 -0.78369000450045 -1.38430927462746
 1  11.48200821892189  1.23830690249025  0.37264005360536
 1  12.56940769946995 -0.03234195089509  1.31659083418342
 1  13.18942968526853  0.73818856165617 -1.74152035683568
 1  14.56291651885189 -1.02751576887689  0.57832292979298
 1  13.80102048854886 -1.64682786168617 -1.05842209630963
 1  15.27751760826083 -0.33229655735574 -1.02494489748975
 1  13.41932117771777  2.60913921312131 -0.00496037333733
 1  14.59858747094709  1.61809822432243  0.76801562886289
 1  16.25769449654965  1.63404886638664 -0.97996581158116
 1  15.20392518801880  2.27981623302330 -2.06617014791479
 1  15.22516397849785  4.63657686538654 -0.81691297129713
 1  16.04220385428543  3.68279423882388  0.53299575837584
 1  17.87469728652865  3.24782829132913 -0.91595598349835
 1  16.28903604040404  4.69567684658466 -3.08190246914692
 1  18.09167155705570  4.50956734993499 -3.37174460806081
 1  16.87834251955195  3.20915582678268 -3.23060361356136
 1  17.64864273827382  5.47275792879288  0.35287445314531
 1  18.70132774357436  5.47615384188419 -1.15929807090709
 1  17.21492406220622  6.27342175227523 -1.20809916201620
 1 -4.88444632923292 -7.94258535793579  0.21607729172917
 1 -6.23318380968097 -6.87969735113511  0.84213405670567
 1 -4.61809402680268 -6.89844972117212  1.73854672307231
 8 -7.83473636893689  6.91155118651865 -0.49763319171917
 1 -9.17380076387639  6.11057847354736 -1.92569103660366

