%nproc=3
%Mem=2GB
# td=(NStates=1) iop(3/107=0140000000,3/108=0140000000) iop(3/107=0140000000,3/108=0140000000) CAM-B3LYP/6-31G(d,p) 

TD

0 1
12 -5.69566529772977  1.20391041874187  0.23147581638164
 6 -4.91795191699170 -2.09799376407641 -0.39143220832083
 6 -3.47846930683068  1.19942248374837  2.87489892809281
 6 -6.12532895519552  4.57153517661766  0.58755111631163
 6 -8.02874379237924  1.15786446884688 -2.34543863776378
 7 -4.34739182368237 -0.30082600570057  1.13335350235023
 6 -4.28461368176818 -1.61586276767677  0.70276399489949
 6 -3.18293969566957 -2.26260745934593  1.48628421702170
 6 -2.83751790719072 -1.33462413211321  2.71664845144514
 6 -3.59880668066807  0.01311215861586  2.22908356695670
 6 -3.44053616161616 -1.83923061566157  4.04844270367037
 6 -1.94776962026203 -2.65056905010501  0.75810999709971
 6 -0.94297206010601 -3.55033012091209  1.53397727462746
 6  0.28029389678968 -3.89052392449245  0.69608776987699
 8  0.45989984388439 -3.32008169696970 -0.40420043544354
 8  1.02536421862186 -4.88172331713171  1.25474146264626
 7 -5.01102965396540  2.61497173387339  1.59036572317232
 6 -4.07887197439744  2.45679369536954  2.58542376817682
 6 -3.72461299849985  3.69359944244424  3.22428137253725
 6 -4.52522827852785  4.68787725322532  2.63724960916092
 6 -5.34514387678768  3.94825950245025  1.47423257515752
 6 -2.72387101200120  3.83800088378838  4.35171904240424
 6 -4.73415611561156  6.10451048524853  2.90732616941694
 8 -4.18295078237824  6.65710054025403  3.83629760226023
 7 -6.89237088668867  2.64437236973697 -0.73491615931593
 6 -6.89758195599560  3.97144755025503 -0.46167437053705
 6 -7.79777491769177  4.50950200700070 -1.29947275637564
 6 -8.47145017781778  3.59246837693769 -2.08131268366837
 6 -7.80815462696270  2.44210238433843 -1.81200497029703
 6 -8.09695197389739  6.07857922762276 -1.35311644624462
 6 -9.51893837223722  3.80039097739774 -3.19392194079408
 6 -8.82932191289129  4.09090045314531 -4.58096134283428
 7 -6.43292906020602 -0.09526470667067 -1.01125214561456
 6 -7.39621322802280 -0.02637354295430 -1.95429135173517
 6 -7.61930504710471 -1.24493964666467 -2.64166719131913
 6 -6.61819730343034 -2.23690746404640 -2.16988619851985
 6 -5.92220014351435 -1.35599962946295 -1.20042790749075
 6 -8.37706308100810 -1.60003979257926 -3.79175009440944
 6 -6.13788741584158 -3.58297740374037 -1.98409380328033
 8 -6.36031927252725 -4.61474644474447 -2.61278152385239
 6 -5.04812506600660 -3.56731849854986 -0.90901752255226
 6 -5.26594372197220 -4.58232343394339  0.15701285228523
 8 -5.63541772437244 -4.54598053145315  1.29506662696270
 8 -4.97578754195420 -5.79487337143714 -0.35529970137014
 6 -5.16303965316532 -6.89201279237924  0.58705624042404
 6  2.29593627522752 -5.09110537073707  0.60759874117412
 6  3.34470778087809 -4.09714121342134  0.92297358315832
 6  3.90903000670067 -3.31896171707171  0.04175655065507
 6  3.69257415471547 -3.42609579797980 -1.42214988378838
 6  5.05601980798080 -2.42846711491149  0.43806565746575
 6  6.50320592529253 -2.78915386838684 -0.11420109420942
 6  7.57801692839284 -1.94348599439944  0.40582441704170
 6  9.00055866436644 -1.96186216821682 -0.25360207340734
 6  9.55065214531453 -3.39439934243424  0.13009613461346
 6  9.99444488008801 -0.98992961386139  0.27666562996300
 6  11.28067122442244 -0.87980077517752 -0.34707001760176
 6  12.08832645324532  0.27731692219222  0.17394818301830
 6  13.54308370247025  0.45220490739074 -0.52080183738374
 6  14.54943311631163 -0.62916364636464 -0.26377306250625
 6  14.19618955715572  1.91845661786179 -0.16072371477148
 6  15.43966324722472  2.07559949524953 -0.97309441714171
 6  15.99734935463546  3.51693420342034 -0.61238233123312
 6  17.33411780648065  3.92546146164616 -1.33451449924992
 6  17.13895287738774  4.09014457715772 -2.75804812481248
 6  17.83914733393339  5.20309843584359 -0.73043400040004
 1 -2.85598110401040  1.00557742134213  3.63094070527053
 1 -6.32434331723172  5.55326152835284  0.71336109880988
 1 -8.63073827292729  1.22239650115012 -3.13410879177918
 1 -3.53317038223822 -3.19224234093409  2.00507624972497
 1 -1.81101218721872 -1.14857246544654  2.87427959395940
 1 -2.83634295949595 -2.80268684958496  4.17191713761376
 1 -3.15392199229923 -1.09563168086809  4.84235037093709
 1 -4.51538321412141 -1.89247716571657  4.21327455005501
 1 -2.12813997959796 -2.92418546354635 -0.24762249684969
 1 -1.41963266296630 -1.69117774517452  0.76783762506251
 1 -0.53650804090409 -3.14240421272127  2.44234877597760
 1 -1.30260973957396 -4.67796463276328  1.81261029772977
 1 -1.64610326242624  3.65895058175818  4.06244862596260
 1 -2.90077773177318  4.78833847294730  4.84211987488749
 1 -2.89636956945695  3.01669486358636  5.14721169796980
 1 -5.35836969626963  6.51964994749475  1.89389150495050
 1 -10.13933791629163  2.90368752065206 -3.22511366596660
 1 -10.35459294219422  4.58769630413041 -2.96205919851985
 1 -9.61746750765077  4.05526342634263 -5.40683699429943
 1 -8.40418438443844  4.99224116471647 -4.46201588338834
 1 -8.00085035993599  3.36468078197820 -5.01576569126913
 1 -8.16994357595760 -0.88470172787279 -4.61135110411041
 1 -8.28820844874488 -2.76099315961596 -4.06231557545755
 1 -9.44110735983598 -1.43675030963096 -3.71598588368837
 1 -4.30831260726073 -3.93349917291729 -1.55855078517852
 1  2.62612055585559 -6.13004029712971  1.03822221012101
 1  2.06013934053405 -5.23430195659566 -0.43622905800580
 1  3.68382436483648 -4.03657377967797  2.00606897099710
 1  2.55391284318432 -3.79683123802380 -1.53842649274928
 1  3.62412975097510 -2.45437013761376 -2.10592881038104
 1  4.25901840924092 -4.20104196049605 -1.87332879017902
 1  4.92689655865587 -1.50799634423442  0.44210460156016
 1  5.10925328372837 -2.62184650185018  1.57187107340734
 1  6.79665888588859 -3.88235253475347  0.27412673437344
 1  6.45562440194019 -3.09645186118612 -1.13202288848885
 1  7.19568036963696 -0.95621217551755  0.21296004930493
 1  7.53171208140814 -2.19735798429843  1.52616008840884
 1  8.87345324492449 -1.70742878357836 -1.35684390309031
 1  8.78768093349335 -4.25295415531553  0.02118964876488
 1  10.44225725512551 -3.65053840854085 -0.34977255915592
 1  9.67562431003100 -3.53529925852585  1.26935789878988
 1  9.52297335823582 -0.09045063466347  0.13308248264826
 1  10.23084204280428 -1.14114243354335  1.34215515281528
 1  11.77341927302730 -1.78599592129213 -0.40528983678368
 1  10.99690563076308 -0.68846048154815 -1.43859470317032
 1  11.51948196629663  1.12352542434243  0.35352814241424
 1  12.54082484118412  0.01241252455246  1.27413658875888
 1  13.37854859715972  0.53386812961296 -1.75327153195319
 1  15.26239646684668 -0.62302531983198  0.68113321082108
 1  14.20505089158916 -1.74359753865387 -0.28926518061806
 1  15.28845870237024 -0.47762108980898 -1.00805320832083
 1  13.44740398599860  2.65927422662266 -0.38271814911491
 1  14.35136274847485  2.13648006250625  0.88242707000700
 1  16.30038876597660  1.53810927242724 -0.78483629862986
 1  15.04683947944794  2.02767101850185 -2.04141767266727
 1  15.28535999809981  4.27855106280628 -0.78843012301230
 1  16.29262889678968  3.59276523592359  0.33904636343634
 1  18.16120593739374  3.18136164466447 -1.13451783968397
 1  16.38773591039104  4.90007728662866 -2.92113639253925
 1  17.94227661756176  4.23352974617462 -3.34203163676368
 1  16.76399108440844  3.06410132133213 -3.12463301650165
 1  18.21265913991399  5.16175682868287  0.22514167986799
 1  18.77891550235023  5.48943517001700 -1.19648178927893
 1  17.17601017081708  6.05486989708971 -0.75616396849685
 1 -4.90985887048705 -7.89712081148115  0.03826951095109
 1 -6.36880737203720 -6.87392677407741  0.73472331563156
 1 -4.67927014441444 -6.89613949014901  1.59274214261426
 8 -7.75811870717072  6.87609764116412 -0.52868629702970
 1 -8.82815619941994  6.19512692839284 -2.16874534203420

