%nproc=3
%Mem=2GB
# td=(NStates=1) iop(3/107=0140000000,3/108=0140000000) iop(3/107=0140000000,3/108=0140000000) CAM-B3LYP/6-31G(d,p) 

TD

0 1
12 -5.70244597579758  1.22782280998100  0.20859352815282
 6 -5.00167028882888 -2.19021298599860 -0.29381244634463
 6 -3.37271873177318  1.17234977647765  2.70036147434743
 6 -6.26372279457946  4.60704872797280  0.62446480768077
 6 -8.13713463146315  1.21870055245525 -2.33078717261726
 7 -4.43391047554755 -0.23954987808781  1.07922808980898
 6 -4.24188940934093 -1.57313849524953  0.73298701720172
 6 -3.23980538223822 -2.23743494209421  1.54593018161816
 6 -2.91150530593059 -1.26876754645465  2.57957474407441
 6 -3.59676647664766 -0.06004515711571  2.14304496309631
 6 -3.16891899989999 -1.71855854845485  4.01689954935494
 6 -2.01397624092409 -2.72891688488849  0.59146333243324
 6 -0.95681344424442 -3.68206329422942  1.32556643354335
 6  0.25675154255426 -3.96123099519952  0.53607176827683
 8  0.32471632553255 -3.37818750755076 -0.60557057245725
 8  1.05222690489049 -4.78074321912191  1.18814480298030
 7 -4.97084563556356  2.63615385208521  1.57062374897490
 6 -3.96155024222422  2.40347836383638  2.38288351415141
 6 -3.67561809900990  3.70858094059406  3.03452239663966
 6 -4.46200195589559  4.69086755225523  2.52491837603760
 6 -5.34794415681568  3.93808848534853  1.54582973487349
 6 -2.54876350125013  3.86707379107911  4.08964283478348
 6 -4.65723842384238  6.04614464866487  2.79192462926293
 8 -3.85076756405641  6.60783561376138  3.61122509500950
 7 -6.91872352195220  2.66193412591259 -0.64478714641464
 6 -7.03195539333933  3.99931033653365 -0.31671987508751
 6 -7.95543068326833  4.66830788758876 -1.20108291739174
 6 -8.42919595239524  3.69196832693269 -1.98326287868787
 6 -7.86421023252325  2.38680685478548 -1.66301007080708
 6 -8.34542682138214  6.07533890359036 -1.25709684428443
 6 -9.45639211761176  3.80982192049205 -3.14115666426643
 6 -8.72535151585159  3.82707407050705 -4.53724697139714
 7 -6.37638340564056 -0.10508568876888 -1.08093911431143
 6 -7.35257886458646  0.01689078347835 -2.01614753735374
 6 -7.55088820542054 -1.24572972567257 -2.67450047464746
 6 -6.66915239893989 -2.13461723502350 -1.99842905280528
 6 -6.06289421292129 -1.40224425392539 -0.97417528222822
 6 -8.62875825052505 -1.58443823242324 -3.70228114751475
 6 -6.19786341344134 -3.54013311931193 -1.90583597749775
 8 -6.55172841344134 -4.52683765386539 -2.62920316601660
 6 -5.12518277177718 -3.60135190189019 -0.93624024482448
 6 -5.41887901550155 -4.59486468806881  0.16080323132313
 8 -5.78785296789679 -4.55346127952795  1.27854497479748
 8 -5.11847181038104 -5.80977486158616 -0.36580075147515
 6 -5.16891024022402 -6.99742333343334  0.46513404820482
 6  2.26495317691769 -5.13900016021602  0.46643462476248
 6  3.37988129822982 -4.21397289658966  0.92200348614861
 6  4.08312741644164 -3.35327514841484  0.12998537353735
 6  3.74794969226923 -3.04106729512951 -1.33384105290529
 6  5.32872707870787 -2.68025229342934  0.68973082398240
 6  6.61582718741874 -2.92343729672967  0.05078540444044
 6  7.63174230093009 -1.99781142694269  0.58847268186819
 6  9.09933854235424 -2.07967394939494 -0.04159087228723
 6  9.71099817991799 -3.48181808430843  0.20565369036904
 6  9.99641507710771 -0.96704732563256  0.50441840524052
 6  11.34560771807181 -0.89287208230823 -0.22168747934793
 6  12.24387200780078  0.36980617111711  0.10270105830583
 6  13.56307570167017  0.51837152405241 -0.60587034423442
 6  14.47808598159816 -0.63024375437544 -0.27052373757376
 6  14.18610854905491  1.93454822702270 -0.24461210361036
 6  15.40769004990499  2.25238717401740 -0.92460956865687
 6  15.99365898559856  3.65694820482048 -0.62535362836284
 6  17.39363375807581  3.90457937343734 -1.23925497329733
 6  17.20612959505951  4.04324988768877 -2.77071939193919
 6  17.84510792999300  5.24250237623762 -0.71397235423542
 1 -2.58829433533353  1.25727259085909  3.46227383858386
 1 -6.52618350125012  5.79794599679968  0.90442020472047
 1 -8.84263946304631  1.01678594009401 -3.15715109600960
 1 -3.61474854005401 -3.03650676737674  2.02380812291229
 1 -1.84048513451345 -0.91258886708671  2.57376954295430
 1 -2.70543986918692 -2.38207478837884  4.42262220812081
 1 -3.08925552565257 -0.86339845754575  4.63283941984198
 1 -4.30539221502150 -1.92754067206721  4.14497772037204
 1 -2.31339850545055 -3.31096414141414 -0.28191592619262
 1 -1.33949464916492 -1.96210483788379  0.22054289558956
 1 -0.53438782888289 -3.41412138443844  2.18206274737474
 1 -1.58075755435544 -4.46399323562356  1.64396343304330
 1 -1.74201285338534  3.23805849254925  3.64189657075708
 1 -2.33427108110811  4.97882752185218  4.13735939883988
 1 -2.93708364086409  3.44652784688469  5.11840881768177
 1 -5.46169002830283  6.66636461896190  2.33398551435143
 1 -10.33568755125513  2.99734688658866 -3.14013516811681
 1 -10.02447993089309  4.95762329682968 -2.99509250185019
 1 -9.50387614851485  3.78294619461946 -5.23268957955796
 1 -7.91663562956296  4.54813675427543 -4.60249993179318
 1 -8.26200647554755  2.65894020792079 -4.45403951865186
 1 -8.37305388698870 -1.17153041074107 -4.64105407440744
 1 -8.54400402830283 -2.81796885718572 -3.75484482838284
 1 -9.64025727482748 -1.52631926652665 -3.21714599969997
 1 -4.13265504150415 -3.88110393339334 -1.49563449354935
 1  2.47139508330833 -6.10093738683868  0.85469385728573
 1  2.29427275387539 -5.21690021642164 -0.58295373047305
 1  3.71234721712171 -4.47110723302330  1.96478484258426
 1  2.63928138003800 -3.34450600550055 -1.54045669576958
 1  3.68960629862986 -1.97695239583958 -1.50902912041204
 1  4.45812832023202 -3.52265412171217 -1.93232468976898
 1  5.33305717471747 -1.42884842944294  0.49185957705771
 1  5.52100445884588 -2.85076939413941  1.70888477477748
 1  7.06733595359536 -3.87512181168117  0.13280260196020
 1  6.60773961346135 -2.76561877787779 -1.06872655885589
 1  7.03238404000400 -1.20752730703070  0.56633538683868
 1  8.01206011621162 -2.25004325282528  1.78366583898390
 1  8.69550545014502 -1.76689473017302 -1.03959217791779
 1  9.11696386178618 -4.33906276617662 -0.05421789198920
 1  10.62599562896290 -3.37418077277728 -0.22523010491049
 1  10.01923867146715 -3.52879860846085  1.28146910991099
 1  9.60809187008701  0.06194460486049  0.35415458985899
 1  10.28013697229723 -1.09264758405841  1.44049498679868
 1  11.88147007810781 -1.72054937663766  0.09991068326833
 1  11.20937687788779 -1.09819145464546 -1.39901074477448
 1  11.78184820292029  1.28652172397240  0.05368815841584
 1  12.12423318201820  0.44598588188819  1.29857903300330
 1  13.25794653695369  0.21276601940194 -1.79782598739874
 1  14.82788301550155 -0.69902291959196  0.76587168466847
 1  14.09439982648265 -1.54277745664566 -0.43961021512151
 1  15.45474533103310 -0.74427775547555 -0.67210961396140
 1  13.54425367096710  2.70016831603160 -0.29020889818982
 1  14.37993560576058  1.82830924542454  0.84625345264526
 1  16.25590431753175  1.56683214471447 -0.78401621662166
 1  15.41295609110911  2.32655090649065 -2.06014954585459
 1  15.30153161526153  4.42857606530653 -0.84282556255626
 1  16.33396303020302  3.63462942234223  0.48531098989899
 1  17.88276809360936  2.90347385588559 -1.07656204410441
 1  16.47174431123112  4.81298857775778 -2.96452073097310
 1  18.21600399029903  4.05780217341734 -3.37623505710571
 1  16.59969465476548  3.28163307450745 -3.28125867906791
 1  17.86303417741774  5.09275992899290  0.40530969666967
 1  18.85931354215422  5.51874810131013 -1.00835297639764
 1  17.32490506030603  6.09529393949395 -0.88378673077308
 1 -4.81581946654665 -7.90934203360336 -0.23365768176818
 1 -6.22577306860686 -7.03210259165917  0.71926176947695
 1 -4.73474569196920 -6.84788466466647  1.49899276767677
 8 -8.00521341664166  6.96099613101310 -0.45149857825783
 1 -9.10280366416642  6.40246766246625 -1.95249371687169

