%nproc=3
%Mem=2GB
# td=(NStates=1) iop(3/107=0140000000,3/108=0140000000) iop(3/107=0140000000,3/108=0140000000) CAM-B3LYP/6-31G(d,p) 

TD

0 1
12 -5.63890962216222  1.24874490219022  0.18626129492949
 6 -5.02948307010701 -1.97996196089609 -0.39015208030803
 6 -3.35165662556256  1.13646618811881  2.70017145534553
 6 -6.19010543284328  4.54199222232223  0.59707206840684
 6 -7.83081399939994  1.26879556195620 -2.46604069796980
 7 -4.31546863136314 -0.25648157125713  1.09022918991899
 6 -4.18442366276628 -1.51966314771477  0.66374009250925
 6 -3.21196259795980 -2.32967416601660  1.46216180478048
 6 -2.92185634103410 -1.29450011971197  2.58588537513751
 6 -3.55998279827983 -0.02256140874087  2.14420507910791
 6 -3.54113622162216 -1.79539623222322  3.93172103150315
 6 -1.94699954325433 -2.66815080828083  0.58674286038604
 6 -0.88647641054105 -3.56960204810481  1.36863073997400
 6  0.33802967036704 -3.93081795389539  0.62901106220622
 8  0.52418627252725 -3.55696538533853 -0.47321733713371
 8  1.08218990119012 -4.78869401420142  1.32933892239224
 7 -4.98979753075308  2.54245448214821  1.47855454205421
 6 -4.05076916411641  2.41829984598460  2.47569279507951
 6 -3.78985952315232  3.58716879937994  3.29433837823782
 6 -4.59204496019602  4.53760222572257  2.64211009520952
 6 -5.23928329072907  3.92010668716872  1.53205835773577
 6 -2.88357698259826  3.82617970167017  4.39399326982698
 6 -4.76285898589859  5.97179721392139  3.10179561636164
 8 -4.13406589388939  6.55373020322032  3.85590956345635
 7 -6.80583223282328  2.58607654015402 -0.73383605130513
 6 -6.90580277807781  3.94902530803080 -0.33897210031003
 6 -7.84564970517052  4.62281333813381 -1.16571938103810
 6 -8.38218125092509  3.69331846194619 -2.14529908230823
 6 -7.68272208370837  2.47034520862086 -1.82000577037704
 6 -8.37838011671167  6.08731010071007 -1.06678781338134
 6 -9.31644812321232  3.92136307460746 -3.26252880148015
 6 -8.75236421712171  3.95415677877788 -4.69774302100210
 7 -6.33666943424342 -0.02472765296530 -1.15803682408241
 6 -7.32141574827483 -0.04927583318332 -2.17816373897390
 6 -7.46157927452745 -1.33608876157616 -2.87724074867487
 6 -6.59461494519452 -2.11240501380138 -2.05278448834883
 6 -5.97588551205120 -1.30335436493649 -1.08818668336834
 6 -8.63173854855486 -1.70138992759276 -3.82993391279128
 6 -6.12811643874387 -3.54736384238424 -1.98641403530353
 8 -6.52842608320832 -4.51130610071007 -2.58024827052705
 6 -5.03660391389139 -3.55611737843784 -0.89703632443244
 6 -5.23052017961796 -4.50275547714772  0.10638778977898
 8 -5.60534471707171 -4.38961489488949  1.29530665096510
 8 -5.00560052325233 -5.81194507860786 -0.35526969836984
 6 -5.23479682888289 -6.74573816491649  0.57485502030203
 6  2.32387906950695 -5.17261352155216  0.77753573487349
 6  3.32662597269727 -4.08163966326633  0.99099038483848
 6  4.01081018471847 -3.31699152005201  0.10681305630563
 6  3.63445834313431 -3.24631782018202 -1.34946261506151
 6  5.11247545354535 -2.40679494769477  0.64400625152515
 6  6.57999360406041 -2.78612356535654  0.17258758465847
 6  7.70577970467047 -1.81494314011401  0.68601243584358
 6  9.09497810631063 -2.12827880988099  0.11400468726873
 6  9.62677975807581 -3.51329123162316  0.43150627562756
 6  10.09676511211121 -0.95395601650165  0.49934789818982
 6  11.27527068436844 -0.92964575967597 -0.37721303190319
 6  12.22781040164016  0.19208839933993  0.14820560876088
 6  13.50409980408041  0.45525521242124 -0.67106686388639
 6  14.40741891489149 -0.75844657465747 -0.55658234343434
 6  14.07440737893789  1.83089786198620 -0.28495613801380
 6  15.33035231613161  2.14148608390839 -1.05696280398040
 6  15.97659727942794  3.55315782578258 -0.65954704770477
 6  17.28796319101910  3.97006592209221 -1.39914096189619
 6  17.07713669576958  4.01565712841284 -2.93057537753775
 6  17.68927234643464  5.39235736173617 -0.84389534653465
 1 -2.72613811971197  0.96940380398040  3.62175978717872
 1 -6.22058294119412  5.68733493569357  0.89476923962396
 1 -8.69845504460446  1.30378463996400 -3.27245262616262
 1 -3.48737580278028 -3.20604372107211  1.88351409350935
 1 -1.81307239323932 -1.22442005020502  2.60030219621962
 1 -2.99551887708771 -2.70363694459446  4.28825877177718
 1 -3.50679727982798 -1.03378549624962  4.81225736163616
 1 -4.77843951975198 -2.16916483448345  3.78142136473647
 1 -2.14981214681468 -3.38386143114311 -0.11033876847685
 1 -1.38959965966597 -1.80219884728473  0.25319616091609
 1 -0.79771416151615 -2.86697666996700  2.21029557065707
 1 -1.33747322592259 -4.55955279157916  1.77137617431743
 1 -1.78468712081208  3.72057674437444  4.15624800590059
 1 -3.01233888788879  4.82014165326533  4.85679134203420
 1 -3.13091302380238  3.16243943804380  5.05349232603260
 1 -5.60482434173417  6.58207619011901  2.55628774457446
 1 -10.07358134063406  3.04616176807681 -3.14554570917092
 1 -9.81191867476748  4.89169670417042 -3.04623761636164
 1 -9.65384114501450  3.93477137713771 -5.31731804240424
 1 -8.29797376337634  4.96307824842484 -4.88655833763376
 1 -8.23317359225923  2.93548786268627 -5.06327044174417
 1 -8.81149773137314 -1.01368462616262 -4.72138210721072
 1 -8.36292592049205 -2.71239830013001 -4.25585492939294
 1 -9.55115836493649 -1.80512714731473 -3.17189147424742
 1 -4.12507428342834 -3.77505332833283 -1.38278320842084
 1  2.88927687148715 -5.98579587268727  1.09740812871287
 1  2.21222454905491 -5.22060058645865 -0.40655609070907
 1  3.89144512691269 -4.08574869716972  1.91539990409041
 1  2.61913936583658 -3.35446700160016 -1.55481813191319
 1  3.91984932293229 -2.29963466406641 -1.72540075757576
 1  4.38277078447845 -3.83531538783878 -2.04278573587359
 1  4.77895176417642 -1.38265380998100  0.30874126522652
 1  5.02716507490749 -2.35514983218322  1.73449733603360
 1  6.90605982598260 -3.84466876637664  0.51743106480648
 1  6.57769660916092 -2.83687590359036 -0.99693938013801
 1  7.30655145674567 -0.80144669896990  0.72970172347235
 1  7.75091400160016 -2.17855610411041  1.81336880928093
 1  8.84821072067207 -1.91476951765177 -1.04316253495349
 1  8.82305447084708 -4.27895675557556 -0.02968543874387
 1  10.48137116651665 -3.90360371507151 -0.07334491639164
 1  9.76215296289629 -3.62547827642764  1.65326628962896
 1  9.58855991689169 -0.13778536813681  0.48974814921492
 1  10.33849280788079 -1.21316963626363  1.62419335663566
 1  12.08029996109611 -1.88061538323832 -0.35448475627563
 1  10.89793573377338 -0.74850648614861 -1.36982782648265
 1  11.64252427052705  1.24856792859286  0.12957574717472
 1  12.32218297699770  0.12010329362936  1.18745792089209
 1  13.11635237753775  0.56209095189519 -1.74974117891789
 1  14.54548477567757 -0.88599161646165  0.53316841434143
 1  14.12298268476848 -1.74430760966097 -0.96902315641564
 1  15.40598045454545 -0.56950027772777 -1.14240664366437
 1  13.37042628822882  2.59814811401140 -0.41503138043804
 1  14.40834844704471  1.68001441594159  0.69722855015502
 1  16.13902262936293  1.34719018051805 -1.04239205420542
 1  15.17618241374137  2.35015326672667 -2.12380591149115
 1  15.38131959405941  4.30598380608061 -0.77141842184218
 1  16.15818545244524  3.39950590999100  0.35320777957796
 1  18.09429924672467  3.25407891639164 -1.04733912181218
 1  16.18122525932593  4.51777905680568 -3.41593587248725
 1  17.95654804470447  4.55520191339134 -3.31688912251225
 1  16.93186787208721  2.92201711291129 -3.23608416161616
 1  17.77227510151015  5.33914456745675  0.24259342504250
 1  18.60741835263526  5.60626685318532 -1.10388252935293
 1  16.65480805060506  6.06839124922492 -1.19550790289029
 1 -5.06188407300730 -7.76007710711071  0.15070075407541
 1 -6.36228671997200 -6.74154353575358  0.98584842814281
 1 -4.89860207760776 -6.67500737693769  1.54348721712171
 8 -7.89957285258526  6.83590362176218 -0.36473990239024
 1 -9.22436582038204  6.38876629232923 -1.70311877937794

