%nproc=3
%Mem=2GB
# td=(NStates=1) iop(3/107=0140000000,3/108=0140000000) iop(3/107=0140000000,3/108=0140000000) CAM-B3LYP/6-31G(d,p) 

TD

0 1
12 -5.58642437363736  1.28065809350935  0.17342001080108
 6 -4.97007712951295 -2.20453441814181 -0.38976204130413
 6 -3.27416887678768  1.18769131063106  2.72759419761976
 6 -6.12101852415242  4.62866088918892  0.59245160636064
 6 -7.98712963096310  1.21880056245625 -2.46839093299330
 7 -4.36641372587259 -0.28297422052205  1.09771993899390
 6 -4.26771199159916 -1.61090227162716  0.69043276177618
 6 -3.23554495619562 -2.40173137173717  1.53688927752775
 6 -2.92369652505251 -1.38998966866687  2.76418320492049
 6 -3.51882868286829 -0.09967912051205  2.12902356095610
 6 -3.53554566256626 -1.80381707430743  4.01323918331833
 6 -1.94639948324832 -2.82250624382438  0.68667285338534
 6 -1.00449821272127 -3.62260734863486  1.43250712761276
 6  0.33909977737774 -3.92288716081608  0.65471363246325
 8  0.57374122802280 -3.50310999979998 -0.49733974937494
 8  1.16402808500850 -4.79980512531253  1.35786177467747
 7 -4.89448799979998  2.65483572027203  1.46030271687169
 6 -3.98312239943994  2.34194221022102  2.41923714951495
 6 -3.64495503270327  3.64248433093309  3.10482942734273
 6 -4.50838659435944  4.56105457095710  2.55436132033203
 6 -5.24186354875488  3.92455713221322  1.53782893479348
 6 -2.74939356425643  3.85209229292929  4.22826669716972
 6 -4.51119381938194  6.06382641684168  2.81390682748275
 8 -3.92880536783678  6.68111294149415  3.56499047154715
 7 -6.82256390599060  2.69457739023902 -0.69755242294229
 6 -6.89978217601760  4.00407081258126 -0.34096229932993
 6 -7.80729586978698  4.61322237903790 -1.21713452255225
 6 -8.40999403220322  3.68806793689369 -2.11233578597860
 6 -7.69886369786979  2.48623679777978 -1.79706347614761
 6 -8.21344362306231  6.04918628832883 -1.24343547814781
 6 -9.61763824222422  3.87610854915492 -3.00902345094509
 6 -9.11050003070307  4.07979934303430 -4.55868911561156
 7 -6.29685545284528 -0.10075525572557 -0.98562958335834
 6 -7.22267587428743  0.05312440684068 -2.12209813241324
 6 -7.51436455305531 -1.35599075177518 -2.71907493209321
 6 -6.73885936963696 -2.20921469476948 -1.97729693959396
 6 -5.93031095459546 -1.35414944444444 -1.08445631033103
 6 -8.56265163986399 -1.57715750435044 -3.87310823022302
 6 -6.14680830793079 -3.58088719471947 -1.97277267116712
 8 -6.59421266186619 -4.59365433553355 -2.44561480718072
 6 -5.02434268776878 -3.57758952565257 -0.90574719551955
 6 -5.31073820142014 -4.61966716831683  0.09548669966997
 8 -5.61957614021402 -4.42685861926193  1.23424054435444
 8 -5.10737070027003 -5.81702558665867 -0.33237740914091
 6 -5.41001435063506 -6.90580417151715  0.59949748454845
 6  2.39897657925793 -5.13941020122012  0.72773075437544
 6  3.46152946304630 -4.15851735103510  1.02860414621462
 6  4.05409451315132 -3.39586940784078  0.02801517651765
 6  3.65510040734073 -3.46212940134013 -1.46072374117412
 6  5.04874908090809 -2.42178644684468  0.46158800970097
 6  6.43115872057206 -2.75889084208421 -0.04263393749375
 6  7.62785191189119 -1.91800344614461  0.57605143974397
 6  8.94411301980198 -2.01215719771977 -0.21201791499150
 6  9.56532361246125 -3.35175507800780  0.11914503950395
 6  9.89849528512851 -0.94986560746075  0.38458642204220
 6  11.30717387468747 -0.95921871697170 -0.31737704830483
 6  12.13903152375238  0.30238942944294  0.12777356555656
 6  13.50778017211721  0.42997268416842 -0.46782653985399
 6  14.43861203420342 -0.72312304230423 -0.41350803600360
 6  14.18013795199520  1.81762653485349 -0.05320296269627
 6  15.44085336623662  2.22066400170017 -1.00860796849685
 6  15.92310192989299  3.60332284228423 -0.52749384238424
 6  17.25805019971997  3.96489540504050 -1.22443349114911
 6  17.10667965006501  4.11652721542154 -2.76628894889489
 6  17.70315373457345  5.37196532253225 -0.73044400140014
 1 -2.69150465636564  1.12764962856286  3.47260487168717
 1 -6.43369425232523  5.72350855305531  0.84169393209321
 1 -8.73761896099610  1.27467172867287 -3.34755013591359
 1 -3.58938600380038 -3.16366948364836  2.04565030713071
 1 -1.94690577657766 -1.28388599679968  2.88463062906291
 1 -3.05310463566357 -2.77198377927793  4.23210315621562
 1 -3.31954855495550 -0.74700681838184  4.86231236713671
 1 -4.60373204900490 -1.74853277127713  3.92339556215622
 1 -2.31330849644964 -3.42762580758076 -0.09476721132113
 1 -1.46152685238524 -1.98012664006401  0.22597343864386
 1 -0.62341673177318 -2.86082605490549  2.14550909200920
 1 -1.54661414001400 -4.49391622792279  1.94282331903190
 1 -1.76769542164216  3.82352703940394  3.94394677577758
 1 -2.70175782978298  4.80543018211821  4.52714837773777
 1 -3.01500143264326  3.15868906300630  5.03246022282228
 1 -5.19300315961596  6.62847082958296  2.36531864766477
 1 -10.08519250175017  2.92414956685669 -2.93427458205821
 1 -10.15059254215422  4.71817935243524 -2.52839583218322
 1 -10.14025978687869  4.18164606460646 -5.14952126272627
 1 -8.55988995499550  5.22691463206321 -4.49943962576258
 1 -8.56570684558456  3.37853216711671 -4.98440255495550
 1 -8.49100568216822 -0.43836709440944 -4.45645561456146
 1 -8.01429105700570 -2.54676173647365 -4.54876422032203
 1 -9.59952320142014 -1.96251288588859 -3.34774906000600
 1 -4.18130990699070 -3.87600342334233 -1.64502943304330
 1  2.72391033483348 -6.13324061716172  0.86913530143014
 1  2.34149747634763 -5.28402692909291 -0.31994742984298
 1  4.03700968336834 -3.90072019431943  2.14141250535053
 1  2.66248370027003 -3.67051860676068 -1.38625127522752
 1  3.64052139013901 -2.59706440704070 -1.92311052855286
 1  4.35293780118012 -3.92967482378238 -2.23785524282428
 1  4.69931380038004 -1.40102564716472  0.27153754485449
 1  5.02843520192019 -2.35133945114511  1.72149603590359
 1  6.70916013601360 -3.76827112661266  0.31207052875288
 1  6.62672151165116 -3.03038525452545 -1.18461814801480
 1  7.45285608720872 -0.82821937623762  0.50257901120112
 1  7.71356026622662 -2.26977522602260  1.67643511591159
 1  8.80245614521452 -1.82590063076308 -1.34475269396940
 1  8.86269843524352 -4.27451631153115 -0.08684115431543
 1  10.55220825022502 -3.54358771347135 -0.58688627052705
 1  9.99842659025903 -3.24480020862086  1.15286624962496
 1  9.33486454735474 -0.01343293289329  0.13922309670967
 1  10.13952291089109 -1.12457077637764  1.51643258055806
 1  11.77553948504850 -1.97796511821182 -0.02544185198520
 1  11.18710465066507 -0.90844247974798 -1.48124896859686
 1  11.86619663776378  1.31030410221022  0.17877066666667
 1  12.26984774347435  0.09415069836984  1.37276645174517
 1  13.32673341564156  0.64330907370737 -1.67436364116412
 1  14.56116634383438 -0.88510152745274  0.72006710421042
 1  14.06920730723072 -1.56403958285829 -1.06211246534654
 1  15.41268112461246 -0.26168949664967 -0.83697610061006
 1  13.46397564316432  2.66996529572957 -0.23313319061906
 1  14.45234284648465  1.78305471997200  1.00982981028103
 1  16.10071879897990  1.38598405990599 -0.74764257925793
 1  15.12759755525553  2.20117836923692 -1.93414694559456
 1  15.25395685778578  4.38417162486249 -0.88695997599760
 1  16.02429206310631  3.47641360076008  0.61732419121912
 1  18.12976279307931  3.19014252275228 -1.05322971087109
 1  16.47886502330233  4.82755003390339 -2.98128240714071
 1  18.14396678657866  4.15410180338034 -3.16489392299230
 1  16.71919660496049  3.15299021022102 -3.21868242144214
 1  17.80861873587359  5.35413606660666  0.32516168186819
 1  18.58499611041104  6.00052627912791 -1.14930707180718
 1  16.84994756455646  6.03477788788879 -0.92245059715972
 1 -4.87588547314731 -7.62222332173217  0.11992767676768
 1 -6.43138362966297 -6.99008839023903  0.79232907620762
 1 -4.94088630603060 -6.65911578777878  1.63793666206621
 8 -7.88667156245624  6.86581661306131 -0.34786821522152
 1 -9.03976736053605  6.32834024972497 -2.00437890539054

