%nproc=3
%Mem=2GB
# td=(NStates=1) iop(3/107=0140000000,3/108=0140000000) iop(3/107=0140000000,3/108=0140000000) CAM-B3LYP/6-31G(d,p) 

TD

0 1
12 -5.70096582778278  1.24987501520152  0.26032870167017
 6 -4.94249437123712 -2.16937090179018 -0.45478854395440
 6 -3.50988244814481  1.03438598009801  2.89686112431243
 6 -6.22742916521652  4.60288831193119  0.68088044924492
 6 -7.99380029802980  1.22274095649565 -2.35726982088209
 7 -4.37676476097610 -0.32672859595960  0.99534970197020
 6 -4.20299551995199 -1.65187636903690  0.54407812631263
 6 -3.16289769146915 -2.39124032263226  1.41489707830783
 6 -2.97916207160716 -1.45113578327833  2.54079086568657
 6 -3.57637443744374 -0.17236638923892  2.05625628422842
 6 -3.47051915991599 -1.89269596219622  3.92782064146415
 6 -1.90781562486249 -2.69142313551355  0.65672985908591
 6 -0.91607937083708 -3.50558564646465  1.53203708060806
 6  0.34465033243324 -3.89989486158616  0.69176733783378
 8  0.54491834573457 -3.46122581138114 -0.41741175657566
 8  1.13455513771377 -4.72520766556656  1.37952394089409
 7 -4.94111266226623  2.64961519821982  1.37234392099210
 6 -4.07090117731773  2.33010102610261  2.44091931773177
 6 -3.74287482468247  3.57846792929293  3.16596554095410
 6 -4.54224998069807  4.61759022452245  2.62425831003100
 6 -5.28993835623562  4.02803748024802  1.45105025692569
 6 -2.80206883178318  3.65852293599360  4.17537140764076
 6 -4.48715141514151  6.02405243944394  3.01866730353035
 8 -3.88276076337634  6.50293512371237  3.97761173367337
 7 -6.83717536713671  2.62712064456446 -0.65641830953095
 6 -6.94951714951495  3.96563696919692 -0.33606180928093
 6 -7.85818095829583  4.64041509830983 -1.26589939903990
 6 -8.47729076187619  3.64358348844885 -2.00210476287629
 6 -7.74431824332433  2.43218139223922 -1.73946771657166
 6 -8.08344062276228  6.13201457115712 -1.19683081768177
 6 -9.33545002340234  3.94270520882088 -3.18410095869587
 6 -8.79858883958396  3.88001936503650 -4.56296954365436
 7 -6.35050081738174 -0.09274445464546 -1.14581560196020
 6 -7.37565117181718  0.00211930633063 -2.10882680528053
 6 -7.57610072667267 -1.34160931363136 -2.68613163776378
 6 -6.70115559925993 -2.16473024632463 -2.11356056595660
 6 -5.86659458295830 -1.35374940444044 -1.16739460416042
 6 -8.51774714941494 -1.54722451105111 -3.80172109150915
 6 -6.25841946904690 -3.52244135013501 -2.06277167106711
 8 -6.70663390399040 -4.49526449654966 -2.64847509320932
 6 -5.08135838933893 -3.52281404810481 -1.03345996679668
 6 -5.19317644524452 -4.60027522912291 -0.03284613361336
 8 -5.74188837143714 -4.44750068346835  1.05324244454445
 8 -4.92318228142814 -5.82962684678468 -0.49156332773277
 6 -5.31103445264526 -6.93462705380538  0.43228076287629
 6  2.37443412501250 -5.09990625082508  0.67207518881888
 6  3.42614592469247 -4.11358285758576  1.14673595939594
 6  4.07458656235624 -3.22749257015702  0.37571994699470
 6  3.73578847614761 -2.98756194459446 -1.14026169496950
 6  5.16212041804180 -2.39440370857086  0.91069292019202
 6  6.56735233993399 -2.75302025502550  0.42150247614761
 6  7.57136626332633 -1.82298394419442  0.71756559115912
 6  8.94016262476248 -1.95622160416042  0.12934622142214
 6  9.56941402150215 -3.29869977247725  0.42563568856886
 6  9.87019245484549 -0.90890151105111  0.52594055745575
 6  11.18517167446745 -0.74713750885088 -0.35979128972897
 6  12.15096271687169  0.30007919841984  0.12319310751075
 6  13.47401679577958  0.51522120902090 -0.63200295749575
 6  14.39354752775278 -0.76190692069207 -0.28794547974798
 6  14.18451839003900  1.78717348954896 -0.34483212561256
 6  15.41915119601960  2.08910084538454 -1.13656076377638
 6  15.95245486518652  3.50465297529753 -0.91879297229723
 6  17.27773216791679  3.86634555005501 -1.50615166296630
 6  17.17445642774278  4.09818538123812 -3.00968328832883
 6  17.76405982518252  5.23309143514351 -0.91197215421542
 1 -3.12881838773877  0.81919878347835  3.85477308850885
 1 -6.50868175107511  5.76423262546255  0.69519928262826
 1 -8.68029322842284  1.21990625212521 -3.12690807170717
 1 -3.71558862406241 -3.29295241194119  1.69242498459846
 1 -1.87154824082408 -1.36115372357236  2.70380254625463
 1 -2.98954828002800 -2.74697127802780  4.28764871077108
 1 -3.43538013811381 -0.90981309900990  4.73355949184919
 1 -4.51167284308431 -2.20699861786179  3.63852707530753
 1 -1.97583474907491 -3.37775082008201 -0.36446418101810
 1 -1.05878657835784 -1.80258888628863  0.23124396569657
 1 -0.55174956505651 -2.88398837113711  2.53159770087009
 1 -1.52559203780378 -4.43943077937794  1.76420545724573
 1 -1.91303995609561  3.20128481518152  3.86832921402140
 1 -2.30052770677068  4.76136577567757  4.51957762066207
 1 -3.21800173267327  3.17801099519952  5.21143812061206
 1 -5.24360822012201  6.71644962746275  2.36330844664466
 1 -10.14451843434343  3.24069122102210 -3.26817797239724
 1 -9.77272475537554  4.89481701620162 -3.20347333993399
 1 -9.52762852375237  4.02235013501350 -5.35118142874287
 1 -7.94016798279828  4.47463940454045 -4.72520220202020
 1 -8.22610288518852  2.93144745864586 -4.72267638233823
 1 -8.30524710631063 -0.88539179687969 -4.73408337733773
 1 -8.62138176607661 -2.52623968426843 -4.03779312321232
 1 -9.64297754685468 -1.33888052265226 -3.35410969606961
 1 -4.22917469346935 -3.78319414241424 -1.61809673977398
 1  2.53999194299430 -6.00684797789779  1.13490187808781
 1  2.25354868146815 -5.15851437783778 -0.31924735983598
 1  3.43022900530053 -4.38748887118712  2.12409077317732
 1  2.76333378527853 -3.53642519741974 -1.43218586868687
 1  3.78869620762076 -1.94166886748675 -1.24277249474947
 1  4.44758726612661 -3.53769562586259 -1.84792624992499
 1  4.94621849084908 -1.42043758835884  1.08459885098510
 1  5.02066442484248 -2.55718003520352  2.01327521382138
 1  6.79554877487749 -3.71357565706571  0.64022334403440
 1  6.56169500900090 -2.77793000900090 -0.71807149334933
 1  7.24183498509851 -0.61090764506451  0.47134588788879
 1  7.75359426962696 -1.88247649614961  1.78641611401140
 1  8.83075897549755 -1.77792583328333 -1.00874909360936
 1  8.97086925232523 -4.04149300920092 -0.08843131333133
 1  10.61124415381538 -3.56795014971497  0.23397581568157
 1  9.61148789638964 -3.28361409000900  1.59829079207921
 1  9.23450451135114  0.04167257765777  0.53653282768277
 1  10.29914887348735 -1.01310963026303  1.55182611991199
 1  11.87625955705571 -1.58797611931193 -0.28372768056806
 1  10.84341028122812 -0.55884752025203 -1.41565240894089
 1  11.53524354245424  1.34923799559956 -0.08740595099510
 1  12.16818757745775  0.31732301560156  1.26704587968797
 1  13.15396613891389  0.67057179998000 -1.77704390919092
 1  14.29934016121612 -0.73737675497550  0.72318741624162
 1  13.91039142564257 -1.60608378727873 -0.74289054315432
 1  15.24682453895390 -0.82148547624762 -0.67507991099110
 1  13.31570081568157  2.69056735593559 -0.59541941924192
 1  14.53590120232023  1.73475989048905  0.85789461676168
 1  16.12924165126513  1.62165762726273 -0.79108692369237
 1  15.12146694219422  1.95690394179418 -2.26301983288329
 1  14.87437889999000  4.36121932963296 -1.07478875887589
 1  16.09102873677368  3.50673663306331  0.22517497629763
 1  18.10839065586559  3.06093960246025 -1.41575596349635
 1  16.20616775357536  4.65424270317032 -3.08987326622662
 1  17.97835022492249  4.52021841504150 -3.54205163876388
 1  16.71328601390139  3.27227213841384 -3.58414896809681
 1  17.63570144414441  4.98521917491749  0.08073723942394
 1  18.79153676447645  5.42503873037304 -1.19387152825283
 1  17.14098666846685  5.93762817291729 -1.31860021212121
 1 -5.06324420902090 -7.79891099049905 -0.17091140714071
 1 -6.24320481178118 -7.02134151555156  0.64111395469547
 1 -4.71720393779378 -7.07116699289929  1.25937880628063
 8 -7.62394528982898  6.88732876427643 -0.37598102650265
 1 -9.07984136793679  6.28495591129113 -1.74624309180918

