%nproc=3
%Mem=2GB
# td=(NStates=1) iop(3/107=0140000000,3/108=0140000000) iop(3/107=0140000000,3/108=0140000000) CAM-B3LYP/6-31G(d,p) 

TD

0 1
12 -5.69209494069407  1.22911293899390  0.18191085988599
 6 -4.85611573337334 -2.14337830253025 -0.47402046714671
 6 -3.49554101400140  1.28571111261126  2.80275171337134
 6 -6.09325574787479  4.58148617171717  0.55482784398440
 6 -8.05495641364136  1.11247993039304 -2.37736183008301
 7 -4.30460754525453 -0.26763268636864  0.94731489848985
 6 -4.23833905430543 -1.65409659105911  0.70083380188019
 6 -3.18874027572757 -2.31748294689469  1.55003059165917
 6 -2.89046320172017 -1.30914158385839  2.69746653325333
 6 -3.66861366136614 -0.01797094969497  2.14357501610161
 6 -3.55509761776178 -1.62781947454745  4.07758561796180
 6 -1.91754659795980 -2.63549754295430  0.68296248234823
 6 -1.00281804470447 -3.52091717961796  1.43717759465947
 6  0.10938680608061 -3.87504237633763  0.62946110721072
 8  0.35457931183118 -3.36129581838184 -0.51021103650365
 8  1.10105178737874 -4.56795193999400  1.24239022752275
 7 -4.94567311831183  2.60532076877688  1.51032771937194
 6 -4.04858894609461  2.46061407740774  2.54404963076308
 6 -3.73304384158416  3.65417550005001  3.24687363176318
 6 -4.56536229192919  4.66250471597160  2.56654253845385
 6 -5.31154051645164  3.95810048654865  1.50647579947995
 6 -2.77764638953895  3.81743882758276  4.34611848234823
 6 -4.63267596759676  6.10974100830083  2.85848128492849
 8 -4.15170765806581  6.60904573477348  3.90321429392939
 7 -6.89022067166717  2.62722065456546 -0.72114478217822
 6 -6.92066426422642  3.95487589308931 -0.45296349944994
 6 -7.94804994519452  4.62589364616462 -1.32072488158816
 6 -8.50649368216822  3.62260139023902 -2.04139869226923
 6 -7.76973078457846  2.31624979907991 -1.73510728052805
 6 -8.29418169686969  6.01360272997300 -1.25577671227123
 6 -9.64087056545655  3.73308424672467 -3.07156970557056
 6 -8.88196717741774  4.04585594869487 -4.46084933163316
 7 -6.29911567886789 -0.17401258145815 -1.07740876127613
 6 -7.33029663636364 -0.05243614921492 -1.99418534113411
 6 -7.49783289988999 -1.30115526822682 -2.68142116671667
 6 -6.68020350405041 -2.26028980228023 -2.03433264316432
 6 -5.97101502500250 -1.44340837033703 -1.06296416111611
 6 -8.62917829252925 -1.59802959155916 -3.68542946234623
 6 -6.22756638373837 -3.59630873687369 -1.98423381728173
 8 -6.50975421602160 -4.59319428952895 -2.63085333103310
 6 -5.05832608610861 -3.64928669536954 -0.84048066886689
 6 -5.22430955855586 -4.70243544514452  0.15732288328833
 8 -5.78773295589559 -4.44648058145815  1.19229634993499
 8 -4.86914687788779 -5.87078096219622 -0.35188936033603
 6 -5.24631798099810 -6.99954354545455  0.47074460926093
 6  2.31600828242824 -4.95539179937994  0.45888386968697
 6  3.41760507060706 -3.95336683598360  0.87231851765177
 6  4.11177028072807 -3.20900072097210  0.00149252425243
 6  3.72563746104610 -3.04235742414241 -1.48797646644664
 6  5.25094930093009 -2.40237450565056  0.52460431133113
 6  6.62043764846485 -2.88943389638964  0.06216654255426
 6  7.72437156385639 -1.79504114991499  0.61109494409441
 6  9.05361396989699 -2.07145312731273 -0.08491520472047
 6  9.53288036813681 -3.51879178167817  0.30133325832583
 6  10.04373980958096 -0.93254387528753  0.39166713011301
 6  11.32187534483448 -0.90184297939794 -0.31910722132213
 6  12.12719033963396  0.33125231573157  0.11183197139714
 6  13.56486588068807  0.48451813871387 -0.55646540374037
 6  14.48279645264527 -0.71266199619962 -0.32876956215622
 6  14.24871480968097  1.79519429162916 -0.11485912831283
 6  15.46964624552455  2.11212314761476 -1.01431853955396
 6  16.03492311201120  3.48188069806981 -0.64150524352435
 6  17.36513090779078  3.81802071757176 -1.30001104890489
 6  17.11217019911991  4.07261282398240 -2.82476479647965
 6  17.92715613481348  5.06072419841984 -0.68422937993799
 1 -2.86563206910691  1.17966483008301  3.74449206040604
 1 -6.25867675057506  5.58398460066007  0.77751751445145
 1 -8.94464966406641  1.13699796129613 -2.87462284318432
 1 -3.55172223742374 -3.39871298799880  2.03904964706471
 1 -1.92306339233923 -1.04729233743374  2.79432159815982
 1 -2.89149847504750 -2.35674225512551  4.35294524042404
 1 -3.29709630973097 -0.60661277897790  4.78571470737074
 1 -4.40387206300630 -1.79882780078008  3.99667288988899
 1 -2.25242240784078 -3.26534957995800 -0.06395413001300
 1 -1.36155685538554 -1.92286091349135  0.17386822812281
 1 -0.45388977907791 -2.88493846614661  2.34684922602260
 1 -1.38292777137714 -4.43242007830783  2.02428146484649
 1 -1.87092574467447  3.46555124182418  3.79280166126613
 1 -2.79139679367937  4.84130376947695  4.63599926282628
 1 -2.81711164366437  3.01493468756876  5.25804278107811
 1 -5.08409226852685  6.80968895139514  2.10436255205521
 1 -10.30098408090809  2.81195834773477 -3.03885504010401
 1 -10.30453793669367  4.53253078757876 -2.77111010361036
 1 -9.86647240814081  4.47240514051405 -5.18046435703570
 1 -8.23393735973597  4.83310525112511 -4.36249593139314
 1 -8.32830310521052  3.19551386528653 -4.82479659435944
 1 -8.51512809440944 -1.08221147884788 -4.59535950495049
 1 -8.48468809670967 -2.65649270957096 -3.96310565446545
 1 -9.62457570667067 -1.50986762136214 -3.20286457155716
 1 -4.20277205320532 -4.08624444744474 -1.33001793189319
 1  2.39280722452245 -5.91084837793779  0.79051743964396
 1  2.02607593419342 -4.88135666206621 -0.62627806290629
 1  3.69524550695069 -4.03910403270327  1.87979634373437
 1  2.82907035893589 -3.44205576047605 -1.64985763586359
 1  3.68133547154715 -2.04130883148315 -1.64563278077808
 1  4.39191169856986 -3.38455031133113 -2.45528698599860
 1  5.11426529552955 -1.29342488708871  0.12967335843584
 1  5.34481684008401 -2.27089140634063  1.55199908620862
 1  6.94992421242124 -3.88424272377238  0.58729805150515
 1  6.77280612011201 -3.03015523152315 -1.25133481968197
 1  7.25564636623662 -0.84912146644664  0.37597635093509
 1  7.65193410361036 -1.88918716721672  1.66322379477948
 1  8.94621052065207 -1.94680272097210 -1.15399361806181
 1  8.84789695509551 -4.48017687758776  0.11038856865687
 1  10.61498452785279 -3.61323467816782 -0.11141872377238
 1  9.61199794739474 -3.52898862746275  1.46167713071307
 1  9.48696975787579 -0.03218480808081  0.22546172057206
 1  10.24799375797580 -1.18145646494649  1.57169810711071
 1  12.05985791689169 -1.78708603030303 -0.32218152595260
 1  11.11116705690569 -0.74693632913291 -1.34501534523452
 1  11.50541055915592  1.40282335413541 -0.00664787518752
 1  12.46869762846285  0.30001128442844  1.18440761586159
 1  13.31261200350035  0.61585632843284 -1.59667587238724
 1  14.74294452165217 -0.72334535183518  0.81521661916192
 1  14.04509489598960 -1.76345952485249 -0.24689094319432
 1  15.47766762326233 -0.80868419611961 -0.70817322032203
 1  13.52677192279228  2.67263556275628 -0.23140301760176
 1  14.50162777497750  1.67059347384738  0.96192501980198
 1  16.22845157225722  1.30158562006201 -1.01660947594759
 1  15.04443923942394  2.25075332673267 -2.13562709360936
 1  15.32695415751575  4.34452766046605 -1.00647192719272
 1  16.25905553945394  3.36358231763176  0.48137059585959
 1  18.17457727452745  2.97620112861286 -1.13291767966797
 1  16.52656979377938  4.89913719261926 -3.08854313321332
 1  18.04619700960096  4.10861725492549 -3.42187962156216
 1  16.64355904120412  3.15746065726573 -3.11760231343134
 1  18.05076295029503  4.74138479147915  0.41206037173717
 1  18.75927353815382  5.54717094359436 -1.19235137623762
 1  17.16069863966397  5.75165957605761 -0.69182753485349
 1 -5.20200808540854 -7.92270336973697 -0.25243955995600
 1 -6.17309780108011 -6.97880726212621  0.86231607490749
 1 -4.29617183458346 -7.16780665686569  1.26647951635164
 8 -7.76439933523352  6.88308834023402 -0.50131355975598
 1 -9.10592397619762  6.32938035373537 -1.89846831433143

