%nproc=3
%Mem=2GB
# td=(NStates=1) iop(3/107=0140000000,3/108=0140000000) iop(3/107=0140000000,3/108=0140000000) CAM-B3LYP/6-31G(d,p) 

TD

0 1
12 -5.60242597379738  1.20716074377438  0.21413408220822
 6 -5.05365548734873 -2.17969193389339 -0.29350241534153
 6 -3.37517897779778  1.20644318581858  2.82796423462346
 6 -6.24589101140114  4.50436845994599  0.69763212441244
 6 -7.88414933293329  1.19010769316932 -2.46482057595760
 7 -4.34902198669867 -0.21276719981998  1.05995616261626
 6 -4.25391061146115 -1.56875805720572  0.66463018151815
 6 -3.20413181488149 -2.19465066366637  1.49497508610861
 6 -2.91940609600960 -1.37137780748075  2.73653043964396
 6 -3.65384218421842 -0.00486963956396  2.19928058665867
 6 -3.53729583758376 -1.84394108670867  4.06179403880388
 6 -1.83647849114912 -2.38491248444845  0.65440962706271
 6 -1.01399916281628 -3.45315040294029  1.42590646754675
 6  0.23841970937094 -3.89792466456646  0.61190935203520
 8  0.57523137703770 -3.49743943274327 -0.53720373577358
 8  0.96088777097710 -4.66005114991499  1.35257124562456
 7 -4.98951750275028  2.59510974767477  1.47139382598260
 6 -4.00714480168017  2.41184920092009  2.46409163496350
 6 -3.74372490969097  3.71230131263126  3.14400334473447
 6 -4.57955371107111  4.64584304980498  2.71014689888989
 6 -5.19380874327433  3.90074475097510  1.54321947384738
 6 -2.68544716961696  3.72459954365437  4.39447331783178
 6 -4.82286498649865  5.97107714191419  3.07209264606461
 8 -4.09425191249125  6.62045687588759  3.79645361786179
 7 -6.80331198079808  2.63622155465547 -0.77451011871187
 6 -6.81823402120212  3.95926633213321 -0.38285648874887
 6 -7.98490363056306  4.58146920372037 -1.24193700280028
 6 -8.47476050885088  3.64894402450245 -2.03679823222322
 6 -7.72015582708271  2.47390556465647 -1.77733150295029
 6 -8.45752803150315  6.05623699339934 -1.15952708730873
 6 -9.41988846724673  3.71834277257726 -3.19231177977798
 6 -8.73338231893189  3.90358172127213 -4.56818006470647
 7 -6.42478824612461 -0.10171535173517 -1.14376539693969
 6 -7.26130973767377  0.02184127852785 -2.14247016961696
 6 -7.49612272887289 -1.30396554925493 -2.76806983158316
 6 -6.61766725042504 -2.18589236253625 -2.05502471237124
 6 -5.99834775827583 -1.40591462096210 -1.12253011771177
 6 -8.42092746744675 -1.57715750435043 -3.85904682408241
 6 -6.15606923402340 -3.61262036803680 -1.94303969786979
 8 -6.50637387798780 -4.58994396449645 -2.54858510421042
 6 -4.93098335183518 -3.53681544824482 -0.93226984778478
 6 -5.15910303790379 -4.55179038063806  0.15958310931093
 8 -5.69770395299530 -4.45031096449645  1.21759888018802
 8 -4.87279724292429 -5.72711659575958 -0.39041321272127
 6 -5.32319566876688 -6.96917050815081  0.39369690449045
 6  2.24430111171117 -5.02577883808381  0.63884186548655
 6  3.41638494859486 -4.04233573287329  1.02193347914791
 6  4.12360146384638 -3.29064888578858  0.18218059305931
 6  3.77754265156516 -3.24584777317732 -1.35463313211321
 6  5.07432163816382 -2.29947421562156  0.64951680258026
 6  6.49464506920692 -2.75320027302730  0.06602692859286
 6  7.67006613331333 -1.85793743954395  0.58234206880688
 6  9.09466807530753 -1.99392537453745  0.06329961676168
 6  9.61866894699470 -3.52233213571357  0.18229135413541
 6  10.03013844944494 -0.96199682058206  0.57296525992599
 6  11.33221637893789 -0.98297109220922 -0.24272958355836
 6  12.25874349494949  0.15955514601460  0.11748253645365
 6  13.51041043514351  0.35390507740774 -0.64023378057806
 6  14.37968614161416 -0.77587831783178 -0.46275296049605
 6  14.08775871407141  1.74787956015602 -0.32160980338034
 6  15.38916819771977  2.14875681098110 -0.94172127982798
 6  15.84808442814281  3.51235374537454 -0.68104919791979
 6  17.22315671037104  3.93813272877288 -1.40107115491549
 6  17.16163514561456  4.02824838753875 -2.95853817381738
 6  17.68645206440644  5.26863498949895 -0.75417637463746
 1 -2.74372987888789  1.15549241284128  3.64352196339634
 1 -6.57175805870587  5.51925812801280  0.80241000370037
 1 -8.48996419551955  1.12975723722372 -3.38901428232823
 1 -3.45320238543854 -3.34477759445945  1.75792153425343
 1 -1.89549063506351 -1.15058266646665  2.84457662366237
 1 -3.06834615981598 -2.75812239313931  4.33961390729073
 1 -3.29515611571157 -1.05525764346435  4.90249638553855
 1 -4.61724340014001 -1.76250416841684  3.87837105970597
 1 -2.05298246384638 -2.81178422342234 -0.46876461106111
 1 -1.21890258995900 -1.38147677507751  0.59129997129713
 1 -0.81730612071207 -3.36170614291429  2.57318185928593
 1 -1.65586506510651 -4.39240607690769  1.48823786048605
 1 -1.59428808090809  3.31000568726873  4.15953833493349
 1 -2.49321697569757  4.83106274537454  4.61797746064607
 1 -2.90412034453445  3.03866706080608  5.14838181498150
 1 -5.46811067036704  6.62428041054105  2.41250336613661
 1 -10.28089207170717  3.14181133303330 -3.33438459305931
 1 -10.07387487038704  4.62626016051605 -3.09351234383438
 1 -9.65118087898790  4.21555945594559 -5.13338964956496
 1 -7.77314128012801  4.78548048864886 -4.69837951975197
 1 -8.19327960286029  2.91378569246925 -5.01918603330333
 1 -8.51745832743274 -0.64667792549255 -4.72823279227923
 1 -8.18150777867787 -2.58370543084308 -4.33588293219322
 1 -9.41833508260826 -1.57167380198020 -3.49026331143114
 1 -4.01382315831583 -3.60170599359936 -1.62790772087209
 1  2.42863080688069 -6.15623291639164  0.85703409130913
 1  2.09162248884889 -5.01776030243024 -0.43485892099210
 1  3.56841282368237 -4.24055417771777  2.13788215231523
 1  2.75319277117712 -3.25073662856286 -1.59150180028003
 1  4.34275161316132 -2.44393909450945 -1.94797301480148
 1  4.40249275667567 -4.02747460376038 -2.07500895819582
 1  4.69913378237824 -1.27610315491549  0.13251364246425
 1  5.04223658205821 -2.55697001420142  1.89316320262026
 1  6.72152137213721 -3.87861216071607  0.30380970267027
 1  6.46021486098610 -2.64417663366337 -0.93662334853485
 1  7.34268507010701 -0.83434998929893  0.48017677097710
 1  7.78948785898590 -1.94931317981798  1.83307077947795
 1  9.00748664826483 -2.14679271997200 -1.10041826052605
 1  8.95140730613061 -4.25173403330333 -0.45028749894989
 1  10.57128015741574 -3.59754310901090 -0.15690327222722
 1  9.67520426802680 -3.86149187778778  1.30999196219622
 1  9.46152721362136  0.05547395779578  0.63063223762376
 1  10.31194015261526 -1.21244956425643  1.86603754105411
 1  11.80250218131813 -1.97366468816882 -0.34660396819682
 1  10.97001294149415 -0.87145878137814 -1.29322016571657
 1  11.46276629472947  1.03978705050505  0.04711750135014
 1  12.70235099379938  0.24184546784678  1.18273744884488
 1  13.23954469676968  0.39024376717672 -1.80484668946895
 1  14.98030825802580 -0.86032905020502  0.61120621812181
 1  13.73777416391639 -1.66762994189419 -0.51818807290729
 1  15.13723357985799 -0.83844717241724 -1.42551495449545
 1  13.28849809540954  2.67622592179218 -0.49617949524952
 1  13.98764637683768  1.73405982048205  0.73784261156116
 1  16.18432715981598  1.39234469596960 -0.64061187618762
 1  15.38145294079408  1.98966721812181 -2.12840637153715
 1  15.19009047114711  4.34557776547655 -1.13337461746175
 1  16.12445207910791  3.88505446484649  0.31871433023302
 1  17.89961977877788  3.15133864236424 -1.05288967686769
 1  16.18240537733773  4.69637691659166 -3.18671295019502
 1  18.03174556445644  4.41384777797780 -3.40968840244024
 1  16.93436812211221  3.02216712791279 -3.46376692989299
 1  17.81654952895289  5.19936058905891  0.49818898459846
 1  18.62238984978498  5.86905313181318 -1.08075021612161
 1  16.71164373417342  5.88658306840684 -0.83924227632763
 1 -5.12919080368037 -7.88782988238824 -0.09536385238524
 1 -6.32077256855686 -7.09460884228423  0.73723356665667
 1 -4.58198041544154 -6.94134401060106  1.43275614401440
 8 -7.89193208850885  6.86906693809381 -0.46759018741874
 1 -9.27566094989499  6.18715613131313 -1.96047451495150

