%nproc=3
%Mem=2GB
# td=(NStates=1) iop(3/107=0140000000,3/108=0140000000) iop(3/107=0140000000,3/108=0140000000) CAM-B3LYP/6-31G(d,p) 

TD

0 1
12 -5.64025975717572  1.24866489418942  0.22544521332133
 6 -4.97205732753275 -2.16979094379438 -0.34128719381938
 6 -3.39839129902990  1.18206074757476  2.76559799799980
 6 -6.24284070637064  4.54154217731773  0.66716907810781
 6 -7.98955987398740  1.16055473787379 -2.41643573747375
 7 -4.44469155365537 -0.26756267936794  1.03426359335934
 6 -4.29994521492149 -1.67025820722072  0.66855057355736
 6 -3.28344974667467 -2.46189738833883  1.52809839843984
 6 -2.95408956435644 -1.34867553725373  2.67227401400140
 6 -3.64506130613061 -0.08863801640164  2.21273193179318
 6 -3.56469857785779 -1.83490018261826  4.04476233563356
 6 -2.07879272257226 -2.71070506370637  0.70807499359936
 6 -1.01269903280328 -3.46199128702870  1.32789666656666
 6  0.21983785118512 -3.84135900800080  0.58363652475248
 8  0.39536339023902 -3.37885757455746 -0.56449646504650
 8  1.05546722892289 -4.72876802160216  1.14848083658366
 7 -4.95459401040104  2.61388162486249  1.51034772137214
 6 -4.01902598979898  2.44138215421542  2.52923814961496
 6 -3.76718725592559  3.67608769126913  3.16084502890289
 6 -4.52425818151815  4.62855132063206  2.53902978717872
 6 -5.26621598399840  3.97285196169617  1.53901905380538
 6 -2.84988361326133  3.81057814151415  4.37356122662266
 6 -4.67634033403340  6.07814784898490  2.84847028382838
 8 -4.12485497279728  6.59977480768077  3.80708468096810
 7 -6.95774742434243  2.58191612411241 -0.62855552325233
 6 -6.95686788458846  3.93275368086809 -0.34001220432043
 6 -7.92772791299130  4.56338739553955 -1.25782859195920
 6 -8.47871090389039  3.64534366446645 -2.09230378277828
 6 -7.74305811731173  2.37092526662666 -1.74442821262126
 6 -8.28715099379938  5.98303967366737 -1.11887302190219
 6 -9.38785526392639  3.69350028832883 -3.26606915551555
 6 -8.60470945164517  3.92327369046905 -4.56133938063806
 7 -6.28594436173617 -0.09985516571657 -1.09145016541654
 6 -7.27390099679968  0.01025011941194 -2.06189211181118
 6 -7.54856797339734 -1.25934108680868 -2.70401342594259
 6 -6.64465994969497 -2.12328610191019 -2.06172538243824
 6 -5.95309323282328 -1.38138216771677 -1.14473233793379
 6 -8.57700307500750 -1.56646643524352 -3.73354427382738
 6 -6.21827545464546 -3.55604471047105 -1.96670206410641
 8 -6.56257949854986 -4.57418238833883 -2.58171841754175
 6 -5.07507776127613 -3.55171693839384 -0.85442206300630
 6 -5.34842196979698 -4.64115931753175  0.23748089908991
 8 -5.93625780838084 -4.49554548794880  1.21382850315031
 8 -5.11746170937094 -5.82738662276228 -0.32827699909991
 6 -5.50979432863286 -6.98172176327633  0.41092862766277
 6  2.26422310391039 -4.97912417261726  0.60279826112611
 6  3.41315462556256 -4.08432993229323  0.98025931173117
 6  4.11165026872687 -3.19710953185319  0.14772714771477
 6  3.76463136043604 -3.11076426482648 -1.24519218801880
 6  5.21954616061606 -2.37342161036104  0.55836768766877
 6  6.59839544424442 -2.79943489648965 -0.00504017811781
 6  7.70418954565457 -1.88464010981098  0.48372220682068
 6  9.16635524402440 -2.02936891889189 -0.08798551175118
 6  9.64412149224922 -3.38742864536454  0.30282340734073
 6  10.04351978757876 -0.81474209510951  0.48139610301030
 6  11.35460861816182 -0.94485728082808 -0.21162647324732
 6  12.32034965556556  0.31791098159816  0.14867565576558
 6  13.63496289038904  0.41316100300030 -0.49518927612761
 6  14.61572974597460 -0.72433316331633 -0.25713239843984
 6  14.36271620982098  1.72799757195720 -0.18623626602660
 6  15.61156043694369  2.15255719101910 -0.97836494419442
 6  16.10659027872787  3.58572108210821 -0.69065015801580
 6  17.38227262196219  3.94793370887089 -1.42529357715772
 6  17.05601458355836  3.98715427812781 -2.91349366936694
 6  17.88393181238124  5.34987311331133 -0.95390634763476
 1 -2.78911441734173  1.13692055565557  3.71624923612361
 1 -6.69856073897390  5.61668787098710  1.02289205190519
 1 -8.62388758785879  1.18173243474347 -3.17205258615862
 1 -3.81595866106611 -3.30224334103410  2.06209195129513
 1 -1.86021710771077 -1.16920452865286  2.64622678867887
 1 -3.02967229242924 -2.90293687458746  4.23447339323932
 1 -3.37275387548755 -1.13802592029203  4.92186832273227
 1 -4.68101977777778 -1.93221113911391  3.91022424502450
 1 -2.24053121872187 -3.04973801880188 -0.39389712431243
 1 -1.63222392209221 -1.72953158055806  0.33549439073907
 1 -0.40167455755576 -2.98826879917992  2.24081862296230
 1 -1.21558103670367 -4.41645848214822  1.77818685538554
 1 -1.79765841794179  3.46928161486149  4.14579696079608
 1 -2.55511316531653  4.69645928502850  4.70770643354335
 1 -3.25113504600460  3.13318651275128  5.28076505330533
 1 -5.33417727702770  6.64669265176518  2.07771988778878
 1 -9.96755073757376  2.85339249114911 -3.29041019561956
 1 -9.97775525842584  4.57910544504450 -3.02979597219722
 1 -9.35206096699670  4.06748464846485 -5.39276558715872
 1 -8.22195616161616  4.75364730533053 -4.65587526932693
 1 -7.73905418031803  3.11438575247525 -4.58673278797880
 1 -8.47582416401640 -0.92704596229623 -4.62310227922792
 1 -8.25367499539954 -2.48206526682668 -4.11516085998600
 1 -9.60384363346335 -1.48642527712771 -3.37853213831383
 1 -4.29692146814681 -4.01121694469447 -1.51713664376438
 1  2.57028497229723 -6.09390668376838  1.13033142104210
 1  2.36811013761376 -5.25971449784979 -0.42596803190319
 1  3.80266624902490 -4.17018714101410  2.07096546064606
 1  2.78702615451545 -3.24309586448645 -1.59611226132613
 1  3.94755209320932 -2.09928462906291 -1.81651986948695
 1  4.17435994339434 -3.71986384268427 -1.83090454775478
 1  5.10007387638764 -1.25122066666667  0.23842423352335
 1  5.10159251765177 -2.65202952015201  1.52817670397040
 1  7.02938215821582 -3.93400770027003  0.17302662436244
 1  6.27483632313231 -2.61402361836184 -1.14003368956896
 1  7.28698950055005 -0.91604815911591  0.26135488878888
 1  7.76778568876888 -2.00907915641564  1.57988546094609
 1  8.91765766536654 -1.97423546424643 -1.21284950365037
 1  9.01737390279028 -4.16737559745975  0.00976850665066
 1  10.83025605500550 -3.54822817751775  0.05289770787079
 1  9.40065681328133 -3.31665739433943  1.37929889288929
 1  9.30555161606160  0.05522393279328  0.13519269366937
 1  10.17768672727273 -0.86570488978898  1.48870980828083
 1  11.68040997209721 -1.97203452515252  0.15914660686069
 1  11.22925886608661 -0.82899453495350 -1.24434527822782
 1  11.70676069416942  1.19298237003700  0.02730552015202
 1  12.40215097379738  0.25384666796680  1.21559073417342
 1  13.57110785308531  0.58784352715272 -1.51489769456946
 1  14.98585881308131 -0.75079809710971  1.05687078457846
 1  14.02381276777678 -1.74402758165817 -0.30288654275428
 1  15.54461431793179 -0.76559988768877 -0.69542194519452
 1  13.68119736533653  2.71292959215922 -0.33056293359336
 1  14.39546715891589  1.86885329982998  1.00226905420542
 1  16.41857058415841  1.45987144864486 -0.80184799979998
 1  15.32486728222822  2.02395064646465 -2.12482601350135
 1  15.24922638473847  4.31333454115412 -0.92518379837984
 1  16.35706534043404  3.63104906430643  0.49995245404540
 1  18.18098791559156  3.08628213671367 -1.25307969586959
 1  16.27117425422542  4.73260053895390 -3.27264154305431
 1  17.93734612451245  4.36653304650465 -3.54022145574557
 1  16.86955164046405  2.95168007920792 -3.36004655785579
 1  18.16015388938894  5.17388804180418  0.11330049574957
 1  18.86143375417542  5.58988521502150 -1.21955409650965
 1  17.02764533433343  6.03658806890689 -1.02437078917892
 1 -5.33772165676568 -7.74423552295230 -0.24820913691369
 1 -6.73540403170317 -6.78590797219722  0.48764860816082
 1 -4.86498871627163 -7.20376025222522  1.24312718111811
 8 -7.75857875317532  6.86597662906291 -0.39649307770777
 1 -8.99349273307331  6.26491390709071 -1.70213868136814

