%nproc=3
%Mem=2GB
# td=(NStates=1) iop(3/107=0140000000,3/108=0140000000) iop(3/107=0140000000,3/108=0140000000) CAM-B3LYP/6-31G(d,p) 

TD

0 1
12 -5.60634636583658  1.21945197289729  0.22708537733773
 6 -5.11499162096210 -2.17950191489149 -0.27829089418942
 6 -3.34054551445145  1.27082962446245  2.77024846304630
 6 -6.24134055635564  4.63174119721972  0.59761212241224
 6 -7.88099901790179  1.20155883828383 -2.36455054895490
 7 -4.43228031253125 -0.21658758185819  1.04440460746075
 6 -4.33009823022302 -1.59316049744975  0.64984870337034
 6 -3.19381078277828 -2.29618081668167  1.46380196879688
 6 -2.85021917731773 -1.34339500920092  2.58646543314331
 6 -3.51842864286429 -0.01425057765777  2.22809346794679
 6 -3.35256736473647 -1.81538823142314  4.03174103350335
 6 -1.98434327762776 -2.66901089428943  0.61498568466847
 6 -1.04508227112711 -3.56358144604460  1.37204108100810
 6  0.16028189558956 -4.00623549564957  0.53565172627263
 8  0.38822267616762 -3.56533622242224 -0.61902191759176
 8  1.03019470167017 -4.69928507330733  1.25191117961796
 7 -4.82038058905891  2.72754299099910  1.50624731133113
 6 -3.94111819901990  2.45814383038304  2.38308353415342
 6 -3.59640017721772  3.75420550305031  2.99038798319832
 6 -4.41318707440744  4.74940340584058  2.46540242444244
 6 -5.25295465786579  4.04473915041504  1.47033218511851
 6 -2.73063168806881  3.86844392809281  4.21121499199920
 6 -4.52679537953795  6.05661569576958  2.98410384718472
 8 -3.93461594889489  6.73204803500350  3.78711268376838
 7 -6.84717636723672  2.63815174767477 -0.69431209890989
 6 -6.90320251805181  3.97615802130213 -0.34740294339434
 6 -7.92987812801280  4.55640669746975 -1.25943875297530
 6 -8.48830186298630  3.64257338743874 -2.09203375577558
 6 -7.65944975647565  2.36494466856686 -1.76253002280228
 6 -8.34001628032803  5.95844721442144 -1.31232236683668
 6 -9.53128960736074  3.65967690599060 -3.03232578117812
 6 -8.86499548024802  3.99950131323132 -4.46958020472047
 7 -6.39859562686269 -0.11162634283428 -1.06751777217722
 6 -7.24408801550155 -0.00574147974797 -2.01012693529353
 6 -7.44207732433243 -1.34251940464046 -2.76804982958296
 6 -6.59053453715372 -2.18496226952695 -2.03819302920292
 6 -5.98176610011001 -1.44319834933493 -1.02367023172317
 6 -8.47013238793880 -1.67012680128013 -3.66802772217222
 6 -6.20202382948295 -3.58359746574657 -1.91689708360836
 8 -6.56764000460046 -4.56282125222522 -2.58823906960696
 6 -5.00715096859686 -3.61437320402040 -0.82978959975998
 6 -5.35003213081308 -4.70334553615362  0.21820897189719
 8 -5.79696387898790 -4.50061599499950  1.35802292259226
 8 -4.94781474467447 -5.89103298739874 -0.23129730113011
 6 -5.31152450165017 -6.97598118921892  0.66635417021702
 6  2.28575525712571 -5.11283754395440  0.57215519681968
 6  3.32155546564656 -4.12960445974597  0.99341062686269
 6  4.01908101180118 -3.26029585048505  0.11943431843184
 6  3.74871976927693 -3.28977216561656 -1.41607927672767
 6  5.13996820282028 -2.48764303250325  0.66292814371437
 6  6.48824442914291 -2.74847980098010  0.00417074297430
 6  7.69362848954895 -1.90694234003400  0.47238107270727
 6  8.91349995849585 -1.94575055705571 -0.28434514771477
 6  9.58482556265627 -3.38772867536754 -0.23505038003800
 6  9.84763019861986 -0.93885450635064  0.27523548694869
 6  11.30438359565957 -0.89845264036404 -0.34010932153215
 6  12.13207082768277  0.40829001950195  0.06552734093409
 6  13.49657905200520  0.48138782568257 -0.65406516371637
 6  14.38517669066907 -0.65950668066807 -0.37463414861486
 6  14.19825976417642  1.81189596179618 -0.10189783218322
 6  15.38541782268227  2.19650158545855 -0.92748985668567
 6  16.19232885258526  3.47403991399140 -0.51244233723372
 6  17.32352674737474  3.93240215571557 -1.07587863566357
 6  17.14551353345335  4.07329289198920 -2.60542286228623
 6  17.86476989618962  5.24031215721572 -0.47903886088609
 1 -2.59471497739774  1.25150201380138  3.70568818001800
 1 -6.25152603550355  5.64362056425642  0.72804256695670
 1 -8.73572877197720  1.07018127962796 -3.04828020892089
 1 -3.53313037823782 -3.17215033173317  2.20044578667867
 1 -1.78920000600060 -1.29060666886689  2.69189135513551
 1 -2.68954828002800 -2.74499108000800  4.26651659755976
 1 -3.14358095819582 -1.00445256295630  4.72533866976698
 1 -4.22986466226623 -1.88696661466147  4.00935415801580
 1 -2.38648581418142 -3.21335438043804 -0.19912764736474
 1 -1.43185388508851 -1.85045367276728  0.18583942524252
 1 -0.59615400550055 -3.03199317161716  2.27207174827483
 1 -1.83315279387939 -4.34707154345435  1.75067410411041
 1 -1.60612926502650  3.71878656535654  3.93353573467347
 1 -2.90957861186119  4.77451709080908  4.73972963586359
 1 -3.12899283178318  3.00186338043804  4.94170114691469
 1 -5.22907676697670  6.91023900640064  2.43738585438544
 1 -10.28747272977298  2.76164331623162 -2.95924707930793
 1 -10.15545302820282  4.61150868536854 -3.02985597819782
 1 -9.67505326622662  3.78571647164716 -5.26460277087709
 1 -8.48679264526453  5.19466140674067 -4.65429511131113
 1 -8.20442071697170  3.14024833873387 -4.66065017971797
 1 -8.34443102470247 -0.87200045774577 -4.63635360436044
 1 -8.25578520642064 -2.68031509180918 -3.98504784868487
 1 -9.64141739083908 -1.68864549914991 -3.30381466656666
 1 -4.20246202220222 -3.67342316531653 -1.42575750585059
 1  2.32093003680368 -6.08936622972297  1.16883527142714
 1  2.19096242284228 -5.06006453285329 -0.53729916501650
 1  3.62524850725073 -4.18387851015101  2.09248761286129
 1  2.60644809670967 -3.76109766466647 -1.59904255435544
 1  3.89087642564256 -2.28216291689169 -1.59978819631963
 1  4.54529703710371 -3.74579643594359 -2.24962641994199
 1  4.88835270427043 -1.36553209780978  0.50353074417442
 1  5.31279363776378 -2.54850916811681  1.67572145844584
 1  6.63937315731573 -4.05632993249325  0.14588391009101
 1  6.39116795629563 -2.72856507250725 -1.21498118431843
 1  7.41515231683168 -0.92317887218722  0.69424817811781
 1  7.83681259145914 -2.33095134363436  1.44212168456846
 1  8.68592449204920 -1.54580262096210 -1.25812403110311
 1  8.89124128952895 -4.35082394229423 -0.50709317951795
 1  10.52083511291129 -3.46723007770777 -1.01986956885689
 1  9.98716546414641 -3.61073680228023  0.70832179517952
 1  9.29987104800480 -0.05121671127113 -0.01296212181218
 1  9.98918787738774 -1.30813913321332  1.37814875217522
 1  11.72270420152015 -1.84737205890589 -0.16117542534253
 1  11.15962190239024 -0.77469910541054 -1.47333817751775
 1  11.45840585868587  1.19690276207621 -0.29869708010801
 1  12.24860561926193  0.45317660096010  1.11656083118312
 1  13.32634337663766  0.61644638743874 -1.82777898269827
 1  14.45496572377238 -0.84379739703970  0.74680977847785
 1  13.82916330283028 -1.64890806970697 -0.87101335543554
 1  15.47525738223822 -0.62744607230723 -0.73854625762576
 1  13.43672291789179  2.56371467066707 -0.07728760606061
 1  14.42076968916892  1.65611202570257  0.97712653995400
 1  16.36224495159516  1.52596805830583 -0.96817463246325
 1  15.05202999849985  2.18717696909691 -1.98963249414942
 1  15.43852531463146  4.28340154785479 -0.51261254125413
 1  16.25548518241824  3.43243920332033  0.53734619341934
 1  18.07540735753576  3.27291079957996 -0.72752714061406
 1  16.40738787558756  4.87282456135614 -2.76889116801680
 1  18.13574596449645  4.45496188938894 -3.23877131073107
 1  16.70021470677068  3.17540245144514 -3.14783533673367
 1  18.26621449544954  5.21359201220122  0.45776494219422
 1  18.72417002780278  5.42487871437144 -0.92433457455746
 1  17.11218378817882  5.93688809890989 -0.76815516761676
 1 -4.87553543814381 -7.91828292769277  0.12134781878188
 1 -6.30903139443944 -6.91930131153115  0.92159200250025
 1 -4.62579479687969 -6.99754963116312  1.50584345274527
 8 -7.97495039033903  6.87105713711371 -0.53783721212121
 1 -9.16682006580658  6.33321073677368 -2.05127359485949

