%nproc=3
%Mem=2GB
# td=(NStates=1) iop(3/107=0140000000,3/108=0140000000) iop(3/107=0140000000,3/108=0140000000) CAM-B3LYP/6-31G(d,p) 

TD

0 1
12 -5.59590532173217  1.27428745644564  0.20460312911291
 6 -5.04792491429143 -2.15818978367837 -0.40733379847985
 6 -3.31450291019102  1.12234477597760  2.72291372957296
 6 -6.09314573687369  4.60134815791579  0.62250461166117
 6 -8.03202412041204  1.20489917231723 -2.33148724262426
 7 -4.45247233173317 -0.32129805290529  1.08008817581758
 6 -4.28968418881888 -1.58592977437744  0.68666238473847
 6 -3.28987038873887 -2.33400459905991  1.40426601520152
 6 -2.91553570897090 -1.40998166786679  2.58180496709671
 6 -3.54362116211621 -0.10771992459246  2.07866852545255
 6 -3.37976008400840 -1.84655134773477  3.92192005140514
 6 -1.99542438573857 -2.62678667186719  0.60720490659066
 6 -1.08160592349235 -3.54909999789979  1.35610948784878
 6  0.21371723912391 -3.90254512661266  0.62678083918392
 8  0.48362221612161 -3.58063775257526 -0.52548256365637
 8  1.04941662386239 -4.68010315511551  1.43317930643064
 7 -4.75921447244724  2.65082531923192  1.42195888248825
 6 -3.84732882008201  2.39009702570257  2.50889611541154
 6 -3.66500703790379  3.65424550705070  3.17672661706171
 6 -4.41676743244324  4.62359082458246  2.61351723592359
 6 -5.11543090549055  3.97071174767477  1.42340749264927
 6 -2.73682230713071  3.85630271397140  4.32379625012501
 6 -4.54925762576258  5.99978001220122  2.92883832063206
 8 -3.92122460976098  6.62831766196620  3.77784175667567
 7 -6.91368301790179  2.64673260576058 -0.75212788048805
 6 -6.92355455325533  3.95474588008801 -0.29965816891689
 6 -7.95367050725072  4.59355041184118 -1.17974078317832
 6 -8.49462249504951  3.65724485458546 -2.07629218161816
 6 -7.81843565506551  2.39701787588759 -1.64780855065507
 6 -8.34015629432943  6.12285365506551 -1.14894602920292
 6 -9.46343282168217  3.85762670097010 -3.14381693029303
 6 -8.74441342204221  4.07073843694369 -4.53651689838984
 7 -6.39872563986399 -0.08394357455746 -1.07174819521952
 6 -7.35292889958996  0.00724981938194 -2.10441636423642
 6 -7.53555667226723 -1.26652180488049 -2.71740476507651
 6 -6.75690117381738 -2.13660743404340 -2.12988219811981
 6 -6.06067399089909 -1.37250127962796 -1.11861972667267
 6 -8.56037141184119 -1.59531932053205 -3.80313123252325
 6 -6.26084971207121 -3.56803590959096 -2.14282967686769
 8 -6.49895313591359 -4.46026099619962 -2.87502774847485
 6 -5.08151840534053 -3.62841460816082 -0.89765638643864
 6 -5.46224335193519 -4.73905910751075  0.06879403040304
 8 -5.87316149874987 -4.65302123552355  1.19825694599460
 8 -4.96542650585059 -5.94049793389339 -0.42821699309931
 6 -5.40853420262026 -7.06312990409041  0.43460099489949
 6  2.24585126672667 -5.10278653885389  0.88068604990499
 6  3.35551886198620 -4.13533503280328  1.20809209500950
 6  4.10683978767877 -3.36156597749775  0.36781915691569
 6  3.78499339663966 -3.28401158955896 -1.11518918771877
 6  5.19783398939894 -2.51530579877988  0.83372522342234
 6  6.51517712241224 -2.73852880588059  0.23226355225523
 6  7.68560768746875 -1.82285393119312  0.61993582818282
 6  9.00073868236824 -2.10218620062006 -0.08174488768877
 6  9.62450953105311 -3.44117401990199  0.36756988198820
 6  10.01184662026203 -0.94604522542254  0.37140510391039
 6  11.37286044334433 -0.85495829092909 -0.29759507010701
 6  12.16279389999000  0.35757494799480  0.15695648384838
 6  13.43535292939294  0.58973866076608 -0.61157091429143
 6  14.40580875387539 -0.61716244624462 -0.42170885608561
 6  14.22285222342234  1.81059583178318 -0.19001664406441
 6  15.39465874677468  2.18196013131313 -1.07291439913991
 6  16.07761738143814  3.55039754975498 -0.67653874687469
 6  17.31477587228723  4.05847476297630 -1.42188323612361
 6  17.11518050015002  4.11214677737774 -2.94117643764376
 6  17.80851427062706  5.35331345734573 -0.89267022402240
 1 -2.85770127602760  0.88988585218522  3.70084769596960
 1 -6.10886176907691  5.71557775997600  0.62008177087709
 1 -8.76617181628163  1.27093135463546 -3.13737911881188
 1 -3.82403946914691 -3.15263838053805  1.67231297339734
 1 -1.90679176517652 -0.98365597379738  2.49811197719772
 1 -2.77009633483348 -2.52826940784078  4.31292123802380
 1 -3.61515811591159 -0.93671578927893  4.75152128802880
 1 -4.37296897269727 -2.37000491849185  3.78381160376038
 1 -2.16766393199320 -2.97719076407641 -0.44212194679468
 1 -1.48630933063306 -1.75327395479548  0.40224106540654
 1 -0.69907429752975 -3.21828180048005  2.25418996009601
 1 -1.59038851745175 -4.56320315661566  1.51476051275128
 1 -1.78083673577358  3.55796048274828  3.98393077417742
 1 -2.83037069106911  4.86940657975798  4.57407307020702
 1 -2.90364029652965  3.24170736483648  5.27578455525552
 1 -5.30914477377738  6.43245122762276  2.09409152495250
 1 -10.19579356185618  3.00695784768477 -3.32541369596960
 1 -9.96517400030003  4.75636317081708 -2.86535952855286
 1 -9.39674543544354  4.07823572357236 -5.45787209780978
 1 -8.06639060506050  4.87659960056006 -4.54812449424942
 1 -8.20493076797680  2.96283059695970 -4.72442655735573
 1 -8.62238882048205 -0.83480673837384 -4.69991996099610
 1 -8.35432506040604 -2.71046810711071 -4.15617496139614
 1 -9.71778502760276 -1.76507314191419 -3.36259054415442
 1 -4.53400517651765 -4.08550437343734 -1.70316524662466
 1  2.37492543634363 -5.94946223932393  1.19280766866687
 1  2.21386471307131 -5.26008453485349 -0.29234466956696
 1  3.67873385578558 -3.90167028932893  2.36025438953895
 1  2.66237368926893 -3.40126168106811 -1.41213386348635
 1  4.11205854385439 -2.31823652425243 -1.46360457795780
 1  4.50938344574458 -4.04436629292929 -1.67727918521852
 1  4.91546541554155 -1.50908645324532  1.00844123522352
 1  5.45301766016602 -2.80536485368537  1.89098298459846
 1  6.76526574657466 -3.83929822932293  0.41178049974997
 1  6.47349618911891 -2.62915513151315 -0.62131181738174
 1  7.44280508210821 -0.91529808410841  0.58520727402740
 1  7.76840575077508 -2.00924917341734  1.59708718111811
 1  8.79006490609061 -2.08935697639764 -1.22572079077908
 1  9.18153031843184 -4.08885774567457 -0.15708817901790
 1  10.59856288568857 -3.79190254495450 -0.24818240014001
 1  9.64809155675568 -3.85348107670767  1.42414337733773
 1  9.51949301020102 -0.03028461806181  0.21071024542454
 1  10.24074303290329 -1.05734405370537  1.47968890619062
 1  12.09446137723772 -1.58527584928493 -0.15247455525553
 1  11.45881182138214 -0.89476111161116 -1.38307915161516
 1  11.63759377747775  1.29188226002600  0.02600539013901
 1  12.51802256095610  0.45112639593959  1.25887506260626
 1  13.27311805410541  0.69894463726373 -1.86753295809581
 1  14.78448867606761 -0.83891690899090  0.72601769926993
 1  13.93963434993499 -1.63024620352035 -0.66403265736574
 1  15.31297115361536 -0.56299962766277 -1.03457586058606
 1  13.49416866246625  2.75235353455346 -0.37132701000100
 1  14.50387800000000  1.80865728022802  0.89338816611661
 1  16.16012473957396  1.36957241874187 -1.15325314031403
 1  14.95822061756176  2.08785703710371 -2.07955148604860
 1  15.51390285238524  4.35891909960996 -0.83171445144514
 1  16.14649428332833  3.69577553695370  0.34449690849085
 1  17.88185800260026  3.16436994549455 -1.12435682358236
 1  16.55115225202520  4.80567784668467 -3.45220949984999
 1  18.23040543044304  4.20378677187719 -3.42562999659966
 1  16.96296098139814  3.12833774497450 -3.40253080628063
 1  18.10717859185918  5.26948760176018  0.26155532123212
 1  18.85566317711771  5.70188641514151 -1.32284442554255
 1  17.29019158895890  6.00681509160916 -1.01897024912491
 1 -5.16291417601760 -7.99463056245625 -0.04756907290729
 1 -6.39623011431143 -6.91781116251625  0.77885772907291
 1 -4.94540675807581 -6.75201507770777  1.32573544194419
 8 -7.74086698199820  6.90401043244324 -0.41453488188819
 1 -9.06899028282828  6.50124754045405 -1.63590205770577

