%nproc=3
%Mem=2GB
# td=(NStates=1) iop(3/107=0140000000,3/108=0140000000) iop(3/107=0140000000,3/108=0140000000) CAM-B3LYP/6-31G(d,p) 

TD

0 1
12 -5.56266199739974  1.19807983568357  0.27506017481748
 6 -5.04615473727373 -2.13016698139814 -0.30470353545355
 6 -3.42083354325433  1.16706924842484  2.85589702790279
 6 -6.22856927922792  4.51928995209521  0.74897725892589
 6 -7.90826174417442  1.23660234263426 -2.40815490939094
 7 -4.34236132063206 -0.23554947804780  1.12626279327933
 6 -4.21448666906691 -1.55283646504650  0.63291701020102
 6 -3.22734413611361 -2.33488468706871  1.51281687028703
 6 -2.82964712011201 -1.34730540024002  2.52091887848785
 6 -3.57723452345235 -0.04037318991899  2.19543020162016
 6 -3.35023713171317 -1.70984767736774  3.93842170157016
 6 -2.00936577987799 -2.77206119931993  0.59144333043304
 6 -0.98404616751675 -3.64826991489149  1.35280915781578
 6  0.31717758515852 -3.97363223532353  0.60484864596460
 8  0.47596145004500 -3.52703239203920 -0.48195821122112
 8  1.02859454165417 -4.99380452525252  1.22142813131313
 7 -4.96110466146615  2.63845408210821  1.48224491109111
 6 -4.00056414361436  2.40148816481648  2.47687291309131
 6 -3.79406994419442  3.61662174467447  3.23380232463246
 6 -4.63790954665467  4.60085855135514  2.65472135633563
 6 -5.32249161156116  3.89458413491349  1.55280043194319
 6 -2.80936956185619  3.71011809550955  4.26722059255926
 6 -4.64475717571757  5.99789982418242  2.95990142694269
 8 -3.85475796309631  6.50613544374438  3.79950392289229
 7 -6.78934058365837  2.63052098459846 -0.70218288598860
 6 -6.87322952075208  3.94215462096210 -0.33877208030803
 6 -7.82385752595260  4.60225128192819 -1.22661547064706
 6 -8.20084311711171  3.64568369846985 -2.13967852025203
 6 -7.63957776927693  2.45947412151215 -1.78489225902590
 6 -8.12978525722572  6.13390476017602 -1.25568670327033
 6 -9.25711218961896  3.80001093939394 -3.24520706930693
 6 -8.63714269496950  4.09216057915792 -4.64861810851085
 7 -6.28312407970797 -0.17506268646865 -1.13305432583258
 6 -7.21456506320632  0.05659475387539 -2.23273919651965
 6 -7.51993511011101 -1.30831598429843 -2.75817884248425
 6 -6.71771725542554 -2.25524929822982 -2.08505771567157
 6 -5.92853077657766 -1.44079810931093 -1.17058492319232
 6 -8.46613198789879 -1.56784657325733 -3.85685660506051
 6 -6.22327595469547 -3.62553165916592 -1.99554494839484
 8 -6.52758599919992 -4.61525649574958 -2.56662690839084
 6 -5.14816507000700 -3.59751151785179 -0.80073669446945
 6 -5.47498462606261 -4.67519272087209  0.25808295929593
 8 -5.94440862346235 -4.38419435283528  1.35441256155616
 8 -5.12658262146215 -5.86661054515452 -0.10424459585959
 6 -5.51286463566357 -6.88582217331733  0.83295082988299
 6  2.23996067766777 -5.20102636283628  0.45898387968797
 6  3.44791810191019 -4.24622612191219  0.86852813861386
 6  4.01387049074907 -3.31089090999100  0.04213658865887
 6  3.79461435873587 -3.11102429082908 -1.42783045184518
 6  5.04207841384138 -2.49137340554055  0.66777862876288
 6  6.46445204990499 -2.63831878487849  0.08426875277528
 6  7.56954608130813 -1.80128177397740  0.64688852345235
 6  8.94096270477048 -1.86891287328733 -0.03718043124312
 6  9.38766584668467 -3.39781968446845  0.10635376037604
 6  9.91099653525353 -0.89325994689469  0.41166913031303
 6  11.30113327062706 -0.83953674877488 -0.17187249784978
 6  12.05965358595860  0.31822101260126  0.19586037423742
 6  13.32941233533353  0.62445213211321 -0.70292004920492
 6  14.29474764776478 -0.53789451945195 -0.48773545874587
 6  14.08855879407941  1.89866463866387 -0.24851249364936
 6  15.38204748564856  2.23567550285029 -0.97839494719472
 6  16.10438005770577  3.65232774277428 -0.65469656265627
 6  17.35208960366037  3.95158407390739 -1.30140118791879
 6  17.31385036713672  4.09456501920192 -2.84122644264426
 6  17.87959137833783  5.26336446244625 -0.73934489148915
 1 -2.77008251415142  1.09324618821882  3.56957456865687
 1 -6.34224510741074  5.55051125332533  0.82411217391739
 1 -8.65332053115312  1.04644890639064 -3.20620600150015
 1 -3.59547661286129 -3.02193531023102  2.02819856195620
 1 -1.80996208220822 -1.15103271147115  2.46352851885188
 1 -2.71911123632363 -2.60653723462346  4.22353229912991
 1 -3.16300290039004 -0.96981909960996  4.76499263516352
 1 -4.31106278207821 -1.77857577557756  3.83329655225523
 1 -2.37892505810581 -3.49933297829783 -0.26373410801080
 1 -1.34774547424743 -1.91446007340734  0.21518235953595
 1 -0.75147953805381 -3.20844081638164  2.44616915801580
 1 -1.47871735033503 -4.58267510381038  1.51155019171917
 1 -1.70673932603260  3.61655634233423  3.88276065716572
 1 -2.95698335233523  4.69493913301330  4.70968663156316
 1 -2.62620255275528  2.71987518161816  4.92257923472347
 1 -5.24412827212721  6.77974595709571  2.26501861766177
 1 -10.11171515401540  3.02920007190719 -3.26396755135514
 1 -9.90513799669967  4.66953448794879 -3.09866285888589
 1 -9.39542530343034  4.21319921992199 -5.42262857345735
 1 -8.18259222522252  4.97873981458146 -4.61418109990999
 1 -8.05029530443044  3.24595890979098 -4.86911102580258
 1 -8.08607518911891 -1.06233949164916 -4.74853482248225
 1 -8.72575220312031 -2.63933099339934 -3.96939628352835
 1 -9.46164941404140 -1.12794942954295 -3.53587787288729
 1 -4.04134591059106 -3.98716453945395 -1.23001793189319
 1  2.57449539333933 -6.18609590269027  0.79874826272627
 1  1.89452277887789 -5.20701922832283 -0.56407184228423
 1  3.61606758915892 -4.33651377367737  1.85520388448845
 1  2.79568702060206 -3.44659621452145 -1.68198084818482
 1  3.80377771577158 -2.04761946254625 -1.66861507900790
 1  4.54147665506551 -3.73929578587859 -2.05209666696670
 1  4.77995186418642 -1.41564710931093  0.54769516061606
 1  5.07201956035604 -2.65459977717772  1.58016190249025
 1  6.73126234623462 -3.68873317281728  0.25643496519652
 1  6.49500834033403 -2.50054227022702 -0.95301498769877
 1  7.20732153375338 -0.77355390969097  0.61201995529553
 1  7.77055596579658 -1.75103335183518  1.72744021642164
 1  8.77345324492449 -1.60864890559056 -1.19040725942594
 1  8.65532769816982 -4.38197705760576 -0.47593006320632
 1  10.50759378877888 -3.51770512521252 -0.22086966886689
 1  9.51731847944795 -3.65359108770877  1.12574353735374
 1  9.45510657155716  0.21724013441344  0.42011118551855
 1  10.13553251185118 -0.88812713201320  1.42946388368837
 1  11.87171910301030 -1.61168849054905 -0.06023533133313
 1  11.15970191039104 -0.98040967646765 -1.27252809650965
 1  11.34542456055605  1.22578565036504  0.04033682328233
 1  12.42046280498050  0.29343062636264  1.30277945304530
 1  12.99027977027703  0.61599634243424 -1.72742894769477
 1  14.73735396259626 -0.64916793409341  0.56594169166917
 1  13.78282866936694 -1.47679085798580 -0.52880913501350
 1  15.28883874037404 -0.56827015471547 -1.03874627762776
 1  13.49720896649665  2.74010230943094 -0.04781465876588
 1  14.15507311951195  1.66114252875287  0.74293312061206
 1  16.20931965906590  1.47543300480048 -0.75170298529853
 1  15.07226202170217  2.18322657405741 -2.06283981488149
 1  15.42850431253125  4.48391159885989 -0.81948322832283
 1  16.40813044694469  3.49550550995099  0.39564202300230
 1  18.09906972377238  3.23104661316132 -1.04989937783778
 1  16.59879701650165  4.97493477237724 -3.05458973787379
 1  18.35947833773377  4.50114650785078 -3.39054648824883
 1  16.91131581688169  3.17702261346135 -3.48448900210021
 1  18.13440131413141  5.01364201720172  0.25191435713571
 1  18.92678028882888  5.48745497199720 -1.03870601170117
 1  17.14724729452945  5.99597400750075 -0.86852520462046
 1 -5.33065094969497 -7.81838293769377  0.31353703770377
 1 -6.47399789108911 -6.60179956135614  1.06487633093309
 1 -4.88718093549355 -6.97727760396040  1.54623749214922
 8 -7.61913480878088  6.84594462586259 -0.48753218161816
 1 -8.75764914871487  6.47709512521252 -2.16992546004600

