%nproc=3
%Mem=2GB
# td=(NStates=1) iop(3/107=0140000000,3/108=0140000000) iop(3/107=0140000000,3/108=0140000000) CAM-B3LYP/6-31G(d,p) 

TD

0 1
12 -5.62409814101410  1.20957098479848  0.26333900270027
 6 -5.03446356815682 -2.09533349804981 -0.28357142224222
 6 -3.42535399529953  1.20425296679668  2.71856329452945
 6 -6.33806022832283  4.57874589768977  0.64036639783978
 6 -7.95775669366937  1.19075775817582 -2.43970806470647
 7 -4.48622570707071 -0.25284120722072  1.06500666766677
 6 -4.25380060046005 -1.62014319571957  0.62019573807381
 6 -3.18368977067707 -2.29006020462046  1.45771135973597
 6 -2.91219537493749 -1.25927659735974  2.58485527212721
 6 -3.57475427542754 -0.02977212981298  2.08318897749775
 6 -3.57979008700870 -1.68789548214821  3.95794365376538
 6 -1.92869771307131 -2.52671666486649  0.60641482758276
 6 -0.95397316021602 -3.60850593849385  1.26221009790979
 6  0.23170903830383 -3.87804267636764  0.44302246334633
 8  0.49095294919492 -3.55299498829883 -0.66044606000600
 8  1.15809749194919 -4.62607775257526  1.17965395389539
 7 -5.15074362536254  2.56524676137614  1.62135882248225
 6 -4.11023511071107  2.42570058605861  2.51996722252225
 6 -3.90670120732073  3.59995007750775  3.24375331973197
 6 -4.69869562526253  4.63845231073107  2.66525240944094
 6 -5.46171553395340  3.91776645314531  1.58562371427143
 6 -2.88926755165516  3.78870595429543  4.34225809630963
 6 -4.72460516051605  5.96413644784479  2.88057349414941
 8 -4.15474796209621  6.60830566076608  3.79595356785679
 7 -6.98960060966097  2.57891582408241 -0.68622128982898
 6 -6.96838903670367  3.94847525302530 -0.39221742484248
 6 -7.94175931613161  4.64999605640564 -1.21363417251725
 6 -8.40836386918692  3.64444357445745 -2.06010056245625
 6 -7.76412022352235  2.41715989008901 -1.76735050485048
 6 -8.29876215491549  6.01267263696370 -1.17512864746475
 6 -9.41483796219622  3.87048798709871 -3.24798734733473
 6 -8.72261124182418  3.94549591269127 -4.63006625332533
 7 -6.49758552585259 -0.07573275347535 -1.02877389778978
 6 -7.38655226192619 -0.04965587118712 -2.12038796139614
 6 -7.60773388998900 -1.38897405010501 -2.62385541014101
 6 -6.69043452715272 -2.18837261056106 -2.02480169006901
 6 -6.09274719821982 -1.47847187668767 -1.08959682438244
 6 -8.63146852155216 -1.63502329092909 -3.76119703910391
 6 -6.23389701680168 -3.56560566656666 -1.94984037793779
 8 -6.50160340094009 -4.57315228532853 -2.65183542924292
 6 -5.06674692819282 -3.62906467316732 -0.83276989778978
 6 -5.39927705530553 -4.58748394999500  0.18247539853985
 8 -5.75699988258826 -4.34738067146715  1.31866898719872
 8 -5.08816878007801 -5.74169805390539 -0.30326449784978
 6 -5.31206455565557 -6.97747133823382  0.53868140294029
 6  2.38208489008901 -5.02799906010601  0.50632861416142
 6  3.55324863496350 -4.16698819811981  0.98757004280428
 6  4.12275137883788 -3.29830965186519  0.21580395539554
 6  3.79811470877088 -3.05712890129013 -1.36922459125913
 6  5.36830103610361 -2.47834210241024  0.75521737263726
 6  6.69569517421742 -2.86263121612161  0.09285961186119
 6  7.78721784848485 -1.81883352915292  0.59031286588659
 6  9.18240684918492 -2.03073905590559 -0.01304801800180
 6  9.68296537663766 -3.48545844834483  0.28280140514051
 6  10.02462789838984 -0.93654427532753  0.39860782418242
 6  11.42702585988599 -0.82060485558556 -0.37155246584658
 6  12.24800242084208  0.34477366786679  0.06664745294529
 6  13.59594898899890  0.44530421732173 -0.56676643384338
 6  14.57724589758976 -0.69951068106811 -0.26435312051205
 6  14.31879181738174  1.81355612781278 -0.18920656305631
 6  15.48023730463046  2.08500043534353 -1.08485559325933
 6  16.20923054275427  3.40037254725473 -0.58224931793179
 6  17.41821621632163  3.81882079757976 -1.34547559535954
 6  17.14102308440844  4.05551111381138 -2.93115543554355
 6  17.95462888208821  5.18568669466947 -0.80555151215122
 1 -2.86378188408841  1.14317118071807  3.64597220842084
 1 -6.33327421032103  5.67442364456446  0.70764052675268
 1 -8.55521072017202  1.18977323882388 -3.45368074897490
 1 -3.48749581478148 -3.21689480618062  1.69011475357536
 1 -1.90943202920292 -1.09099670787079  2.72647481348135
 1 -3.26062538773877 -2.65840242114211  4.39298924482448
 1 -3.39080568066807 -0.93332545024502  4.67061319721972
 1 -4.58131980778078 -1.79177709570957  3.99870309290929
 1 -2.16086325192519 -2.96394943994399 -0.37093482808281
 1 -1.36115681538154 -1.57866649404940  0.29840068136814
 1 -0.44518890899090 -3.29004897719772  2.32473701480148
 1 -1.52171164976498 -4.51427826412641  1.55758479517952
 1 -1.97151580368037  3.38707339403940  4.10964334543454
 1 -2.77860551455145  4.97462710181018  4.26085174807481
 1 -3.37413734623462  3.49564275837584  5.42928990579058
 1 -5.44627848714871  6.61665964846485  2.25786790259026
 1 -10.05110909340934  2.99879703160316 -3.31501265586559
 1 -9.93823130603060  4.70925846034603 -2.97763075567557
 1 -9.37457321822182  4.06214411441144 -5.46286259685969
 1 -8.11475544154415  4.88279021962196 -4.37438712051205
 1 -7.87019729462946  3.02667698159816 -4.63687780248025
 1 -8.14116069766977 -1.18276153385338 -4.57268723772377
 1 -8.54581420932093 -2.78723578387839 -3.75893523742374
 1 -9.60088333743374 -1.12907954255425 -3.37374165926593
 1 -4.11233300930093 -3.80113593659366 -1.43961889198920
 1  2.66389433323332 -6.15889318241824  0.75489387728773
 1  2.46035936253625 -5.15566409280928 -0.66019145424542
 1  3.79076505890589 -4.27487761006101  1.99311767586759
 1  2.72442989488949 -3.18684023892389 -1.59631228132813
 1  3.88883622162216 -2.03098779937994 -1.24584280178018
 1  4.48995150255026 -3.73513536983698 -1.83117457475748
 1  5.16684055305531 -1.43160870547055  0.60943133423342
 1  5.42189454785479 -2.71600591779178  1.90423430973097
 1  6.98383760376038 -3.87099139863986  0.26922624432443
 1  6.73573241274127 -2.80973318931893 -0.98394808100810
 1  7.64237503910391 -0.74171072537254  0.42495124842484
 1  7.85565447564756 -1.74948319681968  1.67594506690669
 1  8.98861476107611 -1.99630767146715 -1.10501872057206
 1  8.98932109750975 -4.20502936283628  0.02535006480648
 1  10.59865289468947 -3.70999435413541 -0.24696227812781
 1  9.72218896649665 -3.68068379697970  1.38485944894489
 1  9.36307736863686  0.06515492589259  0.12048122252225
 1  10.14746370497050 -0.67809612891289  1.48721965926593
 1  12.03953588468847 -1.76663398509851 -0.20027933573357
 1  11.25537147734773 -0.61640327582758 -1.34525536923692
 1  11.62376239433943  1.24003707550755  0.05918870847085
 1  12.06163692239224  0.18357964126413  1.31494066916692
 1  13.55909665196520  0.44839958275828 -1.55651185598560
 1  14.67677790499050 -0.71827484478448  0.85174027152715
 1  14.14009439593960 -1.75020819971997 -0.29394564866487
 1  15.55168502500250 -0.49235256295630 -0.59097150015001
 1  13.59295854145414  2.82689098829883 -0.45648552585259
 1  14.55694330653065  1.80771718621862  0.96701552885288
 1  16.28709743684368  1.49600506200620 -0.82913072807281
 1  15.06921171667167  2.25396364776478 -2.12098562946295
 1  15.44522598469847  4.20060326802680 -0.55638691869187
 1  16.62753238713871  3.26283224262426  0.42218467726773
 1  18.07666748354836  3.08415192369237 -1.19059344724472
 1  16.44556169296930  5.05052233113311 -2.87085136403640
 1  18.08089047894789  4.27478387158716 -3.55154258785879
 1  16.66686137143714  3.32915782698270 -3.52144269746975
 1  18.51736961096109  4.94529518251825  0.13780294599460
 1  18.85991360216022  5.53843006950695 -1.58097023812381
 1  17.14935750555055  5.98102251235124 -1.02691104320432
 1 -5.25981386598660 -7.78381948134813 -0.26872118811881
 1 -6.41414190549055 -6.87232661406141  0.88173801710171
 1 -4.67476969436944 -6.81965184138414  1.38256112451245
 8 -7.85735863116312  6.90691072247225 -0.41448487688769
 1 -8.93694707850785  6.36230364606461 -1.93436190369037

