%nproc=3
%Mem=2GB
# td=(NStates=1) iop(3/107=0140000000,3/108=0140000000) iop(3/107=0140000000,3/108=0140000000) CAM-B3LYP/6-31G(d,p) 

TD

0 1
12 -5.66487221842184  1.21976200390039  0.26025869466947
 6 -5.10683080488049 -2.15223918861886 -0.36924999009901
 6 -3.38109956985699  1.23151569306931  2.73279471767177
 6 -6.21242766506651  4.58228625172517  0.64864722592259
 6 -7.99138005600560  1.23280196259626 -2.37559165306531
 7 -4.50710779527953 -0.33268919201920  1.14261442844284
 6 -4.27672289268927 -1.62263344474447  0.59403312181218
 6 -3.21919332103210 -2.34540573917392  1.44919050765077
 6 -2.85798995439544 -1.29995066476648  2.63769055565557
 6 -3.62814961496150 -0.08436758935894  2.12711336993699
 6 -3.51072318031803 -1.72710940354035  3.97544540394039
 6 -1.94507935123512 -2.72068606180618  0.62500668676868
 6 -1.05919368226823 -3.60705579347935  1.41538541544154
 6  0.23713958135814 -3.89191406350635  0.62163032413241
 8  0.47565141904190 -3.54769445824582 -0.49762977837784
 8  1.14377605980598 -4.66202134693469  1.37182317081708
 7 -4.92224077507751  2.63323356005601  1.48758544514451
 6 -4.10285437263726  2.42301031703170  2.38307353315332
 6 -3.83345388258826  3.67855793829383  3.15631457585759
 6 -4.59346510221022  4.66041450695070  2.61987787198720
 6 -5.33895325772577  3.98656333283328  1.51856700860086
 6 -2.85053367826783  3.90723780748075  4.23316718721872
 6 -4.72700540054005  6.08787882208221  3.04788022482248
 8 -4.14090657795780  6.65282011221122  3.87487145964596
 7 -6.84252590219022  2.66259419191919 -0.70987365506551
 6 -7.04642684048405  3.92541294679468 -0.36800500360036
 6 -7.98363350355036  4.59971102790279 -1.19287209630963
 6 -8.48719175197520  3.61880101020102 -2.03192774517452
 6 -7.78776258775878  2.46044421852185 -1.67062083188319
 6 -8.32809508820882  6.05361673137314 -1.22990412501250
 6 -9.48298477687769  3.81621255955596 -3.24295684428443
 6 -8.80720970167017  4.01614297739774 -4.50574382108211
 7 -6.28141390869087 -0.12790797099710 -1.07939896029603
 6 -7.34827843454345  0.02670176457646 -1.99839576217622
 6 -7.65773889048905 -1.39176432913291 -2.62856588118812
 6 -6.76459194289429 -2.23327710101010 -2.06917612751275
 6 -6.02305022852285 -1.39405343484348 -1.10960882558256
 6 -8.58119349404940 -1.64743453205321 -3.71302222162216
 6 -6.15670929802980 -3.57551665766577 -2.03017841174117
 8 -6.49644288488849 -4.47874284438444 -2.66293653935394
 6 -5.04683493699370 -3.54824659135914 -0.87500412121212
 6 -5.22612974057406 -4.69227442904290  0.04402155315532
 8 -5.73019720232023 -4.51937787118712  1.18237535783578
 8 -4.96349631283128 -5.82517640174017 -0.46497066846685
 6 -5.16867021622162 -7.03685727682768  0.46240377517752
 6  2.44235091669167 -5.03238949914991  0.73003098439844
 6  3.43880719081908 -4.08896039533953  1.09240052585259
 6  4.04550365406541 -3.15726554745475  0.20781315631563
 6  3.81835673297330 -3.27839102750275 -1.30497816661666
 6  5.15265947194719 -2.29556382458246  0.73010486138614
 6  6.39519512421242 -2.69511446444644 -0.06124579867987
 6  7.59257838453845 -1.86685833163316  0.52981681628163
 6  9.04471307980798 -2.02676865886589 -0.04182089528953
 6  9.56595367546755 -3.38357826032603  0.13881700670067
 6  10.03750918651865 -0.95764638553855  0.45526348974897
 6  11.44853801110111 -0.94468726382638 -0.22169748034803
 6  12.32905052565257  0.28501769226923  0.20581136933693
 6  13.54835422952295  0.52391207810781 -0.67780753795380
 6  14.54055222822282 -0.78521925192519 -0.47773445864586
 6  14.18212815101510  1.91695646784678 -0.26668431083108
 6  15.38768804970497  2.20080201550155 -1.11918902660266
 6  16.01522114181418  3.55041755175518 -0.59702079507951
 6  17.37163155785579  3.79944886038604 -1.36846789458946
 6  17.24585356745675  4.08494405710571 -2.85900822082208
 6  18.17945136433643  5.01307943394339 -0.71695265226523
 1 -2.73100860676068  1.37166403000300  3.59045665686569
 1 -6.42379326222622  5.58422462466247  0.71082084478448
 1 -8.88971417051705  1.25022928442844 -3.05058043894389
 1 -3.81363842904290 -3.23184630133013  1.79495523762376
 1 -1.92271335733573 -0.95976358455845  2.72352451845185
 1 -3.13428275347535 -2.71426800770077  4.26790673657366
 1 -3.33275987608761 -1.25881799949995  4.90482661856186
 1 -4.49389106490649 -1.76460437843784  3.77118034063406
 1 -2.29995716131613 -3.19916296129613 -0.26396413101310
 1 -1.51723242294229 -1.83354198159816  0.32929377067707
 1 -0.82365675577558 -3.14846481878188  2.41192573367337
 1 -1.40492997159716 -4.58734557085709  1.57837687438744
 1 -1.83335198729873  3.67233191989199  3.89068144924492
 1 -3.10119777377738  4.92248188728873  4.67052271517152
 1 -2.96666659915992  3.12565575967597  5.21006798359836
 1 -5.41466532583258  6.72445042754276  2.34933704950495
 1 -10.06818080058006  2.97814496639664 -3.05140629522952
 1 -10.08827631053105  4.78710624512451 -2.95960895349535
 1 -9.36065182608261  4.13298119811981 -5.35099140974097
 1 -8.06958092409241  4.84821676227623 -4.31490117191719
 1 -8.25815609050905  3.14344865876588 -4.85226934163416
 1 -8.41496807840784 -0.92065532323232 -4.35305527452745
 1 -8.29270889878988 -2.65109216951695 -4.49842918681868
 1 -9.64587783688369 -1.81708834343434 -3.26101038613861
 1 -3.85643741974198 -3.62568839183918 -1.26864179427943
 1  2.67596554035404 -5.96883417651765  1.00279866776678
 1  2.38841216781678 -5.06946547294730 -0.31352678777878
 1  3.76448243064306 -4.11163128542854  2.21941030513051
 1  2.73914136603660 -3.38362991789179 -1.37563021312131
 1  4.30890822882288 -2.35408010861086 -1.76363458095810
 1  4.36827933533353 -4.18838069436944 -1.76470792809281
 1  4.88411228022802 -1.28851439603960  0.58674906600660
 1  5.06834919331933 -2.25893021022102  1.75652953925393
 1  6.66055527552755 -3.78573287278728  0.15080440214021
 1  6.51728056755675 -2.40421263726373 -1.06051573777378
 1  7.32670347194720 -0.83296985128513  0.57314606790679
 1  7.87298620882088 -2.16434468296830  1.48732620502050
 1  9.07455335493549 -1.90648868956896 -1.16543476217622
 1  8.81906407180718 -4.01235009490949 -0.73387585778578
 1  10.56015904530453 -3.54716807150715 -0.43454103600360
 1  9.59959670727073 -3.67093282188219  1.18850981398140
 1  9.58066912781278 -0.19810139973997  0.27429660406041
 1  10.23448240684068 -1.06735505480548  1.55932686998700
 1  11.81952388348835 -2.01302862456246  0.20497118931893
 1  11.34906084628463 -1.07897953345335 -1.26074691839184
 1  11.80665068316832  1.33300637243724  0.18177096669667
 1  12.62298305700570  0.19167045034503  1.22691186628663
 1  13.32409315161516  0.51844658745875 -1.71466767156716
 1  15.02678290549055 -0.45507852515252  0.55114021152115
 1  14.26768715521552 -1.94007718661866 -0.41518777287729
 1  15.34708456495649 -0.73264659235924 -1.05900830383038
 1  13.55364461006100  2.78887718691869 -0.32734261156116
 1  14.36486409860986  1.70047646214621  0.89974880218022
 1  15.99374810191019  1.36014147564757 -1.21066888188819
 1  15.14550934643464  2.48676692809281 -2.21867539843984
 1  15.35815727782778  4.41988519621962 -0.68415969596960
 1  16.08182781668167  3.17561352075208  0.45254771357136
 1  17.85284510131013  2.78818232673267 -1.01942633053305
 1  16.41648878567857  5.04551183008301 -2.87432171107111
 1  18.07535992589259  4.38426481968197 -3.49188662226223
 1  16.71941662696269  3.37467237843784 -3.45214576777678
 1  18.49459733373337  4.73108376137614  0.36302546824682
 1  19.18609622042204  5.20609683618362 -1.07876001710171
 1  17.70286285608561  5.89894430453045 -0.75757410951095
 1 -4.97649553415342 -8.04067516691669  0.09064474847485
 1 -6.10154064536454 -7.09341872327233  1.00074991829183
 1 -4.55063728112811 -7.04815469166917  1.17449031743174
 8 -7.75149804510451  6.85306533793379 -0.56974040244024
 1 -9.09966335013501  6.26616403210321 -2.08798726622662

