%nproc=3
%Mem=2GB
# td=(NStates=1) iop(3/107=0140000000,3/108=0140000000) iop(3/107=0140000000,3/108=0140000000) CAM-B3LYP/6-31G(d,p) 

TD

0 1
12 -5.62332806400640  1.25313534123412  0.18241090989099
 6 -4.98765888768877 -2.13548751345135 -0.33595666076608
 6 -3.41358281818182  1.20696323782378  2.83240467866787
 6 -6.25773219551955  4.58393641674167  0.63824618581858
 6 -8.03542446044604  1.16550523292329 -2.33022711661166
 7 -4.35503258775878 -0.30527645074507  1.05325549254925
 6 -4.23318853925393 -1.58784996639664  0.65825954445445
 6 -3.26282768446845 -2.36837803640364  1.58096368496850
 6 -3.01626578197820 -1.34175484518452  2.69648643524352
 6 -3.63988078807881 -0.03252240484048  2.25714637323732
 6 -3.65007711571157 -1.75901259385939  4.05617347674767
 6 -1.96275111841184 -2.62926691989199  0.71333551965196
 6 -0.98198596149615 -3.59137422532253  1.51943582048205
 6  0.20759662706271 -4.01546641874187  0.68624678577858
 8  0.40856471037104 -3.56096578537854 -0.47011702710271
 8  1.11545322752275 -4.75961110591059  1.26210219871987
 7 -4.95375392639264  2.64162439913991  1.40391707830783
 6 -4.09493358055806  2.40663867986799  2.42879810561056
 6 -3.66572710991099  3.58285836833683  3.15586453085309
 6 -4.42623837953795  4.60017848334833  2.52793867806781
 6 -5.27229659205921  3.98184286078608  1.46943209510951
 6 -2.77732635753575  3.78674575827583  4.24253812431243
 6 -4.58333103310331  6.02399243344335  2.87354279107911
 8 -3.88462094939494  6.47965279547955  3.72388636113611
 7 -6.91531318091809  2.58218615111511 -0.71843451115112
 6 -6.95735793359336  3.91809221472147 -0.41740994409441
 6 -7.94606974717472  4.62211326812681 -1.15794860396040
 6 -8.47201023382338  3.71763089318932 -2.02782733513351
 6 -7.69536334783478  2.43153132723272 -1.71378514831483
 6 -8.29806208490849  6.04476584628463 -1.17245838043804
 6 -9.41464794319432  3.87749868816882 -3.13480602920292
 6 -8.74158313901390  4.02612397549755 -4.48979222592259
 7 -6.40861662896290 -0.19550473067307 -1.16851787218722
 6 -7.41731533823382 -0.08807971357136 -2.09152507510751
 6 -7.53354647124712 -1.37926307900790 -2.71351437603760
 6 -6.70156564026403 -2.18083185648565 -2.02656186608661
 6 -5.92983090659066 -1.36828085758576 -1.15930379507951
 6 -8.59116449114912 -1.55653544214421 -3.73800471987199
 6 -6.18236186328633 -3.52737184318432 -2.01305669956996
 8 -6.55192843344334 -4.47635260536054 -2.63268351405141
 6 -4.99602985648565 -3.53400516721672 -0.90363698449845
 6 -5.38278540614061 -4.60378558015802  0.12610976197620
 8 -5.82047623022302 -4.36338227162716  1.22345946624662
 8 -5.00572053525353 -5.83079696379638 -0.39905407680768
 6 -5.29722307150715 -6.96456004710471  0.53521105590559
 6  2.34239092069207 -5.06199245944594  0.59291727302730
 6  3.47339064916492 -4.23496499579958  0.97706899269927
 6  4.10796990069007 -3.25169499039904  0.17966034103410
 6  3.73713861116112 -3.19459264766477 -1.26565423422342
 6  5.16123032903290 -2.38210247844784  0.69443129402940
 6  6.58940454515452 -2.71211616461646  0.07254758065807
 6  7.62927205390539 -1.78307995379538  0.47605143974397
 6  9.06699530803080 -2.02212819481948 -0.06129284248425
 6  9.63167024712471 -3.47603750625062  0.30657378237824
 6  10.06911234683468 -0.90257087798780  0.34960292369237
 6  11.35011816911691 -0.83706650175017 -0.39973528412841
 6  12.21005862646265  0.35726491699170  0.13640442864286
 6  13.56383577767777  0.54602428932893 -0.58799855705571
 6  14.44902307530753 -0.62848357835784 -0.38280496569657
 6  14.20579051725172  1.74002877507751 -0.16884452685269
 6  15.43950323122312  2.20571250655066 -1.20844795249525
 6  15.97921754145414  3.54479698969897 -0.74786587958796
 6  17.38759315401540  3.95329424492449 -1.24409545734573
 6  17.41104008610861  3.90695625832583 -2.80318263826383
 6  17.68214163336334  5.31728985498550 -0.65223618061806
 1 -2.65264076997700  1.15235209880988  3.66602421362136
 1 -6.43468435133513  5.56801300350035  0.63645340804080
 1 -8.81996719581958  1.22707696919692 -3.08672405330533
 1 -3.76547361256126 -3.30877399409941  1.78899464156416
 1 -2.04058514451445 -1.08374598279828  2.89990215621562
 1 -3.13928325352535 -2.73613019391939  4.42788273417342
 1 -3.54364096419642 -1.16672879057906  4.90093622952295
 1 -4.61921359715972 -2.02361027902790  3.87312053465347
 1 -2.17700486608661 -3.06731977697770 -0.31505924052405
 1 -1.38411911161116 -1.78781740914091  0.49952079337934
 1 -0.56170056015602 -3.12305227752775  2.52653719481948
 1 -1.56535601420142 -4.52350918721872  1.99039807650765
 1 -1.60152880498050  3.94702938963896  3.89888226932693
 1 -2.79770742474247  4.82552219131913  4.75097075997600
 1 -3.01566149864986  3.01561475557556  5.05765274207421
 1 -5.27868172747275  6.67497548004800  2.36191830763076
 1 -9.92827681018102  2.84249140104010 -3.03839499409941
 1 -10.08264574747475  4.66341387588759 -2.97196018861886
 1 -9.39899566046605  4.02352025202520 -5.42531884248425
 1 -8.24009797579758  4.82767470807081 -4.43983366516652
 1 -8.00649092399240  3.41849616351635 -4.74928904360436
 1 -8.34286086768677 -0.98634189188919 -4.69989995899590
 1 -8.39072870077008 -2.54343140344034 -4.32534187808781
 1 -9.73230647974797 -1.47739437403740 -3.56589087418742
 1 -4.26958873487349 -3.69746556955696 -1.44551948204820
 1  2.53489143294329 -6.00175746884688  1.00361874977498
 1  2.14553788038804 -5.25501402780278 -0.46112154725473
 1  3.72182816521652 -4.33419354165417  2.15304366846685
 1  2.73452090399040 -3.55868742364236 -1.58139078917892
 1  4.03655099309931 -2.16443114371437 -1.66226444394439
 1  4.20782328972897 -3.98918077437744 -1.90622207950795
 1  4.84340820982098 -1.25840138473847  0.38121851295130
 1  5.51601395979598 -2.69255357255726  1.62586647294729
 1  6.88804802480248 -3.81132543204320 -0.03729440774077
 1  6.56808564806481 -2.52523473947395 -1.05902558875888
 1  7.28448925052505 -0.82748930323032  0.31884063736374
 1  7.50953986418642 -1.81145939443944  1.63694116651665
 1  9.16547244684469 -1.85905394609461 -1.18134635333533
 1  8.97856002140214 -4.37645650555056  0.19008653845384
 1  10.63679670907091 -3.60521387608761 -0.23092067396740
 1  10.13683043064306 -3.42941867046705  1.33787475047505
 1  9.26590765166517 -0.20566215581558  0.18252742714271
 1  10.05082404100410 -0.81331965126513  1.38677961526153
 1  11.91305323642364 -1.76569389108911 -0.34318362616262
 1  11.30746668686869 -0.57494913041304 -1.39144998869887
 1  11.49784980308031  1.04229730153015 -0.09279649004900
 1  12.48268902760276  0.13200448374837  1.23945312041204
 1  13.19246998929893  0.61939668246825 -1.60199640444044
 1  14.88905913311331 -0.76015903320332  0.71960705820582
 1  13.79014940144014 -1.63876705560556 -0.83620987508751
 1  15.38466832333233 -0.65414874257426 -1.15039744274427
 1  13.38365761136114  2.45657395659566 -0.09600947824782
 1  14.65559317151715  1.67882429692969  0.78399722702270
 1  16.31875060216021  1.47930339183918 -0.98168598359836
 1  15.34737953345335  2.03784203560356 -2.25257878877888
 1  15.39921138323832  4.51577478517852 -1.17781906190619
 1  16.17181681558156  3.54725068446845  0.31198365716572
 1  18.26786660346035  3.24833834233423 -0.80217460536054
 1  16.47082421922192  4.60789806870687 -2.97073135203520
 1  18.42751514141414  4.38105449864987 -2.98666610021002
 1  17.20462514781478  2.93634854605461 -3.16357691089109
 1  17.41855972997299  5.16640729372937  0.46754592029203
 1  18.93053066386639  5.63735996249625 -0.64008614971497
 1  16.86750932073208  6.08689309940994 -1.16895524762476
 1 -5.17424530913091 -8.03105420482048 -0.07010132613261
 1 -6.43030352165216 -7.03080246164617  0.78263810711071
 1 -4.82491470887089 -6.91851172737274  1.41605447384738
 8 -7.87207010231023  6.88043807520752 -0.44946837523752
 1 -8.83013639743974  6.21975939163916 -1.99115758325833

