%nproc=3
%Mem=2GB
# td=(NStates=1) iop(3/107=0140000000,3/108=0140000000) iop(3/107=0140000000,3/108=0140000000) CAM-B3LYP/6-31G(d,p) 

TD

0 1
12 -5.48633436463646  1.23648367606761  0.08503117191719
 6 -4.96303642544254 -2.09601356605661 -0.37795086018602
 6 -3.49250070997100  1.16678922042204  2.71818325652565
 6 -6.16939336163616  4.50942896599660  0.59299166036604
 6 -7.90861177917792  1.23446212861286 -2.46316040994099
 7 -4.27084416891689 -0.29258518161816  0.95134530153015
 6 -4.18965418581858 -1.58036921832183  0.62741646014601
 6 -3.21089249094910 -2.29777097569757  1.52042763136314
 6 -2.86885104050405 -1.25824649434943  2.62996978357836
 6 -3.58608540854085 -0.06831598419842  2.07294795339534
 6 -3.44123623162316 -1.71438813141314  3.96726458585859
 6 -2.08069291259126 -2.73134712791279  0.64517870397040
 6 -0.90010777367737 -3.52629771767177  1.39456333323332
 6  0.29205507290729 -3.82094696679668  0.58053621472147
 8  0.49724357825783 -3.50901058985899 -0.53507352275228
 8  1.13545522772277 -4.73462860766077  1.27833382188219
 7 -4.91080963196320  2.63196343304330  1.42040872747275
 6 -4.04904899209921  2.42907092309231  2.42338756455646
 6 -3.80305084228423  3.59883996649665  3.21777072147215
 6 -4.52400815651565  4.57656612211221  2.62920880508051
 6 -5.22833219561956  3.99777445394539  1.46255140704070
 6 -2.67454607950795  3.82631971567157  4.30276414691469
 6 -4.53726642664266  6.02632266646665  2.89457489428943
 8 -4.04680716801680  6.62830766096610  3.83200717321732
 7 -6.83756540614061  2.60635856835684 -0.63755642334233
 6 -6.88748094589459  3.90856126162616 -0.30348855195520
 6 -7.86143128332833  4.63874493129313 -1.19429223832383
 6 -8.31701473427343  3.75044417451745 -2.07679223162316
 6 -7.73600741224122  2.40936911101110 -1.74897866766677
 6 -8.32144442314232  6.04527589728973 -1.11707284188419
 6 -9.43571004940494  3.82910384868487 -3.07935048364836
 6 -8.92502148284829  3.93530489358936 -4.61572481918192
 7 -6.31304707200720 -0.13252843304330 -1.13398441884188
 6 -7.27594120082008  0.03858295269527 -2.11128705130513
 6 -7.51925504210421 -1.32986813951395 -2.68682170677068
 6 -6.74073955765577 -2.12866663996400 -2.06763597349735
 6 -6.00245816931693 -1.35629965946595 -1.08933679837984
 6 -8.47282265696570 -1.68981877047705 -3.74300521992199
 6 -6.24623825092509 -3.51461056705671 -2.01432682658266
 8 -6.67047028762876 -4.54284925502550 -2.53463370907091
 6 -5.11549180268027 -3.61872363906391 -0.85848246904690
 6 -5.44320144774477 -4.64649985158516  0.18667581858186
 8 -5.83791797439744 -4.52938887228723  1.28395551585159
 8 -5.10745070827083 -5.84990887498750 -0.46279045044504
 6 -5.49376272547255 -6.98070166126613  0.43162069686969
 6  2.36961364296430 -5.10083634383438  0.59146712801280
 6  3.44617792789279 -3.98502000130013  0.95263654945495
 6  4.04049315301530 -3.18991881278128  0.12977535253525
 6  3.85673057035704 -3.19900308870887 -1.34305197399740
 6  5.14216842284228 -2.31845611381138  0.68650050095010
 6  6.51745735043504 -2.79638459145915  0.12421274717472
 6  7.69268839553955 -1.96271791759176  0.66322015661566
 6  9.03934254275428 -2.15929191119112  0.04372765956596
 6  9.51397847794779 -3.52769267176718  0.23948707370737
 6  10.05608104370437 -1.10120074097410  0.53551151455146
 6  11.40249340664066 -0.93589638473847 -0.24960027062706
 6  12.19192681328133  0.27297648814881  0.24340512871287
 6  13.45445483958396  0.41019070597060 -0.53510326752675
 6  14.53307148014802 -0.63302403240324 -0.24147083228323
 6  14.14073401160116  1.72161693389339 -0.18116575897590
 6  15.24501378227823  2.20012194749475 -1.07151425912591
 6  15.95049466916691  3.61284379437944 -0.70444153715372
 6  17.20846524122412  4.10780969646965 -1.41206225402540
 6  17.08561754385439  4.04612017471747 -2.94863718371837
 6  17.76070949014902  5.35221334733473 -0.91730268726873
 1 -3.07410291619162  1.12885974957496  3.89724733593359
 1 -6.44327521042104  5.42451865406541  0.67599736243624
 1 -8.62981818091809  1.32964722622262 -3.29851523242324
 1 -3.61895896109611 -3.26957007370737  2.03381912401240
 1 -1.78773985998600 -1.02031964016402  2.64606677267727
 1 -2.98051737693769 -2.46158273917392  4.56701664756476
 1 -3.30158675877588 -1.09844196189619  4.91182731863186
 1 -4.49137081288129 -2.20831874987499  4.11247447004700
 1 -2.40588775437544 -3.44563760876088 -0.06639437403740
 1 -1.58702940264026 -1.96265489288929  0.32429327062706
 1 -0.71590598069807 -2.99671964426443  2.40393493459346
 1 -1.11703118171817 -4.59308614491449  1.94434347104710
 1 -1.46515516761676  3.86986167286729  4.07933031413141
 1 -2.78430608460846  4.72514215331533  4.92601826472647
 1 -2.71222115461546  2.95182837693769  5.25358233503350
 1 -5.22557641694169  6.51890987348735  2.16517863366337
 1 -10.06084006650665  3.06296344824482 -3.11707286188619
 1 -9.90067755065507  4.87286482098210 -2.85198819141914
 1 -9.76279204010401  4.10714861486149 -5.19997630823082
 1 -8.25241920792079  4.91559349994999 -4.89937961976198
 1 -8.31570184508451  3.12476679057906 -4.83352746744674
 1 -8.05794237583759 -1.12411566926693 -4.80793076207621
 1 -8.40973060096010 -2.78491555185519 -3.81261060496050
 1 -9.47215046414641 -1.70072670727073 -3.38132241734173
 1 -4.30070184618462 -3.93644946794679 -1.45614054415442
 1  2.71770971477148 -5.96388368146815  1.09804819271927
 1  2.16636996359636 -5.18853738013801 -0.46654208930893
 1  3.45504148654865 -3.86103622592259  2.06225458955896
 1  2.78970642254225 -3.36254780968097 -1.58520117021702
 1  4.08771610961096 -2.17838253885389 -1.78459667716772
 1  4.66741924932493 -3.97768962526253 -1.76386784408441
 1  4.76683055205521 -1.30697624222422  0.40923131423142
 1  4.91929428782878 -2.44857917511751  1.82840672697270
 1  6.75081430143014 -3.77690198969897  0.23789311101110
 1  6.48690753025302 -2.73043525952595 -1.03665335153515
 1  7.34905570717072 -0.80464701900190  0.73627238053805
 1  7.88579748994899 -2.10930917941794  1.75198267066707
 1  8.95506140574058 -1.93919195989599 -1.07785600430043
 1  8.91570373577358 -4.31680053995400 -0.13281575177518
 1  10.39901293069307 -3.56875022972297 -0.32046962886289
 1  9.74793154075407 -3.67561328992899  1.28444940794079
 1  9.34917597849785 -0.20365195479548  0.45011418581858
 1  10.24830378897890 -1.23728204750475  1.66461739903990
 1  11.93944587568757 -1.82711003270327 -0.40075938373837
 1  11.26345228542854 -0.83032466796680 -1.26543738743874
 1  11.65289530763076  1.06570964276428 -0.30783799419942
 1  12.40016077477748  0.28509979327933  1.40736991209121
 1  13.31713245554555  0.53128787158716 -1.64909111391139
 1  14.76470669786979 -0.60152316961696  0.91951704920492
 1  14.22699308580858 -1.78384156305631 -0.56791304540454
 1  15.68207806430643 -0.31809513721372 -0.65131753475348
 1  13.45485473107311  2.55478377757776  0.08335845854585
 1  14.68247585978598  1.60110652515252  0.88188701600160
 1  16.02045077217722  1.47126258775878 -1.24187200220022
 1  14.94324912041204  2.37795604700470 -2.28053158405841
 1  15.08843030513051  4.27637084478448 -0.93715499549955
 1  16.20212984688469  3.49180513991399  0.40079253805381
 1  18.04778459525953  3.31494500300030 -0.86752114001400
 1  16.31057819461946  4.74614189308931 -3.20590486938694
 1  18.00681307120712  4.47391378457846 -3.36614404800480
 1  16.85370005530553  3.07080199139914 -3.26405695889589
 1  17.90038791279128  5.45144579757976  0.24775394109411
 1  18.76920453125313  5.58817504400440 -1.28495063616362
 1  17.23847641744175  6.16913132323232 -0.87054540664066
 1 -5.07513539813981 -7.68375947534753 -0.09938425442544
 1 -6.46540703200320 -7.14153353475348  0.60251009430943
 1 -5.05986820422042 -6.90590046624662  1.59221208960896
 8 -7.82110500580058  6.85461549294929 -0.32616604500450
 1 -9.06754013781378  6.19810722642264 -1.95297376487649

