%nproc=3
%Mem=2GB
# td=(NStates=1) iop(3/107=0140000000,3/108=0140000000) iop(3/107=0140000000,3/108=0140000000) CAM-B3LYP/6-31G(d,p) 

TD

0 1
12 -5.63726945814581  1.24795482318232  0.25708837763776
 6 -5.04198432023202 -2.14035800050005 -0.33405647074707
 6 -3.53242470237024  1.16646918841884  2.89166060426043
 6 -6.23242966526653  4.63618164126413  0.63384574577458
 6 -7.94117503550355  1.16249493189319 -2.36374046794680
 7 -4.44524160866087 -0.32759868296830  1.08231839883988
 6 -4.25186040644064 -1.63351453285329  0.57030074857486
 6 -3.21561296299630 -2.24707590619062  1.48125371397140
 6 -3.04587874327433 -1.39378004770477  2.63093988058806
 6 -3.69557635763576 -0.07084623722372  2.25331599019902
 6 -3.59086119411941 -1.90474716731673  3.98541640104010
 6 -1.96908175147515 -2.60365435863586  0.73497768386839
 6 -0.95096285918592 -3.54222931083108  1.54984886178618
 6  0.28644451185119 -3.73987885998600  0.69109727082708
 8  0.46944079797980 -3.36174586338634 -0.45400541594159
 8  1.04061574377438 -4.65225036983698  1.28762475097510
 7 -4.94494304530453  2.68003824052405  1.48005469206921
 6 -4.13588767596760  2.34947296329633  2.64934015981598
 6 -4.02403294049405  3.56335641814181  3.40722966736674
 6 -4.71911766746675  4.58857732323232  2.68484436863686
 6 -5.34657401980198  3.98390306680668  1.51531668356836
 6 -3.03969259415942  3.71537862156216  4.55738960946095
 6 -4.71212391239124  6.00683071727173  3.02893833063306
 8 -4.02696518381838  6.54676950715072  3.91128510101010
 7 -6.87852950255026  2.67300523302330 -0.69326199389939
 6 -6.90990318811881  3.98039844534453 -0.37530573367337
 6 -7.82726786698670  4.62052310911091 -1.33179598869887
 6 -8.42824585738574  3.63458258835884 -2.12114666706671
 6 -7.74309812131213  2.35441361546155 -1.70126389618962
 6 -8.20366264496450  5.98414978467847 -1.30852198679868
 6 -9.31872835123512  3.80043098139814 -3.34940748934893
 6 -8.54990397109711  3.86921828492849 -4.63017626432643
 7 -6.32932870017002 -0.12131731193119 -1.12958397879788
 6 -7.34616822352235 -0.04635554115412 -2.10768669126913
 6 -7.50768388498850 -1.33749890259026 -2.71542456705671
 6 -6.75966144984498 -2.23110688398840 -2.04581379127913
 6 -5.96470439393939 -1.48077210671067 -1.11426929162916
 6 -8.46608198289829 -1.75753554215422 -3.76630755015502
 6 -6.21630525762576 -3.61028013401340 -2.04204959885989
 8 -6.54310755135513 -4.58671364146415 -2.65256550225023
 6 -5.10199045254525 -3.56538830553055 -0.84867148794879
 6 -5.46185331293129 -4.64930013161316  0.16277342834283
 8 -5.78615279787979 -4.39037497089709  1.28712583288329
 8 -5.14640460366037 -5.90576446054605 -0.34926909830983
 6 -5.63217656685669 -7.05433902500250  0.58027556235624
 6  2.35701238283828 -5.05952221242124  0.67688566986699
 6  3.42449575967597 -4.01135263456346  0.96943822962296
 6  4.11826092979298 -3.21924174507451  0.13325570057006
 6  3.62163706100610 -3.16829001740174 -1.31071874067407
 6  5.23077728372837 -2.21783605180518  0.51977382828283
 6  6.55825142984298 -2.57344229722972 -0.10524019811981
 6  7.69291841854185 -1.78676032183218  0.38442227682768
 6  9.06571518001800 -1.93688967096710 -0.21685839903990
 6  9.69265634573457 -3.27252715521552  0.07197032203220
 6  10.01281671727173 -0.86233685458546  0.30068803220322
 6  11.43101625892589 -0.79114190929093 -0.34920023062306
 6  12.20846846744674  0.48584777527753  0.09737052525253
 6  13.57035642974297  0.57782746964696 -0.63428318551855
 6  14.46188436143614 -0.74620535053505 -0.48129481468147
 6  14.30977091529153  1.83693846604660 -0.21959960236024
 6  15.56899618051805  2.15692762806281 -0.95266237393739
 6  16.12855247494749  3.45132764276428 -0.53225431843184
 6  17.45743013771377  3.77640655615562 -1.28327937573757
 6  17.28867784988499  3.81216677937794 -2.88082040204020
 6  18.16537995719572  5.09612773877388 -0.77964892189219
 1 -2.79314482038204  1.01062792639264  3.75859347054705
 1 -6.36583746664666  5.56143234543454  0.65715547824782
 1 -8.54827002610261  1.12973723522352 -3.27642302320232
 1 -3.70875794099410 -3.18483159985999  1.74857059915992
 1 -1.88403948994899 -1.29240684888489  2.82693485948595
 1 -3.07780710591059 -2.80928750965097  4.10358030393039
 1 -3.75062166226623 -1.12173429112911  4.75299143504350
 1 -4.52802447824782 -2.41240915891589  3.70821404400440
 1 -2.31782894849485 -3.04067711271127 -0.22620035463546
 1 -1.42451315101510 -1.56814544194419  0.70809165046505
 1 -0.46513090319032 -3.13600357265727  2.49401394249425
 1 -1.38014749334934 -4.42824966126613  1.54590362706271
 1 -2.01210986308631  3.60210489718972  4.29339172027203
 1 -3.13401105510551  4.69002864196420  4.92245790869087
 1 -3.31039097159716  2.77226042014201  5.21723870067007
 1 -5.58844270357036  6.59324730723072  2.50863297909791
 1 -10.13465744824482  2.98974612651265 -3.34904605920592
 1 -10.01430891379138  4.59485702020202 -3.14402739533953
 1 -9.31135689658966  3.66110401040104 -5.44000031063106
 1 -8.04124809080908  4.74702664326433 -4.59644932673267
 1 -7.69965023992399  3.07106142004200 -4.77262137683768
 1 -8.23536011761176 -1.25540879857986 -4.71379134813481
 1 -8.45995562346235 -2.81098815911591 -3.83377272117212
 1 -9.51349459855986 -1.72752938753875 -3.41029531463146
 1 -4.27784956095610 -3.67259308230823 -1.36855178527853
 1  2.59228717251725 -6.01051834493449  1.15580396829683
 1  2.21388471507151 -4.97450597699770 -0.27881331643164
 1  3.76284226662666 -3.84813493579358  2.11875023912391
 1  2.78377582948295 -3.71425298019802 -1.53527617771777
 1  3.72264960296030 -2.19398409900990 -1.84246246374637
 1  4.53933644104410 -3.79002085838584 -1.81911336863686
 1  5.10794466346635 -1.16274181878188  0.23458384948495
 1  5.49753211161116 -2.20810512771277  1.61853573987399
 1  6.67768698869887 -3.72398669816982 -0.12136281458146
 1  6.41319015851585 -2.62863507950795 -1.22176186238624
 1  7.47719852145215 -0.77171372567257  0.36788554185419
 1  7.81029994019402 -1.95274352285228  1.48834630703070
 1  9.16705260486049 -1.56514455515551 -1.21168938763876
 1  9.05075724112411 -4.09330819071907 -0.37679014921492
 1  10.70151318071807 -3.27574092879288 -0.31277885978598
 1  9.64397114471447 -3.21274700330033  1.31806276927693
 1  9.50492155305530  0.16782519291929 -0.17846867246725
 1  10.11398035663566 -0.86790510981098  1.51868280558056
 1  12.11340327142714 -1.76529385108511 -0.08982829062906
 1  11.18996493669367 -0.88980061556156 -1.42264310801080
 1  11.58497851595159  1.49711278307831 -0.13217042744274
 1  12.33458421712171  0.48150943424342  1.23816299139914
 1  13.43025376767677  0.84973971677168 -1.62836904170417
 1  14.71488171537154 -0.82408542584258  0.64689978747875
 1  13.91808219471947 -1.60773395229523 -1.02560881498150
 1  15.49601945844584 -0.61016434413441 -0.91833423642364
 1  13.54559380498050  2.41178947814781 -0.50807068436844
 1  14.32318993119312  1.82058847334733  0.97651647894790
 1  16.29650837793779  1.31811727322732 -0.77652546754675
 1  15.58685348084808  2.16484473587359 -2.05254878577858
 1  15.26565802790279  4.08286149384938 -0.65700698069807
 1  16.42059169306930  3.38986494589459  0.55326778557856
 1  18.09572938973897  2.96161967046705 -0.98666305420542
 1  16.61708884568457  4.51472875177518 -3.31292557145715
 1  18.17183957385739  4.36932332553255 -3.40805823942394
 1  17.06810149544954  2.80878578977898 -3.35203575677568
 1  18.29999787378738  5.03122377537754  0.28802796849685
 1  19.06429404020402  5.28349457595760 -1.13561570267027
 1  17.48185075487549  5.87149155925593 -0.81345969806981
 1 -5.36447433203320 -7.89156025542554 -0.00735505150515
 1 -6.60082057335734 -6.95309469086909  0.82432227552755
 1 -5.17779999739974 -6.77581745794580  1.58806167456746
 8 -7.68658155345534  6.86360639203920 -0.53782721112111
 1 -9.05706909070907  6.43938135383538 -1.92025049254925

