%nproc=3
%Mem=2GB
# td=(NStates=1) iop(3/107=0140000000,3/108=0140000000) iop(3/107=0140000000,3/108=0140000000) CAM-B3LYP/6-31G(d,p) 

TD

0 1
12 -5.54226995819582  1.26381640934093  0.07463013181318
 6 -4.99150927272727 -2.08253221792179 -0.40099316441644
 6 -3.27994945484548  1.19964250575058  2.57885932413241
 6 -6.29061548384839  4.60621864496450  0.60282264346435
 6 -7.93363428142814  1.13233191559156 -2.42666676057606
 7 -4.41267835233523 -0.32554847794779  0.98250841784178
 6 -4.21397661806181 -1.63371455285529  0.60913463196320
 6 -3.12314371607161 -2.27453865246525  1.46249183778378
 6 -2.81712586798680 -1.24119478917892  2.58016480308031
 6 -3.53559035903590 -0.05402455505551  2.06398705730573
 6 -3.44582669066907 -1.58123481608161  3.99460732013201
 6 -1.84902974627463 -2.55305929912991  0.67089127522752
 6 -0.82488025092509 -3.50402549044904  1.41725560246025
 6  0.34756062346235 -3.88339321142114  0.69958811991199
 8  0.57848170207021 -3.45291498029803 -0.50498051345135
 8  1.10510219241924 -4.72111725652565  1.46138212671267
 7 -4.81952050305031  2.66913715041504  1.38369505610561
 6 -3.95842993019302  2.43765178117812  2.34583980978098
 6 -3.78507904510451  3.65897598009801  3.17054599899990
 6 -4.56945270097010  4.58371683718372  2.55964184838484
 6 -5.29525888828883  3.93086776327633  1.48670382228223
 6 -2.84375300020002  3.77871495519552  4.28128199869987
 6 -4.77883058305831  5.97854788898890  3.03325876267627
 8 -4.16833932123212  6.46542137233723  3.96872084458446
 7 -6.94874652425242  2.65136306880688 -0.68834150185019
 6 -7.03965616341634  4.01418182368237 -0.31133933703370
 6 -8.00670581078108  4.60280133693369 -1.27489029812981
 6 -8.51090412321232  3.51577070717072 -2.03219777217722
 6 -7.78679249074908  2.38361653575358 -1.83711748154815
 6 -8.35261754045405  6.01992336203620 -1.15838697329733
 6 -9.64940141854185  3.75100603890389 -3.02002455105511
 6 -8.97869685038504  3.92680404350435 -4.46995024172417
 7 -6.39183495079508 -0.10256543674367 -1.04284530493049
 6 -7.34155776247625 -0.03876478207821 -1.99427535013501
 6 -7.43555667226723 -1.26161131383138 -2.73259628422842
 6 -6.67928341204120 -2.14051782508251 -1.97070628052805
 6 -5.98934685818582 -1.42395642514251 -1.01135900060006
 6 -8.56491186588659 -1.56327611621162 -3.83711463086309
 6 -6.22069569666967 -3.51953105910591 -2.03032842674267
 8 -6.58429166976698 -4.49748471857186 -2.65087533323332
 6 -5.09651990549055 -3.59474124082408 -0.90004662546255
 6 -5.24152127972797 -4.58253345494550  0.03821097209721
 8 -5.71109529212921 -4.39734566796680  1.19160628092809
 8 -5.00023998719872 -5.81385526962696 -0.45169934133413
 6 -5.20039338853885 -6.94819841094109  0.44826236103610
 6  2.35199188078808 -5.07802406260626  0.76490447174717
 6  3.42687599769977 -4.11373287258726  1.10890217601760
 6  4.06921602530253 -3.24725454635464  0.22898527352735
 6  3.67243214051405 -3.09453264166417 -1.34081174997500
 6  5.15177938393839 -2.39005327352735  0.74206605750575
 6  6.53322892759276 -2.74812976597660  0.13133345924592
 6  7.57724685138514 -1.89245089088909  0.68186202080208
 6  8.96378498699870 -2.01543752575258 -0.08373508670867
 6  9.49609668976898 -3.50491039353935  0.06334945994599
 6  9.86480191579158 -0.97710833173317  0.53993195659566
 6  11.31534469176918 -0.98317111221122 -0.16811212181218
 6  12.18881650225022  0.26069526002600  0.20202099029903
 6  13.59103849794979  0.41783147004700 -0.59027878507851
 6  14.44079225222522 -0.77539826982698 -0.42552923812381
 6  14.18595853405341  1.67591236343634 -0.20699834223422
 6  15.50833011391139  2.08520045534553 -1.12683979167917
 6  16.09751937163716  3.48242075207521 -0.69086017901790
 6  17.35482987768777  3.96484540004000 -1.32081312911291
 6  17.30100908300830  4.06692225492549 -2.93849616961696
 6  17.90294371357136  5.23539166516652 -0.78993995099510
 1 -2.49147465336534  1.37057392099210  3.26087369856986
 1 -6.50377126002600  5.56167236943694  0.96134589728973
 1 -8.63459865896590  1.16967122862286 -3.17804318521852
 1 -3.39970703590359 -3.34353747044704  1.83900964306431
 1 -1.76043712971297 -0.96534414261426  2.70368253425343
 1 -3.06619594479448 -2.42931951285128  4.24468441434143
 1 -3.28454505460546 -0.67518963666367  4.58407454335434
 1 -4.55026670247025 -1.78122604060406  3.60151337393739
 1 -2.02510967656766 -3.29666271127113 -0.00165790039004
 1 -1.41306200590059 -1.71836046344634  0.34440528182818
 1 -0.64936932703270 -2.86861683398340  2.31962650375038
 1 -1.40185966456646 -4.41188802510251  1.80533957065707
 1 -1.84777342944294  3.48592327902790  3.90975335643564
 1 -2.89526718071807  4.76765640474047  4.72216787968797
 1 -3.11832176467647  3.07191038513851  4.90374735153515
 1 -5.46570042934293  6.73830181268127  2.55443755955596
 1 -10.48399238173817  2.84412156405641 -3.05802695729573
 1 -10.07414489738974  4.66272380688069 -2.80141313391339
 1 -9.86923268416842  4.29666756675668 -5.21235754635464
 1 -8.18814278027803  4.68211015161516 -4.43100278207821
 1 -8.56047632253225  2.95116943084308 -4.85088920362036
 1 -7.99306588818882 -0.83114637233723 -4.78049801880188
 1 -8.37903753165316 -2.54646170647065 -4.11213055695570
 1 -9.62404565366537 -1.29201583618362 -3.64965925102510
 1 -4.12606438243824 -3.77102292529253 -1.42173710381038
 1  2.42730067386739 -6.22587988108811  1.12488087598760
 1  2.22414574117412 -5.29164769116912 -0.40825626072607
 1  3.61005698809881 -4.18514863716372  2.13227159125913
 1  2.61870932283228 -3.68493004790479 -1.59677232733273
 1  3.62724006200620 -2.02215691629163 -1.63389160666067
 1  4.38615112251225 -3.57597945424542 -1.94879633693369
 1  4.79604347334733 -1.32806835143514  0.69081947304730
 1  5.37476983538354 -2.42319663686369  1.80196408270827
 1  6.85463468346835 -3.73908820832083  0.54677399909991
 1  6.50003884338434 -2.80112232823282 -0.97551723792379
 1  7.26448725032503 -0.75210176447645  0.50979973327333
 1  7.57383629382938 -2.22661090959096  1.68148562096210
 1  8.83132903250325 -1.88820686138614 -1.13237145584558
 1  8.72279444484449 -4.47871673157316 -0.25676814701470
 1  10.26726975637564 -3.78625197989799 -0.49835741764176
 1  10.07160390799080 -3.68379410801080  1.15317628062806
 1  9.30174123502350 -0.11038262786279  0.48155733013301
 1  10.11689064766477 -1.30144846414641  1.73841477877788
 1  11.91203313441344 -1.90690801250125  0.05147583978398
 1  11.23553949414942 -0.91032266776678 -1.27570841454145
 1  11.65131514961496  1.25488856065607 -0.02034924532453
 1  12.38952971167117  0.11015229852985  1.14116329142914
 1  13.24507524982498  0.67457220002000 -1.53039924472447
 1  14.87015724292429 -0.73183620092009  0.59544464196420
 1  14.11379176567657 -1.77386056495650 -0.73592984708471
 1  15.29539939643964 -0.56204953265327 -0.96363876687669
 1  13.46240548614862  2.56916521572157 -0.33553343064306
 1  14.53129074127413  1.80412682718272  0.78403723102310
 1  16.55537426452645  1.59640510201020 -1.21100891589159
 1  15.06978177367737  2.02986123752375 -2.06426995789579
 1  15.20438190029003  4.17832103980398 -0.90362164216422
 1  16.13402303620362  3.48804476387639  0.37660011881188
 1  18.04251406820682  3.08690219871987 -0.99201358925893
 1  16.52065920272027  4.95360263916392 -3.08243252215222
 1  18.28036042594259  4.31551794499450 -3.44545197879788
 1  16.90637532283228  2.96787169836984 -3.26411696489649
 1  17.90380825482548  5.05635628862886  0.21437060276028
 1  19.04411202200220  5.53109933643364 -1.12301444254425
 1  17.35742831263126  6.24668907900790 -1.11498985108511
 1 -4.88926681128113 -7.96184728412841  0.00089577357736
 1 -6.24738522982298 -6.72923230463046  0.73117296059606
 1 -4.62146436383638 -6.93991386758676  1.38166103450345
 8 -7.91504439973997  6.87098713011301 -0.39490291869187
 1 -8.97157054085408  6.49574699039904 -1.91530999849985

