%nproc=3
%Mem=2GB
# td=(NStates=1) iop(3/107=0140000000,3/108=0140000000) iop(3/107=0140000000,3/108=0140000000) CAM-B3LYP/6-31G(d,p) 

TD

0 1
12 -5.59144487568757  1.29627965566557  0.12632530133013
 6 -4.91865198699870 -2.23047701240124 -0.46260932603260
 6 -3.41583304320432  1.18554109560956  2.70557199539954
 6 -6.22876929922992  4.59935795889589  0.72660502170217
 6 -7.92302322032203  1.12671135353535 -2.34383847774777
 7 -4.28821590609061 -0.32159808290829  0.98170833783378
 6 -4.12937815821582 -1.57362854425443  0.58933265176518
 6 -3.15925732743274 -2.27402860146015  1.46285187378738
 6 -2.80606476187619 -1.27525819551955  2.52979976657666
 6 -3.47707450745074  0.03903475087509  2.01140179877988
 6 -3.22209431743174 -1.68314500710071  4.05611347074707
 6 -1.91648649194920 -2.73419741294129  0.60807499359936
 6 -0.88176593949395 -3.53243833173317  1.52070594749475
 6  0.25592145954595 -4.01007587968797  0.59908806990699
 8  0.53038689258926 -3.70142983178318 -0.54276429182918
 8  1.05929761196120 -4.81688683348335  1.30458644714471
 7 -4.94274282528253  2.62138237493749  1.44777146374637
 6 -3.98680276747675  2.41423943994399  2.38933415921592
 6 -3.68207874507451  3.64700478297830  3.08509745414541
 6 -4.39752550825083  4.53852231773177  2.51845772997300
 6 -5.27583694609461  3.96944162066207  1.53129828172817
 6 -2.81272989788979  3.80110719441944  4.39950382088209
 6 -4.65620832083208  5.93937397159716  2.99569500630063
 8 -4.01809429672967  6.50314514471447  3.89583355585559
 7 -6.89469111871187  2.56030396289629 -0.61944461216122
 6 -6.91193339113911  3.94043444894489 -0.33923212631263
 6 -7.85389052925292  4.54867592439244 -1.16904971407141
 6 -8.51363439623962  3.64936406650665 -2.03187774017402
 6 -7.81230504200420  2.36871504560456 -1.70875464526453
 6 -8.34961724042404  6.05119648934893 -1.11380251485149
 6 -9.37718419681968  3.93335427372737 -3.13695624422442
 6 -8.79017799849985  4.11128249134913 -4.50656390309031
 7 -6.33906967426743 -0.19923510371037 -1.20335135553555
 6 -7.28593219991999 -0.08039894549455 -2.14796071867187
 6 -7.43529664626463 -1.38615376807681 -2.76397942254225
 6 -6.73454893859386 -2.22263603690369 -2.05886509640964
 6 -6.01732965646565 -1.42060609010901 -1.08156602130213
 6 -8.47622299699970 -1.62056184478448 -3.83283420282028
 6 -6.24529815691569 -3.58611771777178 -2.10399579347935
 8 -6.76625986658666 -4.54496946704670 -2.63638388408841
 6 -5.04109436293629 -3.60738250495050 -0.99633625442544
 6 -5.20580770837084 -4.70389559115912  0.12528967996800
 8 -5.62437662026203 -4.43389932333233  1.29110623092309
 8 -5.16660662386239 -5.96184006810681 -0.41925609700970
 6 -5.41974532373237 -7.05248883998400  0.52282981778178
 6  2.32337901950195 -5.05737199739974  0.83707168846885
 6  3.52744605470547 -4.09715121442144  1.05851713751375
 6  4.03680278397840 -3.24006382728273  0.20433280828083
 6  3.63468836613661 -3.09194238263826 -1.25944361316132
 6  5.03824803080308 -2.28542281048105  0.65015686658666
 6  6.39336494119412 -2.41715666866687 -0.00240991509151
 6  7.51964109080908 -1.65674732053205  0.65928976357636
 6  8.92317092559256 -1.83293927592759 -0.00011672487249
 6  9.44935201530153 -3.25577548004800  0.17748087308731
 6  9.91284672027203 -0.76760738163816  0.46368433183318
 6  11.24714787208721 -0.78450124522452 -0.28150346094609
 6  12.15929354995500  0.30211940244024  0.24230501870187
 6  13.48134752885288  0.46873656055606 -0.56995675287529
 6  14.34139231223122 -0.78482921292129 -0.41035772097210
 6  14.22798273647365  1.63507828002800 -0.12004964736474
 6  15.50939021992199  2.10919285458546 -0.91518862656266
 6  16.08567818751875  3.53711622162216 -0.57910900390039
 6  17.36488088278828  3.82750166566657 -1.40961200900090
 6  17.16285526762676  3.86989255195520 -2.94645696569657
 6  17.87946136533653  5.20178830483048 -0.88363932093209
 1 -2.65552105800580  1.05945280888089  3.49013662486249
 1 -6.32318320122012  5.59164536673667  0.95667543024302
 1 -8.71355655475548  1.18342260376038 -3.05267064796480
 1 -3.66436350155016 -3.14829794649465  1.81236697879788
 1 -1.70810189618962 -1.08024563276328  2.65896806280628
 1 -2.82051137633763 -2.44976155705571  4.42912285818582
 1 -3.01694829492949 -0.67073919161916  4.85701183708371
 1 -4.25015669146915 -1.89628754675467  4.13193641624162
 1 -2.30897806340634 -3.14793783878388 -0.18226596119612
 1 -1.50423112281228 -1.84169279667967  0.31840268156816
 1 -0.59050344044404 -2.88593856615662  2.24240878197820
 1 -1.39595907450745 -4.57880471677168  1.78512754945495
 1 -1.72858151025102  3.62063675037504  4.07945032613261
 1 -2.88842649664967  4.79893953305331  4.86671233413341
 1 -3.01019095159516  3.09732292639264  4.96802377917792
 1 -5.38462232153215  6.51018900140014  2.50227234303430
 1 -10.06387036953695  2.94660181208121 -3.00945209980998
 1 -10.18434591749175  4.73282081658166 -2.78948194079408
 1 -9.59339510041004  4.21699959995999 -5.35660197079708
 1 -8.14663862986299  4.88191013161316 -4.39537921972197
 1 -8.18402867776778  3.22899721362136 -4.90529464416442
 1 -8.28003458505851 -1.07251050875088 -4.86206617561756
 1 -8.39587921582158 -2.58207526782678 -4.05728507240724
 1 -9.44915816491649 -1.46645327992799 -3.47309159425943
 1 -4.06945872187219 -3.96748257125713 -1.45145007510751
 1  2.53166110991099 -5.88193548664866  1.30440882878288
 1  2.27525085168517 -5.20232875927593 -0.29753518861886
 1  3.56696267866787 -3.88487861016102  2.17676604070407
 1  2.73596104800480 -3.57010856575658 -1.78313096319632
 1  3.43712105010501 -1.98493319391939 -1.41442966046605
 1  4.59547205460546 -3.45805766206621 -1.96669812711271
 1  4.61539540854085 -1.27066261086109  0.51655204630463
 1  5.18506086448645 -2.14889920712071  1.70502438873887
 1  6.31467068706871 -3.59737403690369  0.09440876257626
 1  6.13914275377538 -2.12646486248625 -0.98382806900690
 1  7.31115191679168 -0.56507306160616  0.70794954825483
 1  7.56317522772277 -1.89890813931393  1.59924739713971
 1  8.73784968456846 -1.66592463316332 -1.09756797549755
 1  8.81150331573157 -4.07746660656066 -0.28691116131613
 1  10.47836086548655 -3.60078343304330 -0.27485506740674
 1  9.34104085168517 -3.68571430003000  1.20231119411941
 1  9.59514057495750  0.34042245264526  0.28311748614862
 1  9.90920987958796 -0.94734305360536  1.64203514081408
 1  11.70325225632563 -1.78503582528253 -0.36780608840884
 1  11.05401134133413 -0.51709334483448 -1.42391323502350
 1  11.81983200130013  1.31870494229423  0.00527331693169
 1  12.39414017271727  0.26095737903790  1.23491266636664
 1  13.28100884318432  0.56232097489749 -1.65267147194719
 1  14.34328455565557 -0.82485550285028  0.71343644114411
 1  13.78020840734074 -1.64696787568757 -0.69290554465447
 1  15.39437929442944 -0.93644697239724 -0.92927533053305
 1  13.69076832243224  2.54700299949995 -0.02097197449745
 1  14.62533014521452  1.49097551205120  1.01550037733773
 1  16.29560828792879  1.18705416691669 -0.73182099709971
 1  15.15983077857786  2.14938318971897 -2.02741627252725
 1  15.34079554165417  4.46576978467847 -0.95630691069107
 1  16.35637527142714  3.67088304770477  0.37317977677768
 1  18.08193801060106  3.06258976747675 -1.27073146104610
 1  16.37654479127913  4.42755003390339 -3.21713599249925
 1  18.07601999189919  4.30313670687069 -3.51091852545255
 1  16.79405409070907  2.96129104030403 -3.34336488968897
 1  18.08069594359436  4.96158681168117  0.19636880258026
 1  19.04762237303730  5.39121534803480 -1.19428156925693
 1  17.29701227102710  6.03108751885189 -1.20194854695470
 1 -5.04980286488649 -7.85560666006601 -0.05116943294329
 1 -6.51918240954095 -6.95969535093509  0.68671851515152
 1 -4.92080429782978 -6.71738161436144  1.45259812821282
 8 -7.81664455975598  6.95570560196020 -0.45821925032503
 1 -9.13822720652065  6.27298471417142 -1.97097556505651

