%nproc=3
%Mem=2GB
# td=(NStates=1) iop(3/107=0140000000,3/108=0140000000) iop(3/107=0140000000,3/108=0140000000) CAM-B3LYP/6-31G(d,p) 

TD

0 1
12 -5.71307703890389  1.20047007470747  0.24687735653565
 6 -4.85949607140714 -2.08718268296830 -0.43199626472647
 6 -3.46003746364636  1.28374091559156  2.78153959215922
 6 -6.24990141244124  4.52716073917392  0.64245660686069
 6 -8.00068098609861  1.19389807220722 -2.42059615351535
 7 -4.37008409290929 -0.21836775987599  1.03622378937894
 6 -4.16366158655866 -1.50998217961796  0.63246696519652
 6 -3.16193759545955 -2.26825802440244  1.44694028262826
 6 -2.87844199959996 -1.25246591629163  2.59082586918692
 6 -3.57499429942994  0.01983283068307  2.20160081868187
 6 -3.52071417941794 -1.72850954355436  4.09087694709471
 6 -1.90336517981798 -2.69086307950795  0.65217940404040
 6 -0.94262202510251 -3.59306439433943  1.47396127302730
 6  0.27356322372237 -4.04893976607661  0.57034519561956
 8  0.52472632653265 -3.51206089488949 -0.39207922332233
 8  1.08960064226423 -4.89312445724572  1.29510549904990
 7 -4.96487503850385  2.61770200690069  1.50579726632663
 6 -4.03791787898790  2.38895691169117  2.62049727552755
 6 -3.78908944614461  3.59793987648765  3.25815475987599
 6 -4.56058181388139  4.62648111361136  2.62072795699570
 6 -5.32763212561256  3.92109678617862  1.52716786868687
 6 -2.83457208210821  3.79678676237624  4.33406727722772
 6 -4.70450315031503  5.95235526972697  3.03507894469447
 8 -4.10043253055306  6.60744557475748  3.91007497999800
 7 -6.80980262986299  2.63033096559656 -0.66031869956996
 6 -6.94221641944194  3.97040744624462 -0.35846404950495
 6 -8.01617675787579  4.65297635443544 -1.22609541864186
 6 -8.47906093889389  3.66207533763376 -2.06623117551755
 6 -7.80486429792979  2.42994116821682 -1.70157392719272
 6 -8.30349262796280  6.15442681238124 -1.27892902750275
 6 -9.49493597199720  3.81087202550255 -3.12538508710871
 6 -8.83403238393839  4.06070743384338 -4.50943419011901
 7 -6.26604237153715 -0.07891307150715 -1.19191021142114
 6 -7.22129573627363 -0.00956186178618 -2.22595851845184
 6 -7.38347146374637 -1.33862901560156 -2.78835185978598
 6 -6.50537602130213 -2.14642841614161 -2.14301351125113
 6 -5.90761868536854 -1.39424345384538 -1.07305517021702
 6 -8.50971634633463 -1.65306509510951 -3.81319223862386
 6 -6.08859248634864 -3.54432353835384 -2.08457385128513
 8 -6.60043328392839 -4.52174714481448 -2.69886013171317
 6 -4.90535078857886 -3.54010577727773 -0.96861348214821
 6 -5.18514564216422 -4.62997819941994  0.03933108410841
 8 -5.66245042764276 -4.32380831423142  1.18679579987999
 8 -5.09179914311431 -5.88341222532253 -0.38527269866987
 6 -5.31745509470947 -6.90880447154715  0.46548408320832
 6  2.39076575817582 -5.14400066026603  0.69337731903190
 6  3.43282659275928 -4.07667916721672  1.12540382618262
 6  4.08742784648465 -3.30309012991299  0.24968734373437
 6  3.83363826112611 -3.06577976637664 -1.20641831063106
 6  5.23034724072407 -2.42069633783378  0.69178102900290
 6  6.57094269896990 -2.77204215721572  0.13805413131313
 6  7.65482460916092 -1.73547519331933  0.53805764036404
 6  8.96026463496350 -2.06154213621362 -0.10558727192719
 6  9.58000508060806 -3.52620252275227  0.33284640964096
 6  9.98305374097410 -0.96400702160216  0.40823878727873
 6  11.35427858515851 -0.96438923402340 -0.17965327592759
 6  12.18182580318032  0.25959515001500  0.18302909110911
 6  13.51044043814381  0.40841052795280 -0.60543030023002
 6  14.36521469446945 -0.77544827482748 -0.31494818001800
 6  14.05807574577458  1.75570034223422 -0.23714135653565
 6  15.38963824472447  2.16035797109711 -1.04996210391039
 6  15.91344096379638  3.55031754175418 -0.74987608060806
 6  17.22245664036404  3.91325024052405 -1.43182423022302
 6  16.93401238333833  4.14458002070207 -2.95046736673667
 6  17.71708512771277  5.17659578557856 -0.87388834583458
 1 -2.66137164306431  1.15226208980898  3.71756936813681
 1 -6.58246912981298  5.50323652585258  0.96928669136914
 1 -8.89005420452045  1.17870213171317 -3.07483286418642
 1 -3.44401146634663 -3.10220333703370  1.79011475357536
 1 -1.89918100410041 -1.09430703890389  2.71379354535454
 1 -3.14758408360836 -2.66571315221522  4.35773571947195
 1 -3.47054365446545 -0.84819693739374  4.68501463736374
 1 -4.53179485528553 -2.08840675867587  3.85692891549155
 1 -2.12886005160516 -3.08432147714771 -0.40069780438044
 1 -1.25513621332133 -1.82963159055906  0.38644948624862
 1 -0.78130252035204 -3.06686665896590  2.41020556165617
 1 -1.39002848144815 -4.46382321862186  1.97494653135314
 1 -1.94478313041304  3.38535322202220  3.76133851495150
 1 -2.65563321732173  4.78721836093609  4.73076873977398
 1 -3.19557949044904  3.10000319441944  5.19423640044004
 1 -5.33643750305030  6.52677065956596  2.27790990679068
 1 -10.06664064656466  2.84751190309031 -3.24744589918992
 1 -10.24434191709171  4.54202173667367 -2.95540853345335
 1 -9.42758851975197  4.12247014701470 -5.37125343594359
 1 -8.05396936293629  4.70558249884988 -4.32813249504950
 1 -8.19282955785579  3.09852416631663 -4.57490160486048
 1 -8.08212479407941 -1.08380163786379 -4.64280424942494
 1 -8.74921454935494 -2.62422948324832 -4.16840618451845
 1 -9.39310255935593 -1.28081471607161 -3.54335862096210
 1 -4.02579435543554 -3.90628645164516 -1.38831376147615
 1  2.66928487228723 -6.19434672777278  0.92727111501150
 1  2.15417874447445 -5.21018954535454 -0.31717715281528
 1  3.58147412981298 -4.13117323962396  2.16249461356136
 1  2.75565301720172 -3.43045460036004 -1.47916056615662
 1  3.93549088708871 -2.05407010761076 -1.36781499899990
 1  4.73108561596160 -3.63588544484448 -1.86962842014201
 1  5.12936680568057 -1.33797934253425  0.37353774487449
 1  5.14981734013401 -2.43396771397140  1.83693758005801
 1  7.04151337133713 -3.91177547704770  0.54822414411441
 1  6.88210705020502 -2.75193740974097 -1.00964065026503
 1  7.48606940854085 -0.80225677997800  0.19119787308731
 1  7.74011292149215 -2.07352560106011  1.62216968936894
 1  8.68565446504651 -2.02215025572557 -1.25502372107211
 1  8.83978614401440 -4.29964882478248 -0.16487895809581
 1  10.72272530193019 -3.72627598229823  0.12367478557856
 1  9.26545329292929 -3.79151488008801  1.26970793379338
 1  9.27976903780378 -0.09509109870987  0.22630180458046
 1  10.15189414801480 -1.00092841214121  1.53020395769577
 1  11.89171110221022 -1.90627794949495 -0.28707801560156
 1  11.05548148834884 -0.89161079657966 -1.21993283698370
 1  11.43246326442644  1.05455852765276  0.03997678727873
 1  12.34454521322132  0.23355463876388  1.24945412051205
 1  13.42824356665666  0.45002974577458 -1.79446565136514
 1  14.85082530973097 -0.93232624992499  0.67538263576358
 1  14.10140052655266 -1.71039421832183 -0.48391464556456
 1  15.40805066156616 -0.72710603830383 -0.90957336033603
 1  13.33998324392439  2.61258955815582 -0.36966684398440
 1  14.35296290849085  1.50489690419042  0.82689151645165
 1  16.08365709280928  1.29808527002700 -0.92232004700470
 1  15.11965676117612  2.12097034843484 -2.15871940284028
 1  15.09523098519852  4.13511671937194 -1.06134741474147
 1  16.14201383528352  3.73413937333733  0.34946740554055
 1  18.00248006480648  3.25549905840584 -1.24624901280128
 1  16.38920605740574  5.06092337123712 -3.07552183108311
 1  17.92369475937594  4.50159655285529 -3.31154858845885
 1  16.66344102940294  3.19999491069107 -3.41015156835684
 1  17.80183805780578  5.35947660066007  0.12931209690969
 1  18.75175278607861  5.31469769626963 -1.48256039713971
 1  17.03186575637564  6.00064447454745 -1.41248960106011
 1 -5.02579046364636 -8.02841394079408  0.14722040604060
 1 -6.40506099739974 -6.88610799219922  0.76875671897190
 1 -4.62186440384038 -6.63344322052205  1.48442131053105
 8 -7.73043593889389  6.90309034043404 -0.54297772617262
 1 -9.03782716651665  6.31486890259026 -2.13744221172117

