%nproc=3
%Mem=2GB
# td=(NStates=1) iop(3/107=0140000000,3/108=0140000000) iop(3/107=0140000000,3/108=0140000000) CAM-B3LYP/6-31G(d,p) 

TD

0 1
12 -5.60418614981498  1.21346137383738  0.22776544534453
 6 -5.06788691049105 -2.19875384008401 -0.30758382348235
 6 -3.39687114701470  1.25455799729973  2.75316675487549
 6 -6.21248767106711  4.57197522062206  0.59281164236424
 6 -8.02152307030703  1.24353303570357 -2.34867896179618
 7 -4.41785887038704 -0.23655957905791  1.06759692669267
 6 -4.26108132853285 -1.55928711011101  0.63192691119112
 6 -3.24400580228023 -2.30332153075308  1.49302489108911
 6 -2.82653680908091 -1.30869153885389  2.64160094669467
 6 -3.55664246424642 -0.04594374697470  2.16701736033603
 6 -3.34836694469447 -1.82333902650265  3.99729758915892
 6 -1.99007385068507 -2.60709470267027  0.60921510761076
 6 -0.93714147704770 -3.55401048894890  1.29358323522352
 6  0.22588845624562 -3.87745261736174  0.48815697679768
 8  0.48366222012201 -3.36316600540054 -0.63068308370837
 8  1.03968565076508 -4.74590973577358  1.16704269276928
 7 -4.94048259925993  2.61119135583558  1.52779946654665
 6 -3.97653174037404  2.44938295429543  2.53009823562356
 6 -3.76411694889489  3.70017009950995  3.14678362276228
 6 -4.52832858855886  4.64063252875288  2.49166505070507
 6 -5.28368773117312  3.94021869836984  1.38933408530853
 6 -2.69594821972197  3.92903998769877  4.24841871237124
 6 -4.67886058605861  6.10185021922192  2.93717915471547
 8 -4.04857734503450  6.59602443264326  3.85647962046205
 7 -6.83231488108811  2.59607754025403 -0.76833950165017
 6 -6.95797799559956  3.91368177367737 -0.50612881598160
 6 -7.85257039723972  4.64410546734674 -1.30567337643764
 6 -8.39319235203520  3.65889501960196 -2.12118667106711
 6 -7.70325413691369  2.38250642474247 -1.81576534633463
 6 -8.28926120482048  6.00733210291029 -1.18830996559656
 6 -9.43587006540654  3.85839677797780 -3.22278482708271
 6 -8.87281626232623  3.93621498459846 -4.48830207690769
 7 -6.48745451275127 -0.18944412461246 -1.03559457985799
 6 -7.35907951465146 -0.08278918451845 -2.05358128072807
 6 -7.61378449504950 -1.39241439413941 -2.71420444504450
 6 -6.76871235493549 -2.22676644994499 -2.02217142704270
 6 -6.09981790529053 -1.44096812631263 -1.05911377607761
 6 -8.57635301000100 -1.69995978457846 -3.85391631103110
 6 -6.30391401850185 -3.55410451645165 -1.90749614351435
 8 -6.67779101970197 -4.53605857595760 -2.49322956865687
 6 -5.13803405690569 -3.59222098879888 -0.86067268806881
 6 -5.33123025062506 -4.61158636023602  0.27346449744974
 8 -5.77583176577658 -4.39025495889589  1.39569668996900
 8 -5.01856181938194 -5.79597348144814 -0.24438861026103
 6 -5.34362771197120 -6.91643523462346  0.57865540034003
 6  2.28067474907491 -5.02286854705471  0.44162214351435
 6  3.36774008410841 -4.09248074737474  0.89458074387439
 6  4.06649575327533 -3.25838565946595  0.10167254225423
 6  3.76241113841384 -3.12002519091909 -1.39584725352535
 6  5.30823502950295 -2.52166643484348  0.60817266816682
 6  6.65439104380438 -2.82278723172317 -0.02248192229223
 6  7.66480560726073 -1.88698034383438  0.52365620022002
 6  9.08016662516252 -2.11647762976298 -0.12580929412941
 6  9.66753383348335 -3.50208011051105  0.18522164716472
 6  10.11790722632263 -1.04959558045805  0.51355931933193
 6  11.39956311361136 -0.85919871497150 -0.26182149274927
 6  12.24380200080008  0.26323551405141  0.34560534873487
 6  13.56429582368237  0.50082976987699 -0.46617637483748
 6  14.55404357735774 -0.68460919091909 -0.52119880508051
 6  14.30382032023202  1.81764653685369  0.01298365596560
 6  15.46093537443744  2.18851078637864 -0.77232434013401
 6  15.98651827152715  3.64100661066107 -0.58217931093109
 6  17.20190458515852  3.97838675417542 -1.35624667246725
 6  17.06394537663767  3.99065462816282 -2.87766008600860
 6  17.97676109530953  5.19091721772177 -0.83367432443244
 1 -2.86008151405140  1.08079494309431  3.57280489168917
 1 -6.44166504940494  5.60859706190619  0.71554131683168
 1 -8.80246544564456  1.20016427792779 -3.08281366226623
 1 -3.50948801400140 -3.27587070377038  1.77268301040104
 1 -1.82269335533553 -1.24696230443044  2.73922608860886
 1 -3.15836516171617 -2.81566814771477  4.33637358325833
 1 -2.96536313641364 -1.11431354905490  4.93458959485949
 1 -4.53820549634963 -1.83505142314231  3.91772499509951
 1 -2.29945711131113 -3.20350339533953 -0.36620435503550
 1 -1.51763246294630 -1.61049967736774  0.25536637793779
 1 -0.84417880798080 -3.08441841414141  2.24178871997200
 1 -1.22983246184618 -4.65342217851785  1.63709274597460
 1 -1.61037969006901  3.71933662036204  4.13389577067707
 1 -2.87865551955195  4.89853949304930  4.75011067396740
 1 -3.12574250675068  3.35170836493649  5.12125910271027
 1 -5.51222508180818  6.60894887738774  2.43102521832183
 1 -10.01874585708571  2.83453060496050 -3.04452560716072
 1 -9.91279876277628  4.86879441394139 -2.87210020262026
 1 -9.47022278317832  3.65285318531853 -5.34731104170417
 1 -8.35628959495950  4.82779472007201 -4.63892357415742
 1 -7.95203547844785  3.36307062096210 -4.62230634533453
 1 -8.32092867446745 -1.26755001270127 -4.80550051905191
 1 -8.63098272617262 -2.71116817711771 -4.04074341824182
 1 -9.57302055115512 -1.46056269086909 -3.57221150625063
 1 -4.22075385138514 -3.84559038203820 -1.50841577167717
 1  2.48915685948595 -6.03223051615161  0.75204359225923
 1  2.38670199679968 -5.03489201560156 -0.65380081518152
 1  3.51639762216222 -3.99259938223822  2.00122848694870
 1  2.55199265116512 -3.22740429532953 -1.55063771387139
 1  4.02799013701370 -2.13899860046005 -1.67795601310131
 1  4.27414992239224 -3.67865972227223 -1.96425788308831
 1  5.20119398839884 -1.45986153075308  0.46689708080808
 1  5.37555991439144 -2.68101241844184  1.70231411771177
 1  6.93813303330333 -3.92453675317532  0.19425874757476
 1  6.52479131863186 -2.81798401440144 -1.19042872907291
 1  7.45257605920592 -0.91043759805981  0.48681743504350
 1  7.72140105030503 -2.19679792829283  1.68835630803080
 1  9.19527542714271 -1.88161620232023 -1.32380059875988
 1  8.97105927132713 -4.36827568746875 -0.21634410461046
 1  10.47716074547455 -3.72684603930393 -0.37991557345735
 1  9.79559630723072 -3.60983671227123  1.10286124912491
 1  9.52785384628463  0.15706411681168  0.54193336773677
 1  10.26930588918892 -1.44381270057006  1.46924786208621
 1  12.00935286638664 -1.79748707040704 -0.15944525232523
 1  11.34345028522852 -0.71025266076608 -1.26494733843384
 1  11.75920593869387  1.17463053485349  0.59919270887089
 1  12.59360011871187 -0.09815853255326  1.34641381648165
 1  13.17860860316032  0.64741948474848 -1.48592479727973
 1  14.76842706990699 -0.96159917721772  0.63115821332133
 1  14.15010539703970 -1.69122230113011 -0.87104335843584
 1  15.48585844234423 -0.36333966166617 -0.93402580558056
 1  13.49316856245625  2.62972127132713 -0.30008988628863
 1  14.50918853105311  1.80778719321932  1.15128395569557
 1  16.45870459755976  1.53184864636464 -0.58398621362136
 1  15.14535933143314  2.06042429382938 -1.87281081198120
 1  15.12119358145815  4.35298850655065 -0.75155643564356
 1  15.92937257115711  4.01726768616862  0.53505596439644
 1  17.85303512031203  3.04186769526953 -1.23759814771477
 1  15.94880201700170  4.64446172507251 -3.06368064696470
 1  17.93514590449045  4.54745113831383 -3.35428286188619
 1  16.92026671197119  3.23358827002700 -3.51282183538354
 1  18.16809468346835  4.96385703870387  0.36600576627663
 1  18.77670528132813  5.43447967446745 -1.33837597869787
 1  17.33179574937494  5.97427183728373 -1.12585093719372
 1 -4.74437232183218 -7.67977907730773 -0.12739705570557
 1 -6.45002549384938 -7.16170555195520  0.46944678797880
 1 -4.86810902830283 -6.99553943014301  1.54429729812981
 8 -7.92912580788079  6.82057208860886 -0.31576500490049
 1 -9.31505488928893  6.12328974467447 -1.78581704920492

