%nproc=3
%Mem=2GB
# td=(NStates=1) iop(3/107=0140000000,3/108=0140000000) iop(3/107=0140000000,3/108=0140000000) CAM-B3LYP/6-31G(d,p) 

TD

0 1
12 -5.55391112231223  1.25229525722572  0.17278994779478
 6 -4.99248937073707 -2.13197716241624 -0.38774183928393
 6 -3.24400586048605  1.20435297679768  2.68906034423442
 6 -6.15136155845585  4.59176719981998  0.61865422662266
 6 -7.92063298129813  1.24382306470647 -2.39652374627463
 7 -4.32881996649665 -0.29066498959896  0.97922808980898
 6 -4.23400862126213 -1.60410159155916  0.60865458395840
 6 -3.16103750545054 -2.33427462606261  1.46867245584558
 6 -2.90200435583558 -1.33778444814481  2.60017680428043
 6 -3.50056685668567 -0.06895604820482  2.07356801540154
 6 -3.47807991599160 -1.78123481608161  3.93715157455746
 6 -1.94850969426943 -2.71750574377438  0.59018320442044
 6 -0.95524328722872 -3.69951503940394  1.36070994789479
 6  0.17036290369037 -3.99830470257026  0.50171833293329
 8  0.43135698959896 -3.49916960576058 -0.54820483588359
 8  0.96693837603760 -4.75435057985799  1.20156614511451
 7 -4.81237978897890  2.68362859955996  1.32284897149715
 6 -3.89136322352235  2.41704972097210  2.36468169396940
 6 -3.62404294149415  3.69688977147715  3.07161610601060
 6 -4.46733248894889  4.68362682818282  2.56670255445545
 6 -5.14687404980498  4.01061573807381  1.45416056795680
 6 -2.64452307720772  3.74025110881088  4.31184505500550
 6 -4.66245894589459  5.96270630483048  2.90728616541654
 8 -3.95810829812981  6.57306213641364  3.79972394489449
 7 -6.78255990559056  2.63468140064006 -0.74067673537354
 6 -6.95257745554555  3.99750015551555 -0.35623382648265
 6 -7.99573471367137  4.53166422322232 -1.14573738283828
 6 -8.40988402120212  3.60497962806281 -1.98367291969197
 6 -7.68526233773377  2.36924509860986 -1.75074884468447
 6 -8.41273355205521  5.93938530823082 -1.12646378097810
 6 -9.40620709910991  3.86478741704170 -3.07294984358436
 6 -8.79874885558556  3.90964232733273 -4.47855110181018
 7 -6.29267503480348 -0.17446262646265 -1.07293831423142
 6 -7.20325393209321  0.01663075747575 -2.08851477407741
 6 -7.49964308090809 -1.26719187188719 -2.69096212081208
 6 -6.64420990469047 -2.16206998029803 -2.08435764566457
 6 -5.96548447194719 -1.43930796029603 -1.01794965966597
 6 -8.53658903360336 -1.54746453505351 -3.78048896829683
 6 -6.23048667576758 -3.57531663766377 -1.98613400730073
 8 -6.65304854545455 -4.58238320842084 -2.50750099579958
 6 -4.95715596909691 -3.58290005670567 -0.87830445124512
 6 -5.25569269686969 -4.56753195479548  0.09554670567057
 8 -5.86869105170517 -4.36933286668667  1.19437655795580
 8 -4.89441940514051 -5.77646153025302 -0.28732290369037
 6 -5.19277262646265 -6.95865945704570  0.37198473327333
 6  2.34372105370537 -5.06316257645765  0.52809079037904
 6  3.27767107720772 -4.12794429372937  1.07298858465847
 6  4.06285538923892 -3.27802762366237  0.31028340334033
 6  3.73481837913791 -3.06082927132713 -1.24490215901590
 6  5.04676888288829 -2.32389665786579  0.79893174407441
 6  6.44419002370237 -2.67894284728473  0.21003132903290
 6  7.56716584328433 -1.77872951875188  0.76610044464446
 6  8.93486209470947 -1.95230121212121  0.06648993579358
 6  9.48239531963196 -3.44882478497850  0.12511563656366
 6  9.89883531913191 -0.98732935383538  0.59260722412241
 6  11.31319447674767 -0.94166696179618 -0.18373368396840
 6  12.10264788538854  0.31514070457046  0.19150993919392
 6  13.43270266436644  0.42121180808081 -0.53016277347735
 6  14.44456262926293 -0.66116684668467 -0.36816350155016
 6  14.13206314451445  1.74102887508751 -0.11566920932093
 6  15.39161844274427  2.11196313161316 -0.98909601730173
 6  15.99724934463446  3.60200271027103 -0.79530062306231
 6  17.23320771547155  3.89965888138814 -1.46591763956396
 6  17.14267324942494  4.12016757945795 -2.97999031903190
 6  17.80452387158716  5.24618274427443 -0.83558451545155
 1 -2.66626213211321  1.28457532113211  3.59104671587159
 1 -6.24596547944794  5.69252545474547  0.54486424912491
 1 -8.73349854895489  1.26791105260526 -3.21873725462546
 1 -3.63819088428843 -3.17265038173817  1.77787352945295
 1 -1.88552963896390 -1.11019862806281  2.72112427842784
 1 -3.03716304150415 -2.79519610051005  4.24862480838084
 1 -3.44494109420942 -0.99682179987999  4.61901803770377
 1 -4.56442811861186 -1.91183910191019  3.90063328592859
 1 -2.16664382998300 -3.24846789178918 -0.18075581018102
 1 -1.52069276897690 -1.87213584098410  0.07702854415442
 1 -0.55368975907591 -3.16325629792979  2.22029657075708
 1 -1.58180765936594 -4.62651948824883  1.70409944664466
 1 -1.62055070717072  3.45561024772477  4.21659404050405
 1 -2.59125677967797  4.84016365546555  4.41076673957396
 1 -3.19427936043604  3.21163435753575  5.06299327612761
 1 -5.49451331063106  6.51225920842084  2.32091420722072
 1 -10.24665864836484  2.96871402330233 -2.94866602120212
 1 -9.96634411731173  4.81998953345334 -2.89789278187819
 1 -9.43639940084008  4.16338423842384 -5.23574988558856
 1 -8.05024899089909  4.62746468706871 -4.48845852765277
 1 -8.12905318021802  2.93962827672767 -4.87010112481248
 1 -8.55525210681068 -0.89185244294429 -4.66696666566657
 1 -8.31981160906091 -2.50219728002800 -4.04969431333133
 1 -9.70600384948495 -1.73568020262026 -3.39935422052205
 1 -4.03894567056706 -3.90323614661466 -1.58034296439644
 1  2.44087203100310 -6.07697499059906  0.90666905480548
 1  2.23540686728673 -5.16030455685569 -0.44765020012001
 1  3.63957994039404 -4.15751587388739  2.03656202030203
 1  2.66425387728773 -3.49790134503450 -1.48790144024402
 1  3.67404474247425 -1.74965966656666 -1.14806302380238
 1  4.51057356475648 -3.54786664296430 -1.97622908020802
 1  4.77683155215522 -1.39468501310131  0.64658504960496
 1  5.03024538293829 -2.31879619681968  1.94818870517052
 1  6.78765798579858 -3.74125842534253  0.40792011371137
 1  6.35202404190419 -2.35843805980598 -0.76675636183618
 1  7.25924672627263 -0.79239579387939  0.61603035633563
 1  7.62066097629763 -1.98976722522252  1.74782225462546
 1  8.53911981158116 -1.88778681938194 -0.99170738943894
 1  8.74211637703771 -4.31740059996000 -0.13337580778078
 1  10.29654268366837 -3.59580293499350 -0.57234481638164
 1  9.67397414501450 -3.71561729032903  1.26926788978898
 1  9.44375543644364 -0.02346393599360  0.42632180658066
 1  10.11964092269227 -1.12026034533453  1.66193713101310
 1  11.85824775587559 -1.92362968466847  0.18057875007501
 1  11.16388232843284 -0.83469510501050 -1.33368421212121
 1  11.62863288138814  1.22736580838084  0.08577136673667
 1  12.42894365306531  0.39354063736374  1.28172734783478
 1  13.15419616191619  0.71906664946495 -1.56996320112011
 1  14.89226945414542 -0.69156217351735  0.61401649914992
 1  13.93835422192219 -1.67775095399540 -0.43737999209921
 1  15.25192504900490 -0.73717704540454 -0.98260066306631
 1  13.39422866846685  2.59259755895590 -0.16020589788979
 1  14.68112572477248  1.79878629312931  0.95916474377438
 1  16.28272699979998  1.47246270777078 -0.53826164116412
 1  15.11137593309331  1.90521877327733 -2.10716424732473
 1  15.19793125522552  4.28870207790779 -0.81213249324932
 1  15.93680331423142  3.51874783418342  0.25869832863286
 1  17.96372618941894  3.13819732823282 -1.26493088098810
 1  16.38164530133013  4.80633791269127 -3.05635991489149
 1  17.88327071697170  4.34046043924392 -3.42751018461846
 1  16.64106879217922  3.14037894909491 -3.67270782398240
 1  17.91586946094609  5.30746139913991  0.25889505520552
 1  18.80831844264426  5.49245547204720 -1.27484962606261
 1  17.13666623642364  6.13370778087809 -1.10978933103310
 1 -4.79547743234323 -7.70657175657566 -0.40998531453145
 1 -6.47769826112611 -7.05580496189619  0.36829667296730
 1 -4.78938115551555 -6.98970884708471  1.52530539893989
 8 -7.94344724002400  6.83065309670967 -0.33544697309731
 1 -9.25377876167617  6.17283469916992 -1.73940240774077

