%nproc=3
%Mem=2GB
# td=(NStates=1) iop(3/107=0140000000,3/108=0140000000) iop(3/107=0140000000,3/108=0140000000) CAM-B3LYP/6-31G(d,p) 

TD

0 1
12 -5.54506023722372  1.19941996969697  0.14572724152415
 6 -5.01449157095710 -2.17197116181618 -0.31566463156316
 6 -3.23423488338834  1.18003054455446  2.74715615381538
 6 -6.12316873917392  4.52796081918192  0.71984434563456
 6 -7.96974789278928  1.14351303370337 -2.39253334723472
 7 -4.36290337483748 -0.28427435053505  1.06610677767777
 6 -4.27129234963496 -1.57815899729973  0.69121283978398
 6 -3.25900730243024 -2.35591679027903  1.51389697829783
 6 -2.89569372477248 -1.32458312801280  2.61679846644664
 6 -3.50823762376238 -0.05052420502050  2.16192685128513
 6 -3.50064217221722 -1.74688138073807  3.86216407580758
 6 -1.92993783708371 -2.74375836903690  0.69378356445645
 6 -0.95363312621262 -3.61233632153215  1.46418029492949
 6  0.20282615001500 -3.99567443954395  0.49713787488749
 8  0.51708556245625 -3.57457714651465 -0.51993200860086
 8  1.03639532173217 -4.74389953475348  1.23711970047005
 7 -4.86259481048105  2.60452068876888  1.44765145174517
 6 -3.85249933713371  2.39532754875488  2.34776000180018
 6 -3.49887042424242  3.65311539403940  3.13234217861786
 6 -4.46080183588359  4.64815328082808  2.65319120332033
 6 -5.22726208860886  3.96434111061106  1.57464261616162
 6 -2.56219484438444  3.78472555625563  4.22608647914791
 6 -4.56112881288129  6.05225525972597  2.90313575037504
 8 -3.89253174047405  6.53860869106911  3.79717368986899
 7 -6.75480713031303  2.64038197069707 -0.79483215091509
 6 -6.78484068186819  3.93258366386639 -0.42119032213221
 6 -7.76386152635264  4.58457951475147 -1.26617942704270
 6 -8.35336836963696  3.64321345144514 -2.04313886628663
 6 -7.66451026252625  2.40929910401040 -1.70522429222922
 6 -8.21580385908591  5.99590095979598 -1.22523365796580
 6 -9.31987846624662  3.79710064836484 -3.17559010761076
 6 -8.64628360906091  4.01447281038104 -4.49130237693769
 7 -6.49486525382538 -0.10956613681368 -0.98862988338834
 6 -7.34402800950095 -0.02893379897990 -2.04780070267027
 6 -7.66959007560756 -1.31332648534853 -2.68982200680068
 6 -6.76428191189119 -2.26288006130613 -2.00980018991899
 6 -6.01038896239624 -1.47263129262926 -1.01199906460646
 6 -8.58225360006001 -1.56350613921392 -3.79194011341134
 6 -6.25042866996700 -3.54570367636764 -1.95064045794579
 8 -6.59449268986899 -4.51605657575758 -2.58500874657466
 6 -5.08423867736774 -3.59724149084909 -0.89042566336634
 6 -5.36479360696070 -4.73028823042304  0.05547269826983
 8 -5.87883206580658 -4.56855278867887  1.21326844714471
 8 -5.04259422262226 -5.91548543264326 -0.32039621102110
 6 -5.39768311751175 -6.95366895799580  0.48995653045305
 6  2.33511019261926 -5.14357061726173  0.58048602990299
 6  3.31395470557056 -4.20186168546855  1.03209449524952
 6  3.91485058875888 -3.28599842074207  0.19839221422142
 6  3.62208710601060 -3.11331451985198 -1.23069073787379
 6  5.02508671467147 -2.29451371957196  0.66462831373137
 6  6.43598920362036 -2.58878383138314 -0.05144481858186
 6  7.53348247494749 -1.68605025082508  0.63081691629163
 6  8.88869747824783 -1.92508849084909  0.01286457325733
 6  9.46767384748475 -3.36372627512751  0.28798192319232
 6  9.93208864446445 -0.85586620752075  0.46955491889189
 6  11.21046420372037 -0.76747954305431 -0.34693000360036
 6  12.15233285388539  0.44322351285129  0.04406519471947
 6  13.43063245734573  0.51054074097410 -0.65163492069207
 6  14.37748592159216 -0.70937166716672 -0.28084476967697
 6  14.15985592379238  1.80834560676068 -0.26002364476448
 6  15.45736501740174  2.21556349164917 -0.95925303300330
 6  16.05902552225222  3.61678418841884 -0.57055814881488
 6  17.35531992669267  3.94096301180118 -1.33398444624462
 6  17.09513849594960  4.05350091279128 -2.90078239823982
 6  17.89123254245424  5.23573169916992 -0.72974393139314
 1 -2.70227573347335  1.15006186978698  3.52473008420842
 1 -6.18634951785179  5.65375157735774  0.81991175387539
 1 -8.66158135723572  1.34538880038004 -3.17873325422542
 1 -3.71782884808481 -3.35176829352935  2.00391613371337
 1 -1.76570765676568 -1.36235384358436  2.95672783878388
 1 -2.93125245044504 -2.65335191609161  4.35566551245125
 1 -3.43936053615362 -1.04931704940494  4.67349348524852
 1 -4.52202387818782 -1.93300121812181  3.68056127872787
 1 -2.49579674527453 -3.23594663966397 -0.31228896349635
 1 -1.42187288698870 -1.87674630203020  0.26403724502450
 1 -0.60829521962196 -2.95790576287629  2.26573111421142
 1 -1.33751322992299 -4.60541737803780  1.56392542924292
 1 -1.53156180828083  3.75829051575157  3.86050843194319
 1 -2.71536919091909  4.79497913701370  4.53875953885388
 1 -2.64037396989699  3.04886808090809  4.91396837363736
 1 -5.43612747204720  6.53781176367637  2.23120523632363
 1 -9.99246322882288  2.86686383828383 -3.25102625722572
 1 -9.82645012791279  4.69799733423342 -2.92467546014601
 1 -9.51517727862786  3.86648454845485 -5.42386869746975
 1 -8.18359232523252  4.95818775937594 -4.41623130493049
 1 -7.87744801970197  3.15306962086209 -4.78132224692469
 1 -8.09463604520452 -1.09306256395640 -4.70264023302330
 1 -8.89235886378638 -2.65168222852285 -3.93756310021002
 1 -9.63423667276728 -0.92833946854686 -3.58252253735374
 1 -4.28337011301130 -3.98876469946995 -1.24548947904791
 1  2.30618856265627 -6.31480877397740  0.78897728562856
 1  2.04585791239124 -5.15924445084508 -0.43710914601460
 1  3.63100908330833 -4.51117123942394  2.06248461256126
 1  2.62576002790279 -3.38715026992699 -1.55500815091509
 1  3.97528486648665 -2.06463116371637 -1.56404462196220
 1  4.19293180058006 -3.74660651695170 -1.82511396869687
 1  4.76500036903690 -1.33095864046405  0.42231262236224
 1  5.16884924332433 -2.36310062726273  1.66161004730473
 1  6.68987820782078 -3.75651995149515  0.04018334003400
 1  6.63478231773177 -2.30312252825283 -0.95986567276728
 1  7.25531633323332 -0.66952350665067  0.67190594389439
 1  7.50318922912291 -1.86583483198320  1.74941241364136
 1  8.82591849144915 -1.80519856055606 -1.02763098179818
 1  8.78571073647365 -4.06110497039704 -0.19721219141914
 1  10.41225425482548 -3.54428778347835 -0.15294287618762
 1  9.44089083668367 -3.37708343694369  1.26493745674567
 1  9.48248930983098  0.03201161156116  0.43653282768277
 1  10.18619757835783 -1.14772309160916  1.53248418571857
 1  11.70150208130813 -1.71367868956896 -0.19066837463746
 1  11.06671261146115 -0.59080071557156 -1.49378022172217
 1  11.45386540464046  1.36279935173517 -0.23662087248725
 1  12.31249200790079  0.34625590889089  1.25337451255125
 1  13.22003274557456  0.39286402920292 -1.72610881568157
 1  14.61487171437144 -0.58728174547455  0.92920801830183
 1  13.79793017951795 -1.77082026092609 -0.50173642774277
 1  15.39032888938894 -0.61223455115512 -0.88987139013901
 1  13.42100134573457  2.71031933113311 -0.27169704700470
 1  14.27389500170017  1.79933634813481  0.90345917321732
 1  16.25698442554255  1.58255371687169 -0.58713652865286
 1  15.44772956845684  2.31784003540354 -2.16839036993699
 1  15.18255971807181  4.32939614731473 -0.69317059705971
 1  16.21791142504250  3.52458841824182  0.40644310311031
 1  18.04191400820082  3.09004251275128 -1.23147753565356
 1  16.29938707550755  4.72504978387839 -3.04775905480548
 1  17.90454284418442  4.54979137233723 -3.34356178977898
 1  16.93052773807381  3.04975988718872 -3.36564711791179
 1  17.79019689368937  5.06058671167117  0.37065623132313
 1  18.93063067386739  5.54148037453745 -0.89085122622262
 1  17.22029459925993  5.90193460356036 -1.14024237633763
 1 -5.13393127772777 -7.95189628902890 -0.01737605360536
 1 -6.46062655395540 -7.10682006340634  0.67115695899590
 1 -4.92996521392139 -7.04374425062506  1.39969283768377
 8 -7.72919581488149  6.83146317771777 -0.46244967336734
 1 -9.03547693149315  6.29954737043704 -1.93217168466847

