%nproc=3
%Mem=2GB
# td=(NStates=1) iop(3/107=0140000000,3/108=0140000000) iop(3/107=0140000000,3/108=0140000000) CAM-B3LYP/6-31G(d,p) 

TD

0 1
12 -5.57689342054205  1.19887991569157  0.20788345714571
 6 -4.98639876167617 -2.15225919061906 -0.36898996409641
 6 -3.33229468936894  1.23134567606761  2.69386082428243
 6 -6.11295771807181  4.59261728482848  0.47881024222422
 6 -8.09199011701170  1.13553223562356 -2.35198929282928
 7 -4.37476456095609 -0.31133705680568  1.12716288328833
 6 -4.18033325372537 -1.59714089548955  0.62181590009001
 6 -3.17245864756476 -2.30260145874587  1.49418500710071
 6 -2.83431758715872 -1.37258792849285  2.54199098569857
 6 -3.47270407040704 -0.06793594619462  2.13206386498650
 6 -3.44375648364836 -1.78567526012601  3.96936479587959
 6 -1.98481332463246 -2.71937593079308  0.68032221832183
 6 -1.01346910981098 -3.52670775867587  1.54339821672167
 6  0.20519638703870 -3.92140701280128  0.54875303640364
 8  0.33355720962096 -3.62141182998300 -0.56979699509951
 8  1.00220190239024 -4.80220536533653  1.24449043754375
 7 -4.74589314031403  2.70281051775178  1.41549823642364
 6 -3.88519260646065  2.45542355835584  2.37793301910191
 6 -3.72917345454545  3.70000008250825  3.12263120752075
 6 -4.48614437013701  4.68154662016202  2.51665754995500
 6 -5.13820318271827  3.99177385388539  1.36698185008501
 6 -2.71029965486549  3.74272135583558  4.25558942944294
 6 -4.57073977397740  6.14122415661566  2.90032546934693
 8 -3.92962544984498  6.53091792199220  3.74213818631863
 7 -7.01075272487249  2.58888682118212 -0.65201786948695
 6 -7.00431262906291  3.97909831533153 -0.42242044514451
 6 -7.90310545074507  4.70137119391939 -1.22355516461646
 6 -8.34154718751875  3.78599772987299 -2.08838339073907
 6 -7.76617042854285  2.37280545464546 -1.70164393419342
 6 -8.29836211491149  6.05727709740974 -1.11124225882588
 6 -9.33008948734873  3.93650458875888 -3.13084563316332
 6 -8.75163414411441  3.98951031413141 -4.54720796749675
 7 -6.40558632593259 -0.07527270747075 -1.14693571397140
 6 -7.33618722542254  0.00070916531653 -2.09388531113111
 6 -7.69044216081608 -1.37826297899790 -2.66360938553855
 6 -6.71265674937494 -2.16568034133413 -2.00511972187219
 6 -6.02997092059206 -1.38769279877988 -1.06386425112511
 6 -8.78108348304831 -1.64238402700270 -3.66793771317132
 6 -6.27885151225122 -3.50189929592959 -1.90151554545455
 8 -6.72074531513151 -4.58273324342434 -2.34782502820282
 6 -4.98799905340534 -3.55202696939694 -0.86725334613461
 6 -5.24509163676368 -4.72879808140814  0.03930108110811
 8 -5.73983816641664 -4.46147208060806  1.10546766706671
 8 -4.86736669986999 -5.90947483158316 -0.33198737013701
 6 -5.28908225742574 -6.96365995709571  0.66338387318732
 6  2.36772345394539 -5.17931419161916  0.57809579087909
 6  3.39246255635564 -4.18001950125012  0.90147143294329
 6  4.05036414011401 -3.37170699159916  0.09874224922492
 6  3.83025792309231 -3.28433162156216 -1.33284095289529
 6  5.26728093409341 -2.52351661986199  0.64328617951795
 6  6.47670327502750 -2.82865781878188 -0.09435911001100
 6  7.60943006970697 -1.84365601140114  0.48145197979798
 6  9.04492310081008 -1.97832381438144 -0.07202391559156
 6  9.67248432853285 -3.38079798229823  0.24206733173317
 6  9.83726916251625 -0.84997561846185  0.39216718011801
 6  11.27090024732473 -0.85357815291529 -0.36586189678968
 6  12.14791241184118  0.33860305080508  0.15041582978298
 6  13.49914930903090  0.43683337023702 -0.52203196039604
 6  14.43918209120912 -0.60194092409241 -0.27741442664266
 6  14.02250218841884  1.79140391259126 -0.13855149754975
 6  15.31472075297530  2.30172210751075 -0.90529763746375
 6  15.94436405610561  3.60221273127313 -0.55430652365237
 6  17.28189258395840  3.94884379987999 -1.29688073587359
 6  17.19267824992500  4.00120568326833 -2.72898521852185
 6  17.74867828702870  5.28927705370537 -0.70857181418142
 1 -2.89478498439844  1.47797466106611  3.69746735793579
 1 -6.29671055395540  5.59937613981398  0.62989275197520
 1 -8.88105330443044  0.97861212271227 -3.07747312821282
 1 -3.42408947414741 -3.34004712141214  1.95039078117812
 1 -1.70811189718972 -1.14960256845685  2.70773293929393
 1 -2.81687101230123 -2.72802938383838  4.35239518541854
 1 -3.33029963006301 -0.90966308400840  4.67826396229623
 1 -4.48895057085709 -2.30678859685969  3.80495371797180
 1 -2.35412257785779 -3.36068911391139 -0.21265900050005
 1 -1.35592629232923 -1.82843147054705  0.28995983728373
 1 -0.65484987508751 -2.96549652195220  2.38099264036404
 1 -1.15467494609461 -4.57637447374737  1.86302533923392
 1 -1.73013166526653  3.67512219891989  3.85802818391839
 1 -2.84033168716872  4.73603324242424  4.68278394129413
 1 -2.78082801530153  2.93099629372937  5.03399037583758
 1 -5.20750460976098  6.81374935743574  2.08884099989999
 1 -10.18676265876588  3.28917606950695 -3.02060321492149
 1 -9.76716419931993  5.03005053955395 -2.86424941754175
 1 -9.47094285518552  4.26683458345835 -5.22416872747275
 1 -8.09418338433843  4.80430237083708 -4.62565224702470
 1 -8.10054032893289  3.11810612451245 -4.70607472217222
 1 -8.83953053465346 -0.97592084978498 -4.42530249924993
 1 -8.59992962086209 -2.60975803610361 -4.11567091099110
 1 -9.71708495759576 -1.71060769536954 -3.03574785988599
 1 -4.09692146814681 -3.67029285228523 -1.64990992109211
 1  2.67299524332433 -6.18680597369737  1.09231761966197
 1  2.03840716731673 -5.18111663806381 -0.54021945704570
 1  3.60849683208321 -3.97605772807281  1.95833419751975
 1  2.83285073697370 -3.56133768866887 -1.54861751185118
 1  4.02639997799780 -2.27960266086609 -1.74106232373237
 1  4.58923143054305 -3.93777563386339 -1.91223268056806
 1  4.91850571957196 -1.37687323192319  0.48149854095410
 1  5.27206956535654 -2.92873719091909  1.56652053835383
 1  6.75734495449545 -3.80200449995000 -0.02903358165817
 1  6.40046888638864 -2.67888010401040 -1.22716240244024
 1  7.41452225382538 -0.74335088938894  0.39562831613161
 1  7.93864277447745 -2.04044229272927  1.52054952735274
 1  8.97455335493549 -1.73951199189919 -1.19104732343234
 1  9.03826599199920 -4.09145800570057 -0.18222069226923
 1  10.63117614701470 -3.45028838353835 -0.25313289518952
 1  9.75051179877988 -3.62920864946495  1.25296625962596
 1  9.35535659655966  0.12263067346735  0.08328750315031
 1  9.98913787238724 -0.86660497979798  1.63166410371037
 1  11.95867779887989 -1.86975429712971 -0.26953626142614
 1  11.10685662586259 -0.65261689718972 -1.43503434713471
 1  11.46472649074907  1.29623269506951 -0.08656586698670
 1  12.33901466016602  0.18857014031403  1.25700487558756
 1  13.34214495679568  0.22333707650765 -1.57471367616762
 1  14.70528075527553 -0.71533455075508  0.84139923742374
 1  14.07107749424943 -1.64078725762576 -0.58048430253025
 1  15.43492334883488 -0.27097042474247 -0.88445084808481
 1  13.26778602420242  2.61031933113311 -0.20661053835384
 1  14.47088470067007  1.80180659515952  0.91420024732473
 1  16.11991071817182  1.46590205170517 -0.97772558755876
 1  15.15814060956096  2.35371362276228 -1.99836336723672
 1  15.31160262236224  4.34692790049005 -0.71945322532253
 1  15.99174880878088  3.65579153855386  0.56877933673367
 1  18.06844666146615  3.19956346484648 -1.07500188808881
 1  16.29670680748075  4.62795007390739 -2.92047632653265
 1  18.10385277517752  4.42596899009901 -3.21374880848085
 1  16.92807749304930  2.99883479467947 -3.21826237943794
 1  17.72446032003200  5.15055570857086  0.45782494819482
 1  18.75292290309031  5.52238846534653 -1.17575971707171
 1  17.02730530033003  6.04554896499650 -1.10790914301430
 1 -5.12477036163616 -7.88241934133413  0.10409609360936
 1 -6.34012450375038 -6.81001038243824  1.04662450575058
 1 -4.62075429282928 -7.13649352555256  1.46628949734973
 8 -7.75937883318332  6.91397142854285 -0.39473290169017
 1 -9.27023040684068  6.33141055675568 -1.83802226972697

