%nproc=3
%Mem=2GB
# td=(NStates=1) iop(3/107=0140000000,3/108=0140000000) iop(3/107=0140000000,3/108=0140000000) CAM-B3LYP/6-31G(d,p) 

TD

0 1
12 -5.54316004720472  1.28524855255526  0.14155682448245
 6 -5.06875699749975 -2.11453541824182 -0.41427449254926
 6 -3.27606906680668  1.15327786928693  2.62043348154815
 6 -6.15330175247525  4.50424844794479  0.54180654185419
 6 -8.01551246924693  1.22743142554255 -2.30860495439544
 7 -4.34221130563056 -0.30024594769477  1.04025419241924
 6 -4.23662888328833 -1.65462664406441  0.68980269876988
 6 -3.20058145984598 -2.35424662326233  1.51960754935494
 6 -2.85342949834983 -1.30291096079608  2.64518130473047
 6 -3.52315911591159 -0.03385253785379  2.04325498409841
 6 -3.43704581258126 -1.83889058165817  3.91012887228723
 6 -1.91177602090209 -2.70081407460746  0.61924611071107
 6 -1.00550831373137 -3.64330941884188  1.40915479237924
 6  0.39473534093409 -3.82382725482548  0.72005016611661
 8  0.68001185508551 -3.30347003580358 -0.35843585898590
 8  1.01855353755376 -4.89387453225322  1.31477746624662
 7 -4.91972052305231  2.57672790949095  1.44058074467447
 6 -3.94365845304530  2.42011002700270  2.44626985278528
 6 -3.78377891509151  3.54374445694569  3.16404534893489
 6 -4.57783353905391  4.53915238073807  2.59820570477048
 6 -5.20862022442244  3.88744342084208  1.43805895779578
 6 -2.82201082598260  3.71673875757576  4.38227209770977
 6 -4.63898659865987  5.93955398959896  2.97533297009701
 8 -4.25427791509151  6.48831366156616  3.96850082258226
 7 -6.87586923652365  2.65220315281528 -0.71617428512851
 6 -6.89632182998300  4.05845625112511 -0.42956115921592
 6 -7.97669280948095  4.70785184198420 -1.21098390749075
 6 -8.51146417921792  3.63964309440944 -2.08155270767077
 6 -7.79535334683468  2.44719289338934 -1.70657442724272
 6 -8.29941221992199  6.14604597429743 -1.21325245984598
 6 -9.49021549995000  3.82754369266927 -3.18502105070507
 6 -8.82898187888789  4.08679004210421 -4.53200644734473
 7 -6.36712247954795 -0.13509869006901 -1.21016203660366
 6 -7.36829043574357  0.00087918231823 -2.07873379597960
 6 -7.55727884448445 -1.25036018871887 -2.71493451805181
 6 -6.60578606230623 -2.16063983728373 -2.14216342624262
 6 -5.95340326382638 -1.39970399989999 -1.15084294899490
 6 -8.42913828852885 -1.66601639023902 -3.77324824422442
 6 -6.18796242334233 -3.56204531053105 -2.02368776267627
 8 -6.49569280988099 -4.54532950305031 -2.72207245294529
 6 -5.06491674517452 -3.53635540224022 -0.90797741854185
 6 -5.31948907650765 -4.56351155275528  0.16486363736374
 8 -5.70830501310131 -4.43620955435544  1.28525564586459
 8 -5.10770073327333 -5.80077396149615 -0.39104327572757
 6 -5.42105545474548 -6.94679827092709  0.46492402720272
 6  2.35626230783078 -5.16355261546155  0.62769075037504
 6  3.51930524062406 -4.21903340264026  1.08673995979598
 6  4.06580568426843 -3.35833565446545  0.27212958795880
 6  3.78197309460946 -3.23078626702670 -1.23843151195120
 6  5.17354156015602 -2.46146041424142  0.75983783468347
 6  6.54184978967897 -2.73581853485349  0.15293561946195
 6  7.55182430913091 -1.77633927972797  0.69840367496750
 6  8.94224283278328 -1.98382436443644  0.11400468726873
 6  9.58073515361536 -3.31774167666767  0.38591171617162
 6  9.85259069466947 -0.81078169906991  0.53395135853585
 6  11.25770892819282 -0.83488628372837 -0.25029033963396
 6  12.14329194979498  0.27749694019402  0.14204499269927
 6  13.53298269236924  0.38731841874187 -0.60573033023302
 6  14.47620579357936 -0.76986771677168 -0.38572525772577
 6  14.15868580678068  1.72913768596860 -0.25207284968497
 6  15.57350663156316  2.11025296059606 -1.04560166786679
 6  16.08293791349135  3.57538004800480 -0.76504759775978
 6  17.31469586428643  3.93131204670467 -1.49888093589359
 6  17.06951593369337  4.12450801350135 -3.00013233323332
 6  17.93940735993599  5.22193031903190 -0.89325028202820
 1 -2.61199670557056  1.26406326992699  3.58640625182518
 1 -6.12096297919792  5.59347554975498  0.83270303300330
 1 -8.65587078617862  1.43007726922692 -3.25769115001500
 1 -3.66367343254325 -3.14288740544054  2.16907264936494
 1 -1.73346443244324 -1.47623523172317  2.72443460946095
 1 -3.00833015821582 -2.65245182608261  4.25985593149315
 1 -3.35026162626263 -1.21609372707271  4.80731686758676
 1 -4.53481515731573 -2.03331124912491  3.67971119371937
 1 -2.25983314891489 -3.02047509250925 -0.19361709630963
 1 -1.57381808150815 -1.72713134053405  0.48846968826883
 1 -0.99521391149115 -3.25113508580858  2.47530207130713
 1 -1.52367184578458 -4.56810364666467  1.49213825052505
 1 -1.66322497459746  3.63632831953195  4.28855123622362
 1 -2.91273892789279  4.70284992409241  4.56788245114512
 1 -3.11363129562956  2.82333552765277  5.01356833363336
 1 -5.15066892619262  6.55308329082908  2.18921103690369
 1 -10.08371235373537  2.96443359525953 -3.30938209280928
 1 -10.28388587148715  4.51714924942494 -2.87353034563456
 1 -9.72495825672567  4.40893879387939 -5.18973528412841
 1 -8.22579654565457  4.90368230883088 -4.60678035983598
 1 -8.39793006790679  3.28644295819582 -4.92501661636164
 1 -8.12251883348335 -1.07599085678568 -4.66931690069007
 1 -8.22787241514151 -2.68489554985499 -4.25801514541454
 1 -9.55177842694269 -1.37701433603360 -3.37465175027503
 1 -4.08364014001400 -3.83927975097510 -1.40940587068707
 1  2.54781272507251 -6.18026531963196  1.22141052895290
 1  2.00408373497350 -5.02543106950695 -0.51330676577658
 1  3.78752473487349 -4.31595171747175  2.06799516361636
 1  2.69455690759076 -3.51757331223122 -1.48532118221822
 1  3.89681701970197 -2.10029473007301 -1.44326254375438
 1  4.50497300470047 -3.86174803110311 -1.74345580288029
 1  4.88190205920592 -1.45622116671667  0.21041143224322
 1  5.29058141654165 -2.29470378757876  1.85111899819982
 1  6.87334655465547 -3.77272157165717  0.30463978567857
 1  6.35875471497150 -2.69600181618162 -1.00110979717972
 1  7.12137293889389 -0.73442999729973  0.36061481478148
 1  7.74128303850385 -1.69035728422842  1.78091556395640
 1  8.78415431503150 -1.86510455115512 -1.01901011971197
 1  8.84027619301930 -4.24880374027403 -0.02149461966197
 1  10.54304733413341 -3.25257861256126 -0.07150473237324
 1  9.59719646724673 -3.38812454105411  1.50434139713971
 1  9.11481254215422  0.06367477787779  0.16262543694369
 1  10.02442140074007 -0.76055437473747  1.62753369066907
 1  11.88866079717972 -1.88455577727773 -0.08706801460146
 1  10.84494043424342 -0.64413604910491 -1.39802064576458
 1  11.61946196429643  1.28262133393339 -0.02438964936494
 1  12.21204196289629  0.29515079837984  1.24849402450245
 1  13.23218396069607  0.33831857465747 -1.77513371817182
 1  14.66282650985099 -0.76921993929393  0.49566466396640
 1  13.79496988348835 -1.86482966186619 -0.69993624772477
 1  15.28947880438044 -0.90993432113211 -1.05529793279328
 1  13.15593483908391  2.48204650385038 -0.44696457375738
 1  14.35985359755976  1.93970038453845  0.81135996329633
 1  16.23234196129613  1.31985744724472 -0.79730754575458
 1  15.03779857535754  2.17332558395840 -2.00625415631563
 1  15.28757021912191  4.42453566126613 -0.92165344534453
 1  16.22017165106510  3.67762372177218  0.34651711051105
 1  18.05789560636064  3.06976048454845 -1.28996338423842
 1  16.24653178997900  4.88647592649265 -3.01609588848885
 1  18.10967335723572  4.31442783598360 -3.46978441204120
 1  16.69039372467246  3.15152006320632 -3.43932448564857
 1  18.20987886188619  5.20982163516352  0.20395956165617
 1  18.70545815661566  5.60527675417542 -1.48555069616962
 1  17.17233980378038  6.01898630873087 -1.14198255035504
 1 -5.39521740634063 -7.75375647504751 -0.38637295329533
 1 -6.50800129142914 -6.84779416081608  0.83215305860586
 1 -4.91120333773377 -7.06111598779878  1.43498636703670
 8 -7.81973486878688  6.90448047944794 -0.38386181458146
 1 -9.15530891469147  6.36524394009401 -1.83933240074007

