%nproc=3
%Mem=2GB
# td=(NStates=1) iop(3/107=0140000000,3/108=0140000000) iop(3/107=0140000000,3/108=0140000000) CAM-B3LYP/6-31G(d,p) 

TD

0 1
12 -5.79157488868887  1.21438146584658  0.25515818461846
 6 -5.19039916171617 -2.10522448714872 -0.38457152225223
 6 -3.36826828672867  1.21762430393039  2.66788822702270
 6 -6.24574099639964  4.58099612271227  0.66833919511951
 6 -8.07100801880188  1.16372505490549 -2.39347344124412
 7 -4.42872995749575 -0.25682160526053  1.01541170817082
 6 -4.26940216061606 -1.60541172257226  0.53245696419642
 6 -3.14838624032403 -2.26467766636664  1.42503809240924
 6 -2.90462461786179 -1.24618528822882  2.58217500410041
 6 -3.50722752275228  0.03974482188219  1.98847950655066
 6 -3.40315242324232 -1.62942963556356  3.82989084848485
 6 -1.93450829412941 -2.56412040524052  0.48326251235124
 6 -0.96900466336634 -3.49525461336134  1.23419729662966
 6  0.29499536693669 -3.82358723082308  0.54976313741374
 8  0.61452530643064 -3.38122781158116 -0.51379139453945
 8  1.10859254145415 -4.53046819161916  1.36344233273327
 7 -4.93902245324532  2.64012424912491  1.51004769136914
 6 -4.01557564476448  2.35530354635464  2.44070929672967
 6 -3.73893443064306  3.67084716721672  3.14118306270627
 6 -4.57252300800080  4.61481994749475  2.56439232343234
 6 -5.26065542794279  3.92545722222222  1.54481963386339
 6 -2.80429905480548  3.87407449114911  4.33165703620362
 6 -4.57096979697970  6.07881791599160  2.81657709450945
 8 -3.83223571087109  6.60137496769677  3.60681465396540
 7 -6.99694134373437  2.56555448794879 -0.63991665936594
 6 -7.08819101690169  3.88858926442644 -0.23335153825383
 6 -8.07780292049205  4.56559761656166 -1.05017782688269
 6 -8.54436746954695  3.66936606670667 -1.97464201660166
 6 -7.82696650815082  2.38049622372237 -1.67481125092509
 6 -8.42957523622362  6.01703307300730 -1.05715685028503
 6 -9.49944642304230  3.83824476277628 -3.03316586518652
 6 -9.07337631833183  3.95927729082908 -4.53583683038304
 7 -6.51428719601960 -0.15758093829383 -1.11123214361436
 6 -7.46189979667967 -0.03289419501950 -2.09360528312831
 6 -7.60751386798680 -1.39867502020202 -2.80413343794379
 6 -6.81518700240024 -2.20992476577658 -2.06405561546155
 6 -6.10908883238324 -1.37758178767877 -1.07782564726473
 6 -8.44861023572357 -1.67662745134513 -3.88613953335334
 6 -6.27040066716672 -3.56032513851385 -2.09406480038004
 8 -6.60235347594760 -4.51412638273827 -2.68686893259326
 6 -5.13844409790979 -3.59673143984398 -0.92134875567557
 6 -5.39104623222322 -4.65971117271727  0.10104725572557
 8 -5.76489067166717 -4.44152008540854  1.19012613291329
 8 -5.06622658585859 -5.81934581868187 -0.46591076247625
 6 -5.28276162536254 -6.93949754085409  0.49697723252325
 6  2.33677035863586 -4.99731599179918  0.85314329562956
 6  3.45071838193819 -3.95719721902190  1.13152443824382
 6  4.12110121382138 -3.29559938083808  0.23123549854986
 6  3.80739563686369 -3.22201538993899 -1.31072874167417
 6  5.28961316731673 -2.41570583878388  0.61418326922692
 6  6.64031963666367 -2.79571452445245  0.04613493939394
 6  7.78389751645165 -1.94768641444144  0.60853468806881
 6  9.18260686918692 -2.13909989198920 -0.03375008820882
 6  9.73714079417942 -3.52581248374837  0.40040316531653
 6  10.14927036263626 -0.99778039893989  0.48560652405241
 6  11.53161631893189 -0.93694648974897 -0.23619893049305
 6  12.33717133773377  0.22802199269927  0.27130791899190
 6  13.64509390349035  0.44349403630363 -0.56328608580858
 6  14.48502667566757 -0.76962769276928 -0.32776946214621
 6  14.26891682988299  1.77308208040804 -0.11533917631763
 6  15.47455673657366  2.16542847814782 -0.98237534523452
 6  16.04377399709971  3.61685419541954 -0.74734582758276
 6  17.39563395809581  3.90082899839984 -1.36490753855386
 6  17.16445542764276  3.99525508820882 -2.97415973597360
 6  18.07361078027803  5.14352247824783 -0.78250920792079
 1 -2.64306981288129  1.20720758435844  3.58050566176618
 1 -6.32793367626763  5.56308251045105  0.77263702640264
 1 -8.68893409250925  1.29081334283428 -3.34491987288729
 1 -3.40136720192019 -3.31905502220222  1.85305104720472
 1 -1.95775686168617 -1.12342995119512  2.76966913291329
 1 -2.83715304050405 -2.61164774567457  4.26328627452745
 1 -3.14465106520652 -0.96169828752875  4.50403653955396
 1 -4.48768044384438 -2.02272019001900  3.85722894549455
 1 -2.35678284388439 -2.98866191119112 -0.52966070067007
 1 -1.68759945964596 -1.43785241264126  0.22543338463846
 1 -0.55610000010001 -3.17915788808881  2.40214475557556
 1 -1.66251573017302 -4.36561339763976  1.36837587428743
 1 -1.90704935703570  3.46011069776978  3.93700608170817
 1 -2.81568922292229  4.88066770587059  4.60748641154115
 1 -2.91121105360536  3.30338353245325  5.10999797659766
 1 -5.26301016031603  6.73442142464246  2.18340045584558
 1 -10.30864484698470  2.98721587348735 -2.97503865846585
 1 -10.19580706360636  4.73568110261026 -2.74305729832983
 1 -10.01150691159116  3.70459835983598 -5.28417472807281
 1 -8.72139610561056  4.91198313891389 -4.82293197499750
 1 -8.33028330323032  3.15543985788579 -4.76747086178618
 1 -8.19956653825383 -0.96176943464346 -4.70989095809581
 1 -8.36439606750675 -2.71590865116512 -4.30585992989299
 1 -9.53962721182118 -1.49528616321632 -3.86146043114311
 1 -4.17419919591959 -3.88725454845485 -1.44886981708171
 1  2.67291523532353 -5.77037433053305  1.40934932283228
 1  2.06416974357436 -5.18238676507651 -0.05283071817182
 1  3.92247823022302 -3.84244436673667  2.09735809990999
 1  3.02376982888289 -3.82499405430543 -1.64571722182218
 1  3.69745708370837 -2.22827752835284 -1.63505172267227
 1  4.66699920732073 -3.74759661596160 -1.73675513281328
 1  5.14834870387039 -1.32565811041104  0.06053644474447
 1  5.35107746614661 -2.22859717691769  1.65902978927893
 1  6.81802102210221 -3.86967126662666  0.38764808650865
 1  6.46488532803280 -2.92516473247325 -0.95725541174117
 1  7.59472027362736 -0.82783933823382  0.47561631493149
 1  7.91801071127113 -2.00456870537054  1.77969544194419
 1  9.10721662126213 -1.67053509420942 -1.09665788448845
 1  9.07464963036304 -4.46478533843384  0.02454998479848
 1  10.79211224062406 -3.91676503120312  0.25834825292529
 1  9.74858160576058 -3.33691942054205  1.52188315131513
 1  9.82361342224222  0.06106451685169  0.61738091249125
 1  10.41833079167917 -1.08459677897790  1.52514345164516
 1  12.06931886298630 -1.93427074877488  0.09276996919692
 1  11.42744868506851 -0.87909954545455 -1.37665850955095
 1  11.72882290039004  0.99400247204720 -0.09755696609661
 1  12.48906966566657  0.15167645094509  1.31954112921292
 1  13.12997373967397  0.52722746554655 -1.52864906970697
 1  14.62188241544155 -0.95865888318832  0.81678677617762
 1  14.02065245174517 -1.62642582148215 -0.82516877097710
 1  15.55674553105310 -0.74738806650665 -0.81128353135314
 1  13.61213045864586  2.62669096829683 -0.17828770607061
 1  14.42493010521052  1.76902331683168  0.94422324962496
 1  16.28723745084508  1.44287974947495 -0.94087190219022
 1  15.17454224972497  2.17170542194219 -2.01622515341534
 1  15.29318078017802  4.42748595629563 -1.28312959295930
 1  16.18143777767776  3.72771873127313  0.45952841164116
 1  17.95168498529853  3.00576408490849 -1.07925231313131
 1  16.60204734153415  5.02807008590859 -3.23826810571057
 1  18.15335772567257  4.13477987118712 -3.41391882548255
 1  16.64949963526352  3.23367827902790 -3.57127768096810
 1  18.23100097409741  4.99042969596960  0.32575174087409
 1  19.11050866166617  5.17067329382938 -1.09904204530453
 1  17.57779034883488  6.23411782188219 -0.90350870297030
 1 -4.72297018161816 -7.86990809020902 -0.02478679467947
 1 -6.44023451475148 -6.95021440284028  0.71922176547655
 1 -4.88207042444244 -6.64100397659766  1.52008487688769
 8 -7.99335223052305  6.70413044444444 -0.18461188958896
 1 -9.10974435823582  6.13769118481848 -1.86604507200720

