%nproc=3
%Mem=2GB
# td=(NStates=1) iop(3/107=0140000000,3/108=0140000000) iop(3/107=0140000000,3/108=0140000000) CAM-B3LYP/6-31G(d,p) 

TD

0 1
12 -5.65747147834784  1.24363439113911  0.27028969776978
 6 -5.08817893969397 -2.12211617631763 -0.24080714581458
 6 -3.52092355225523  1.17574011551155  2.87734917311731
 6 -6.15051147344735  4.68762678577858  0.64193655485549
 6 -7.98219913791379  1.20472915531553 -2.45501959585959
 7 -4.40348743324332 -0.18877480058006  1.13596376337634
 6 -4.33945916631663 -1.57916909830983  0.73223694219422
 6 -3.23798520022002 -2.33228442704270  1.54256984558456
 6 -2.86559071447145 -1.33381405110511  2.65836262286229
 6 -3.53083988398840 -0.09103825642564  2.21645230383038
 6 -3.43584569256926 -1.72591928452845  4.16129398879888
 6 -2.09719456275628 -2.76967096029603  0.68483266936694
 6 -0.91825958885889 -3.55857094499450  1.40667454435444
 6  0.31707757515752 -3.90454532663266  0.56797495859586
 8  0.40020387428743 -3.43349303810381 -0.57523753915392
 8  1.13622530473047 -4.69762490729073  1.22046803530353
 7 -5.01165971697170  2.62972320902090  1.55174186078608
 6 -4.12437652485248  2.39134715071507  2.51914714051405
 6 -3.73536407360736  3.66762684518452  3.14899384378438
 6 -4.53471922762276  4.68646711221122  2.58567445164516
 6 -5.24759412181218  3.99894457095710  1.59091424332433
 6 -2.68173679857986  3.75166224992499  4.23435730623062
 6 -4.74184688468847  6.00383041724172  2.88008344514451
 8 -4.12247473477348  6.64286911711171  3.78640261276128
 7 -6.84090574017402  2.67361529402940 -0.68475114281428
 6 -6.94074627242724  3.96980738623862 -0.37114531763176
 6 -7.93145828602860  4.64057511431143 -1.21147395649565
 6 -8.57168020082008  3.59622875297530 -2.03330788318832
 6 -7.72477628912891  2.43284145824582 -1.82942671247125
 6 -8.42041432013201  5.99014038373837 -1.23518465306531
 6 -9.46927340574057  3.74928586688669 -3.19751229982998
 6 -8.77570655135514  3.85658702180218 -4.47929117581758
 7 -6.42858862616262 -0.14929010921092 -0.98782980338034
 6 -7.37554116081608  0.01109020342034 -2.10695661826183
 6 -7.54636775337534 -1.32098725142514 -2.79580260486049
 6 -6.67585306900690 -2.22273604690469 -2.09853906380638
 6 -6.01579950345034 -1.43308733823382 -1.07033489818982
 6 -8.57661303600360 -1.90659044764476 -3.69085000440044
 6 -6.07781140824082 -3.51104021002100 -2.06059145304530
 8 -6.36150939153915 -4.48751372147215 -2.73849409510951
 6 -5.07975822932293 -3.56938870557056 -0.82618923972397
 6 -5.30588771637164 -4.64447964956496  0.21764891589159
 8 -5.68875305790579 -4.45634156755676  1.31755887618762
 8 -5.00114007720772 -5.89472335643564 -0.28825299669967
 6 -5.41216456565657 -7.03316690779078  0.52462999779978
 6  2.37394407600760 -4.99493575377538  0.40919890119012
 6  3.40745405550555 -3.96316781608161  0.83847513331333
 6  3.96917602130213 -3.18758857975798  0.06898927392739
 6  3.66925182248225 -3.01259444784478 -1.39156682548255
 6  5.18009221522152 -2.25264953315332  0.52189404030403
 6  6.46551215591559 -2.48924387738774 -0.06458613271327
 6  7.59176830353035 -1.74688633443344  0.43372720732073
 6  8.99703831233123 -1.99926590859086 -0.14501121432143
 6  9.62938001810181 -3.39687959045905  0.07777090209021
 6  9.96078151375138 -0.95246586748675  0.43701166456646
 6  11.36768992629263 -0.89635243034303 -0.32112742334233
 6  12.29895751635163  0.27854704520452  0.21977276547655
 6  13.62183157725772  0.38049773667367 -0.41904166136614
 6  14.58401657465747 -0.77163789378938 -0.18075476067607
 6  14.23018295649565  1.75825059725973 -0.00457810021002
 6  15.49536881778178  2.04051598689869 -0.95270237793779
 6  16.11460107980798  3.49191170117012 -0.71824291729173
 6  17.41493588828883  3.90687960346035 -1.34431547934793
 6  17.41926090819082  3.90691625432543 -2.90318263826383
 6  17.89356277547755  5.18167629362936 -0.73579453645365
 1 -2.64143964986499  1.09979684328433  3.55815342654265
 1 -6.55714659755976  5.74065026722672  0.58957872057206
 1 -8.75365056415642  1.17638189968997 -3.24389977087709
 1 -3.65324238943894 -3.23980709740974  1.92052779487949
 1 -1.72847393339334 -1.19106671487149  2.68292045804581
 1 -2.90425975117512 -2.58418499939994  4.83039298519852
 1 -3.50706730683068 -0.90455257295730  4.98748488438844
 1 -4.37386906270627 -2.20908882688269  3.98076129872987
 1 -2.34042120772077 -3.22184522952295 -0.32313004760476
 1 -1.46729742944294 -1.68269689708971  0.26045688698870
 1 -0.47843223332333 -2.92855282758276  2.36748128922892
 1 -1.19925940454045 -4.60369720602060  1.90533957065707
 1 -1.66915556765677  4.08052273897390  3.68044042514251
 1 -2.98379603360336  4.57767740684068  4.73384904780478
 1 -2.53954388688869  2.82464565866587  4.81350832763276
 1 -5.44596845614561  6.49921790429043  2.34619673547355
 1 -10.11311529402940  2.84047119901990 -3.08763991859186
 1 -10.12238972187219  4.60274780928093 -3.02794578717872
 1 -9.49947570847085  4.08195609560956 -5.22592890349035
 1 -8.01972593859386  4.70846278687869 -4.55338502030203
 1 -8.21839211411141  3.07774208810881 -4.97085119981998
 1 -8.54393097469747 -1.14638789648965 -4.72254222322232
 1 -8.61236086398640 -2.95233229352935 -3.85141448534854
 1 -9.54174742384238 -1.73288992359236 -3.33817810291029
 1 -4.13253502950295 -3.87310313331333 -1.35136006610661
 1  2.75688363216322 -6.07596488958896  0.59553794169417
 1  2.12436576317632 -5.23996252265227 -0.60967640274027
 1  3.69560554295430 -4.11279140144014  1.84969333343334
 1  2.54170162206221 -3.23537509240924 -1.69194184428443
 1  4.04769210721072 -2.10065476607661 -1.86202441994199
 1  4.24878738613861 -3.76485834213421 -1.95995745304530
 1  4.95631950095009 -1.09177472207221  0.22705309640964
 1  5.30780313871387 -2.39644396159616  1.50721460776078
 1  6.60584980498050 -3.62583688318832  0.06639596129613
 1  6.49442828232823 -2.28783099909991 -1.16302598879888
 1  7.43098389999000 -0.71499805410541  0.38245699899990
 1  7.83127203740374 -2.15757400590059  1.50821829422942
 1  8.82280818041804 -1.75016305700570 -1.16018423712371
 1  8.88042020742074 -4.16824568446845 -0.24138660886089
 1  10.46883991339134 -3.62382573727373 -0.75577315921592
 1  9.87097384498450 -3.50720644924493  1.14109507250725
 1  9.40662172307231  0.09435784618462  0.26537571197120
 1  10.06959591819182 -1.05414373367337  1.47157809510951
 1  12.08946087718772 -1.79279660136014  0.05148584078408
 1  11.15878181838184 -0.82700433593359 -1.38068891259126
 1  11.66138615671567  1.11179425122512 -0.02823003340334
 1  12.18302906160616  0.03765504880488  1.40362953805381
 1  13.52596333863386  0.50350509330933 -1.46607281208121
 1  14.57226745394540 -0.98932194949495  0.91748684618462
 1  14.10683106960696 -1.73313649254925 -0.61066732083208
 1  15.48575843234323 -0.68108143584358 -0.66602900590059
 1  13.70485973157316  2.71114941414141  0.07462758545855
 1  14.66578419061906  1.51014742924292  0.85644447174718
 1  16.27130585768577  1.13013847534753 -0.79575739073907
 1  15.32666746224622  2.06500475187519 -1.94747827872787
 1  15.21558302040204  4.03948715641564 -1.03880516051605
 1  16.33092272617262  3.44754071347135  0.54474693349335
 1  18.34612442924292  3.25832934143414 -1.05066945484548
 1  16.75373251005101  4.77116439533953 -3.37931221012101
 1  18.59068145804580  3.90426681988199 -3.27549498309831
 1  16.96588127342734  2.92840775197520 -3.20553110631063
 1  18.18031590559056  4.82645329832983  0.29395856155616
 1  18.93519112991299  5.57357358385839 -1.04031617271727
 1  17.22066463626363  6.21380579067907 -0.88761711381138
 1 -5.17201508610861 -7.70254135353535 -0.37560187618762
 1 -6.51305179647965 -6.98200758215822  0.99783962726273
 1 -4.67505972337234 -7.11740161636164  1.41331419981998
 8 -7.99980287558756  6.89749978137814 -0.54078750715071
 1 -9.13558694249425  6.02719013471347 -2.05459392689269

