%nproc=3
%Mem=2GB
# td=(NStates=1) iop(3/107=0140000000,3/108=0140000000) iop(3/107=0140000000,3/108=0140000000) CAM-B3LYP/6-31G(d,p) 

TD

0 1
12 -5.63399913111311  1.27527755545555  0.25330799959996
 6 -5.02427254905491 -2.19331329602960 -0.35139820492049
 6 -3.41560302020202  1.17382992449245  2.76656809500950
 6 -6.16596301860186  4.61152917601760  0.66380874207421
 6 -8.00412133013301  1.09953863626363 -2.38172226612661
 7 -4.26712379687969 -0.24293021612161  0.97416758375838
 6 -4.25761098149815 -1.63629481088109  0.66460017851785
 6 -3.12990439213921 -2.37704890349035  1.34661024962496
 6 -2.86951110651065 -1.40636130583058  2.63931071767177
 6 -3.59171597159716 -0.04182333493349  2.11025168376838
 6 -3.45036714471447 -1.76392308490849  3.99889774917492
 6 -1.85236007930793 -2.68760275347535  0.56175036113611
 6 -0.86380414331433 -3.50921600950095  1.41349522642264
 6  0.27143301070107 -3.88628350045005  0.63359152025203
 8  0.51685553945395 -3.43165285408541 -0.49966998239824
 8  1.05938762096210 -4.75642078687869  1.21560754925493
 7 -4.91420997199720  2.65135537223722  1.45553223982398
 6 -4.02176626382638  2.40261827782778  2.43402862866287
 6 -3.68403894109411  3.64087416991699  3.13841278567857
 6 -4.54986074177418  4.56124458995900  2.62904878907891
 6 -5.22724208660866  3.95423009950995  1.43496864876488
 6 -2.74217284218422  3.76216330003000  4.29378324882488
 6 -4.49133183318332  6.06662669686969  2.93794923172317
 8 -3.99209169646965  6.49005383558356  3.89096306880688
 7 -6.81800344994499  2.58103603610361 -0.67323999169917
 6 -6.99643184098410  4.01994239973997 -0.35289349244925
 6 -7.92617775797580  4.60613166996700 -1.23045585468547
 6 -8.41875490829083  3.61108023812381 -2.06446099849985
 6 -7.77338114961496  2.38786696079608 -1.70244401420142
 6 -8.37548982768277  5.97809917961796 -1.19017015161516
 6 -9.54804128252825  3.82301323962396 -3.11110365896590
 6 -9.03650263096310  4.06071743484348 -4.45731897859786
 7 -6.28265403270327 -0.13809899009901 -1.07818883928393
 6 -7.33243685038504 -0.07847875347535 -2.10461638423842
 6 -7.60219333593359 -1.33142829552955 -2.67304032863286
 6 -6.60721620532053 -2.19944371767177 -2.12737194709471
 6 -5.95743366686669 -1.43375740524052 -1.11153901860186
 6 -8.60912628732873 -1.63408319691969 -3.73629454885489
 6 -6.22409603670367 -3.61155026102610 -1.97239263316332
 8 -6.63336657725773 -4.57559252935294 -2.55749599529953
 6 -5.01580183368337 -3.63418518521852 -1.02008862966297
 6 -5.35393252085208 -4.68371357295730  0.08377552855285
 8 -5.80326450905090 -4.46778271167117  1.23333045334533
 8 -5.06852681588159 -5.89465334943494 -0.36098026942694
 6 -5.42578592779278 -6.99894348544854  0.41314884968497
 6  2.40528721032103 -5.07543380358036  0.61219920122012
 6  3.40391370147015 -4.11533303260326  0.90679196499650
 6  3.97138624232423 -3.21282110301030  0.09111148614861
 6  3.69801469876988 -3.25190837923792 -1.43513118191819
 6  5.03147735373537 -2.35544981318132  0.64440629152915
 6  6.43291889658966 -2.58019297229723  0.10735106100610
 6  7.48546767346735 -1.54730637643764  0.70577441204120
 6  8.84996360486049 -1.72662864486449 -0.02729944314431
 6  9.47593467356736 -3.12417231973197  0.13352647764776
 6  9.84212964856486 -0.66774739563956  0.54167213061306
 6  11.23117627492749 -0.62398519361936 -0.23172848344834
 6  12.17054467506751  0.45613480398040  0.32534332253225
 6  13.58241763586359  0.45552523942394 -0.44866462366237
 6  14.50347852085209 -0.75340607060706 -0.16162284748475
 6  14.30140007820782  1.79523429562956 -0.10972861526153
 6  15.47652693359336  2.05315725102510 -1.03830093779378
 6  16.16523614331433  3.40898340834083 -0.69646073907391
 6  17.51113550825082  3.75772468796880 -1.45509655745575
 6  17.32443142524253  3.72568813151315 -2.91867418741874
 6  18.05612903210321  5.05705383138314 -0.95676663366337
 1 -2.88847435333533  1.24317118071807  3.64332194339434
 1 -6.20125100800080  5.73217942014201  0.94790455315531
 1 -8.63558875797580  1.28273253475348 -3.25526090699070
 1 -3.57278434363436 -3.32930604730473  1.91188693079308
 1 -1.84600568656866 -1.17628523672367  2.69268143414341
 1 -3.07980730593059 -2.56416299719972  4.49175912181218
 1 -3.52879948004800 -0.91850396809681  4.70395653155316
 1 -4.51007268306831 -2.27254517251725  3.66595981858186
 1 -2.32579974557456 -3.19140218521852 -0.32958069266927
 1 -1.35197589728973 -1.76277490489049  0.35114595589559
 1 -0.42642703280328 -3.09907988028803  2.36576111721172
 1 -1.37961744034403 -4.47828466476648  1.76593563026303
 1 -1.66194484658466  3.49107379407941  4.21788416951695
 1 -2.50002765676568  4.90118975807581  4.60629629252925
 1 -3.19837977047705  3.12261545564556  5.24300127692769
 1 -4.97214107340734  6.76812479497950  2.05023713951395
 1 -9.80278426092609  2.69172632453245 -3.12913406800680
 1 -10.31659914281428  4.77507504200420 -2.88464145674568
 1 -9.82863862476248  3.82404030403040 -5.34675098569857
 1 -8.48458242424242  4.90356229682968 -4.60155983778378
 1 -8.37231750665067  3.24450876477648 -4.68066218091809
 1 -8.25928250985099 -1.23024628232823 -4.72951292029203
 1 -8.54619424732473 -2.71918897919792 -3.87883722762276
 1 -9.64964821392139 -1.31102773737374 -3.59642392749275
 1 -4.21187296329633 -3.92825864886489 -1.57321225132513
 1  2.53339128292829 -6.03642093519352  1.01318970687069
 1  2.44666799339934 -5.18189671607161 -0.50403583868387
 1  3.44122010441044 -3.87351747404740  1.96500486458646
 1  2.73331078297830 -3.62818437333733 -1.58898154825483
 1  3.63601093909391 -2.17365206580658 -1.98298651615162
 1  4.25518802620262 -3.92676453275328 -2.04795625292529
 1  4.75534940394039 -1.33619916451645  0.29076946804680
 1  5.01796415481548 -2.27749206640664  1.81351523782378
 1  6.69607882788279 -3.69353365286529  0.05844516621662
 1  6.53787262676268 -2.32694491049105 -0.98528821502150
 1  7.13548435003500 -0.50620717501750  0.73955270857086
 1  7.68187709790979 -2.06810505900590  1.69695716811681
 1  8.69067496709671 -1.23677171787179 -0.92797101580158
 1  8.64210637603760 -4.08426728662866 -0.11619408960896
 1  10.30681371077108 -3.21827518221822 -0.82218980088009
 1  9.86095284288429 -3.23720944954495  1.10580154315432
 1  9.46172723362336  0.27031544194420  0.67447662206221
 1  10.05168412701270 -0.69683800310031  1.74263520082008
 1  11.81991392249225 -1.61873919561956 -0.35265457325733
 1  11.44457039723972 -0.58659029452945 -1.32308315201520
 1  11.63577359545955  1.46210928272827  0.27260004960496
 1  12.01793255195520  0.17760904420442  1.46265544064406
 1  13.54610535283528  0.58415315811581 -1.45545174997500
 1  14.96342656985699 -0.77227024432443  0.81263636113611
 1  13.72092247874787 -1.65614879377938 -0.30236649074907
 1  15.21529138563856 -0.67832115981598 -1.11976437943794
 1  13.48848809440944  2.61109940914091 -0.12706258355836
 1  14.68202581478148  1.82077849234923  1.00782961026103
 1  16.26806553365336  1.19161462296230 -0.66017383238324
 1  15.32962775827583  1.99599785118512 -2.12369590049005
 1  15.36439790189019  4.13463667136714 -0.76537781778178
 1  16.46166580048005  3.61679763916392  0.40709316811681
 1  18.24488430523052  2.98070157865787 -1.20990537843784
 1  16.67662479927993  4.60084736363636 -3.31506578547855
 1  18.35133752365237  4.14050044324432 -3.38821625522552
 1  16.85234992029203  2.78139305050505 -3.29610016321632
 1  18.00487836183618  5.22255290829083  0.15249441514151
 1  19.13719132993299  5.02604883138314 -1.26585872697270
 1  17.73186575637564  6.05007941804180 -1.28192654475448
 1 -5.25692357695770 -7.98787988738874 -0.10305462146215
 1 -6.45768625992599 -7.02141152255226  0.78377822112211
 1 -4.89577179457946 -6.96421629782978  1.41882475087509
 8 -7.86516941224122  6.77824785618562 -0.46260968936894
 1 -9.19889327312731  6.00103751945195 -1.70746921442144

