%nproc=3
%Mem=2GB
# td=(NStates=1) iop(3/107=0140000000,3/108=0140000000) iop(3/107=0140000000,3/108=0140000000) CAM-B3LYP/6-31G(d,p) 

TD

0 1
12 -5.63133886508651  1.26181620932093  0.22693536233623
 6 -5.01055117691769 -2.01321528622862 -0.39094215931593
 6 -3.38002946284628  1.23062560406041  2.82761419961996
 6 -6.33435985828583  4.53349137223722  0.72022438363836
 6 -8.02687360536054  1.13952263466347 -2.39368346224622
 7 -4.37703478797880 -0.31760768386839  1.09703987098710
 6 -4.22408762916292 -1.60564174557456  0.67050076857686
 6 -3.25702710441044 -2.27715891449145  1.52639822842284
 6 -2.88538269366937 -1.27735840554055  2.63265005160516
 6 -3.54931173117312 -0.00114926752675  2.16865752435244
 6 -3.58422053005301 -1.63002969556956  4.05976383578358
 6 -1.96514135743574 -2.68037203040304  0.66849103520352
 6 -0.94809257215722 -3.47646273417342  1.47712158905891
 6  0.35242110951095 -3.79455432753275  0.66447460856086
 8  0.48949280318032 -3.51316100490049 -0.48632864826483
 8  1.13521520372037 -4.80162530733073  1.26047203570357
 7 -4.92577112811281  2.65517575427543  1.44717140374037
 6 -4.04107819501950  2.38238625462546  2.45928115391539
 6 -3.71405194239424  3.61019110161016  3.23208215261526
 6 -4.56146190189019  4.60697916341634  2.56369225342534
 6 -5.29385874827483  3.93440811731173  1.48285343724372
 6 -2.85896452135214  3.79332641634163  4.37459132963296
 6 -4.76780948094810  6.00479051325133  3.05362079887989
 8 -4.11757424472447  6.47875270547055  3.91456542904290
 7 -6.83554520412041  2.64157208970897 -0.74242691039104
 6 -7.07033923172317  3.92877328282828 -0.34330253335334
 6 -7.98172331253125  4.54030508730873 -1.17139994909491
 6 -8.40995402820282  3.61364049414941 -2.13599815221522
 6 -7.66673048454845  2.41674984908491 -1.84649841964196
 6 -8.18584086278628  6.01425279497950 -1.26766790139014
 6 -9.40639711811181  3.80099103740374 -3.30636318491849
 6 -8.84406338703871  4.11092245534553 -4.74481772847285
 7 -6.31137690499050 -0.08324350455045 -1.19606062646265
 6 -7.33664727142714 -0.05619652525253 -2.06801272387239
 6 -7.54518763536354 -1.37882303500350 -2.56520954555456
 6 -6.78243372707271 -2.14010778407841 -1.95156436633663
 6 -5.92822074557456 -1.39177320682068 -1.09012687738774
 6 -8.64148952365237 -1.71896168476848 -3.57024794419442
 6 -6.21354498159816 -3.55414452045205 -1.96511190509051
 8 -6.50228346894689 -4.43680865096510 -2.66912715841584
 6 -5.04615486898690 -3.47589935663566 -0.86415303610361
 6 -5.25853298089809 -4.57883308490849  0.13372052305231
 8 -5.67596177877788 -4.37198313171317  1.27634475477548
 8 -5.04668463166317 -5.79314319841984 -0.42251642304230
 6 -5.26171952115211 -7.03128671977198  0.28564609940994
 6  2.43003968556856 -5.10676693689369  0.65163314461446
 6  3.48363167326733 -4.12800429972997  0.99080036583658
 6  4.13984308800880 -3.29337915881588  0.18711108610861
 6  3.86832172947295 -3.18303149154915 -1.29804747354735
 6  5.20302450845085 -2.39443371157116  0.66215806670667
 6  6.57264286898690 -2.81368632163216  0.08082840874087
 6  7.58192731943194 -1.86280792659266  0.53457729232923
 6  8.95599420792079 -2.03278926092609 -0.08132484568457
 6  9.59384646474647 -3.30557045954595  0.13723684868487
 6  9.95950138573857 -0.94316493739374  0.36012397579758
 6  11.35097825512551 -0.90906370147015 -0.27837314791479
 6  12.20531815241524  0.26350554105411  0.25636642484248
 6  13.51526092019202  0.45877556445645 -0.55120487768777
 6  14.46649482248225 -0.74541527152715 -0.40763744894489
 6  14.21252119031903  1.75784055625563 -0.17557519991999
 6  15.30887016791679  2.12122405770577 -1.18043515121512
 6  15.96790641034103  3.49267177717772 -0.59990108310831
 6  17.30153454815482  3.89544846034603 -1.35025607340734
 6  17.14552353445345  4.01237680038004 -2.89152147214721
 6  17.85143856305631  5.24901302730273 -0.71514247124712
 1 -2.66457196309631  1.24116097969797  3.70336794799480
 1 -6.59872075497550  5.59570577277728  0.81364112681268
 1 -8.80031523062306  0.87432169366937 -3.18979436033603
 1 -3.43729079427943 -3.34719783648365  2.00682642474247
 1 -1.78398948494849 -0.94729233743374  2.85658782478248
 1 -3.06072539773977 -2.46676325722572  4.49007895379538
 1 -3.54528112821282 -0.88616073377338  4.64309044494450
 1 -4.69584125992599 -2.05558347634764  3.68197141974197
 1 -2.15612277787779 -3.38788183318332 -0.16308404300430
 1 -1.34867556725673 -1.82936156355636  0.36622746404640
 1 -0.58962335243524 -2.68960893319332  2.26920146124612
 1 -1.44243372197220 -4.44371120742074  1.75797483418342
 1 -1.86108476057606  3.65864055075508  4.04370675177518
 1 -2.89111676567657  4.79112875197520  5.01560722362236
 1 -3.07094702720272  3.02710590469047  5.08670564736474
 1 -5.24751861116112  6.77510549304930  2.49606172197220
 1 -9.91559554205421  2.77806495839584 -3.37879903450345
 1 -10.35270275317532  4.63721125562556 -3.04228722132213
 1 -9.65576133703370  4.05540344034403 -5.43744005460546
 1 -8.28506247224722  4.95497743834383 -4.61603128492849
 1 -8.20490076497650  3.22227654155416 -4.86762087678768
 1 -8.75704228582858 -0.95723898159816 -4.51054102310231
 1 -8.48009763766377 -2.75691275157516 -3.92738208210821
 1 -9.66155940504050 -1.80730736533653 -3.03259754485449
 1 -4.29891166716672 -3.88721454445445 -1.36882181228123
 1  2.86225416921692 -6.12777007010701  0.94082247014701
 1  2.09487281388139 -5.23313183958396 -0.41019645474547
 1  3.44734071647165 -4.11668179047905  2.20462882698270
 1  2.82300975287529 -3.27537909280928 -1.52690534063406
 1  4.06359369736974 -2.17708240884088 -1.75551376887689
 1  4.55409791719172 -3.87348920522052 -1.99886134343434
 1  5.00025389438944 -1.39044458905891  0.42739313041304
 1  5.42751510991099 -2.38957327452745  1.78781266756676
 1  6.75216443644364 -3.83687798729873  0.41573089478948
 1  6.58767760726073 -2.81077329332933 -1.19729941614161
 1  7.25522632423242 -0.91689824412441  0.34652340564056
 1  7.78823773397340 -2.17667591609161  1.74350182258226
 1  8.79738563816382 -1.81713975467547 -1.17639585828583
 1  8.85950811621162 -4.12926178607861 -0.08389085928593
 1  10.35678870827083 -3.60635399009901 -0.60262784468447
 1  9.94798154575458 -3.67119284788479  1.09178014101410
 1  9.54283534443444 -0.04036562616262  0.17047622202220
 1  10.00784974357436 -0.97625594489449  1.50368130543054
 1  11.72584451555156 -1.65950327202720 -0.00737004480448
 1  11.36714265446545 -0.87056869236924 -1.32194303800380
 1  11.88839885798580  1.21820489228923  0.00650343994399
 1  12.35247600630063  0.22842412571257  1.19833900900090
 1  13.25444618691869  0.67430217301730 -1.67357356215622
 1  14.88393862106211 -0.65337835513551  0.52858795629563
 1  14.02721310781078 -1.62913609250925 -0.60144639873987
 1  15.17719757625762 -0.75475880358036 -1.26460886388639
 1  13.37762700830083  2.59278757795780 -0.04583446074607
 1  14.71710932313231  1.66494290879088  0.92709153645365
 1  16.35810453755375  1.44720018151815 -1.22056987198720
 1  14.80403519901990  2.18054630603060 -2.26872040294029
 1  15.13696515861586  4.26897010471047 -0.69417069706971
 1  16.13396303020302  3.30303626302630  0.43635609440944
 1  17.93839365616562  3.15145865436544 -1.14331871977198
 1  16.44423155995599  4.89406668556856 -3.22792707160716
 1  18.21601399129913  4.18791518471847 -3.20065749934994
 1  16.84500918621862  2.97143205440544 -3.25034558775878
 1  18.06345421942194  5.06705735873587  0.41503066876688
 1  18.74376198699870  5.27828405490549 -1.29201134223422
 1  17.20629319911991  6.03305771587159 -1.01026937903790
 1 -5.11617950255025 -7.95158625802580 -0.27675199119912
 1 -6.32163265456546 -6.99082846424642  0.71046088938894
 1 -4.56686890429043 -6.95158503470347  1.10385325372537
 8 -7.77530042534253  6.90102013341334 -0.54829825822582
 1 -8.83932731653165  6.11617903360336 -2.26659512701270

