%nproc=3
%Mem=2GB
# td=(NStates=1) iop(3/107=0140000000,3/108=0140000000) iop(3/107=0140000000,3/108=0140000000) CAM-B3LYP/6-31G(d,p) 

TD

0 1
12 -5.57856358755876  1.28296832453245  0.11290395919592
 6 -5.04281440324032 -2.22093605830583 -0.31768483358336
 6 -3.30881234113411  1.17985052655266  2.70584202240224
 6 -6.18426484878488  4.51525954905491  0.66955931713171
 6 -7.91845276327633  1.25076375877588 -2.40412450635063
 7 -4.34885196969697 -0.30438636173617  1.05617578457846
 6 -4.25131035143514 -1.56291747314731  0.63225694419442
 6 -3.25926732843284 -2.34257545614561  1.50793638223822
 6 -3.04836899229923 -1.35575624532453  2.60613740034003
 6 -3.58806560656066 -0.09654880748075  2.08610926952695
 6 -3.56894900290029 -1.76234292689269  4.01502936233623
 6 -1.95756059935994 -2.69937393059306  0.71355554165417
 6 -0.99944770767077 -3.62750783868387  1.42723660056006
 6  0.31158702610261 -3.98713358545855  0.67369553065307
 8  0.62893674757476 -3.35565525432543 -0.41231124652465
 8  1.03154483668367 -4.88769391419142  1.21897788628863
 7 -4.88729728072807  2.62012224892489  1.54281096769677
 6 -3.93916800400040  2.44325234123412  2.52386761256126
 6 -3.57339787698770  3.70556063856386  3.19308825322532
 6 -4.47020277597760  4.66538500400040  2.51078696289629
 6 -5.19784914731473  3.97081175767577  1.49915506740674
 6 -2.59556818171817  3.79670675437544  4.24445831633163
 6 -4.39243194319432  6.16827686188619  2.77528296509651
 8 -3.81430391769177  6.59817464766477  3.74516848934893
 7 -6.69466111571157  2.62852078457846 -0.80789345704570
 6 -6.86011820962096  3.93632403790379 -0.33656185928593
 6 -7.85175031523152  4.56879793659366 -1.17767057615762
 6 -8.40411344414441  3.66592572267227 -2.05537008940894
 6 -7.66353016451645  2.39579775387539 -1.80237400720072
 6 -8.19847212591259  6.02206357605761 -1.17094822942294
 6 -9.35905238363836  3.84882582088209 -3.04358690729073
 6 -8.72740172087209  3.89793115621562 -4.47869111581158
 7 -6.21569733703370 -0.20173535373537 -1.28966998739874
 6 -7.25157876457646  0.02908200260026 -2.14030995359536
 6 -7.60375349194920 -1.30415556825683 -2.76610963556356
 6 -6.73324880858086 -2.19839361266127 -2.07006621652165
 6 -5.88566649014902 -1.49235326482648 -1.20565843054305
 6 -8.70408578327833 -1.67504729332933 -3.72971389078908
 6 -6.26224985208521 -3.64031313731373 -2.02215760966097
 8 -6.61651489208921 -4.66772174227423 -2.57321756745675
 6 -5.05523577707771 -3.58087985468547 -0.93073969476948
 6 -5.33676080368037 -4.61594679627963  0.14748189918992
 8 -5.92073625622562 -4.48999493289329  1.23289040934093
 8 -5.03676363956396 -5.79786367046705 -0.21864603600360
 6 -5.30917426662666 -6.84477806890689  0.71419895469547
 6  2.32072875447545 -5.14495075527553  0.69141712301230
 6  3.31404471457146 -4.09203070237024  0.92365365116512
 6  3.92942204590459 -3.24746456735674  0.07398977397740
 6  3.55646054335434 -3.05825901430143 -1.24429209800980
 6  5.10017422342234 -2.41539580778078  0.70939279017902
 6  6.47131273597360 -2.84973992699270  0.15108543444344
 6  7.57101622832283 -1.94361600740074  0.69958379297930
 6  8.90029863836384 -2.00001598359836 -0.10159687288729
 6  9.56345342544254 -3.31424132663266  0.01928505350535
 6  9.94004944054405 -0.84862548344834  0.35526348974897
 6  11.19228238553855 -0.85493828892889 -0.39201451205120
 6  12.16043366396640  0.39488867936794  0.18783957215722
 6  13.45096449054905  0.47112679957996 -0.67366712391239
 6  14.24500267326733 -0.75558628862886 -0.53235992119212
 6  14.21798173637364  1.80619539173917 -0.21351899429943
 6  15.52568184908491  2.19284121942194 -0.98868597629763
 6  15.95852547224722  3.52265477547755 -0.68081917491749
 6  17.34584897959796  3.98768768426843 -1.21070211801180
 6  17.14139312141214  4.16825238793879 -2.71348366836684
 6  17.72960637983798  5.30204833083308 -0.58748970597060
 1 -2.89300480638064  1.09766663026303  3.61271888308831
 1 -6.69705058795880  5.52422862506251  0.63491325402540
 1 -8.96417161626163  1.33114737623762 -3.18811419231923
 1 -3.74563162836284 -3.18843195989599  1.84170991309131
 1 -2.01026211221122 -1.34354196239624  2.77683984998500
 1 -3.34373369856986 -2.74953153405341  4.29666961286128
 1 -3.39570617071707 -1.06428854655466  4.77565370127013
 1 -4.76819849564956 -1.81104902290229  3.96477970057006
 1 -2.18879604520452 -3.31471451645165 -0.00817855245525
 1 -1.26750745044504 -1.82742136953695  0.28633947524752
 1 -0.51238562866287 -3.48863883618362  2.49624416551655
 1 -1.29190866946695 -4.55748258455846  1.59897893459346
 1 -1.66606525862586  3.45816050275028  3.92546492759276
 1 -2.76222387638764  4.94130376947695  4.56459212211221
 1 -2.76269620212021  3.07540073417342  5.23429040584058
 1 -4.92248610791079  6.83919190169017  2.18139025482548
 1 -10.16011999449945  3.09237638953895 -3.04217537213721
 1 -10.00809829272927  4.87758529302930 -2.87853084568457
 1 -9.61750751165117  4.15167306730673 -5.29010532113211
 1 -7.95207917391739  4.84173611421142 -4.81000068186819
 1 -8.26197647254726  2.82338665256526 -4.81181529622962
 1 -8.82410899249925 -0.98679193689369 -4.65338530753075
 1 -8.50332996089609 -2.65461252155216 -4.31617096099610
 1 -9.85991924102410 -1.52672930753075 -3.32768705380538
 1 -4.38293006900690 -3.88079390239024 -1.64496942704270
 1  2.65815375917592 -6.26897419051905  0.79728811671167
 1  2.11436476307631 -5.10204873127313 -0.40614604970497
 1  3.62084806720672 -4.31616173847385  2.05869423352335
 1  2.59944739663966 -3.32624417931793 -1.33740639073907
 1  3.46208354635464 -1.90671537213721 -1.41690990849085
 1  4.37814032143214 -3.42137399369937 -1.93082453975398
 1  4.99759362836284 -1.40918646324632  0.70045043614361
 1  4.98347070547055 -2.55006932413241  1.74223811011101
 1  6.75218443844384 -3.85647994749475  0.49587890959096
 1  6.52529136863686 -2.82721493749375 -1.06309599579958
 1  7.02426322792279 -0.74710126442644  0.77370612391239
 1  8.01599050925092 -2.20547879637964  1.84006147854785
 1  8.86528242784278 -1.45365340604060 -1.05024324302430
 1  8.73879604500450 -3.96514537443744 -0.44510698089809
 1  10.44978800820082 -3.46841019571957 -0.55183276517652
 1  9.71785853345335 -3.69421515011501  0.98556951995200
 1  9.36596765766577  0.24493290369037  0.04517369176918
 1  9.98886784538454 -0.87240555985599  1.43974491179118
 1  11.88931086218622 -1.60196751845184 -0.17939724752475
 1  11.17701364156416 -0.79083071857186 -1.38602944664466
 1  11.42222224032403  1.38669174097410 -0.02710992139214
 1  12.38242900160016  0.26026731003100  1.11755093019302
 1  13.18777952025203  0.67262200500050 -1.76739294409441
 1  14.62253248044805 -0.56562958025803  0.65009010651065
 1  13.67552793929393 -1.74270744964496 -0.89280553465347
 1  15.16450630713071 -0.67516084378438 -0.95678808180818
 1  13.47744699029903  2.59499779897990 -0.27876775407541
 1  14.47115472767277  1.55946236073607  0.90294912221222
 1  16.36177490459046  1.34006946844684 -1.04443225822582
 1  15.17919271477148  2.15045329672967 -2.14732826372637
 1  15.41398286038604  4.47798100580058 -0.94168544854486
 1  15.92271190509051  3.58132409180918  0.41219367816782
 1  18.11684150095009  3.37595110361036 -0.92503689158916
 1  16.45502263906391  5.07442472137214 -2.84180845974597
 1  17.98336072597260  4.51866826002600 -3.36522395599560
 1  16.67444212951295  3.23450836203620 -2.95471602480248
 1  17.74886276027603  5.26232688568857  0.55842500820082
 1  18.63427103790379  5.70045627212721 -1.09571171227123
 1  16.96359892969297  6.06651106120612 -0.83132148424842
 1 -4.86040392499250 -7.68351945134513  0.08527421142114
 1 -6.36007649894990 -6.93632301370137  0.93755359865987
 1 -4.51717393479348 -6.67043691989199  1.48365123352335
 8 -7.84736763206321  6.76332636403640 -0.27561098949895
 1 -8.90156354015402  6.61109852555256 -1.91826029352935

