%nproc=3
%Mem=2GB
# td=(NStates=1) iop(3/107=0140000000,3/108=0140000000) iop(3/107=0140000000,3/108=0140000000) CAM-B3LYP/6-31G(d,p) 

TD

0 1
12 -5.59153488468847  1.22053208090809  0.17731039983998
 6 -5.07248737053705 -2.11414537923792 -0.23234629972997
 6 -3.37150861076108  1.13274581608161  2.91343278147815
 6 -6.15601202350235  4.51306933003300  0.62167452865287
 6 -7.97440835883588  1.21487016941694 -2.30137423132313
 7 -4.39705679017902 -0.25220114321432  1.11002116911691
 6 -4.31656687708771 -1.58094927632763  0.76849056755676
 6 -3.27244864656466 -2.35090628922892  1.62423801240124
 6 -3.01097525292529 -1.35184585428543  2.77554434103410
 6 -3.57195399539954  0.03897474487449  2.23629428802880
 6 -3.68019012701270 -1.87271396399640  3.91210907030703
 6 -1.99094393769377 -2.67522151535154  0.76474066016602
 6 -0.98219598249825 -3.57103219111911  1.49289316621662
 6  0.20237610501050 -3.91642651475148  0.66811497259726
 8  0.39766362026203 -3.35126481528153 -0.43156317171717
 8  1.04418610081008 -4.69005415021502  1.37719370787079
 7 -4.88963751475147  2.64591482818282  1.54126081268127
 6 -4.03979806700670  2.42073008900890  2.62766799259926
 6 -3.73161369856986  3.61704178667867  3.34204314871487
 6 -4.44233998969897  4.64463292879288  2.58152403660366
 6 -5.27929729212921  3.93493817031703  1.50422557445745
 6 -2.77944656955696  3.69720680438044  4.36336020652065
 6 -4.59259195919592  6.01557159135914  2.91665710251025
 8 -4.13103559085909  6.46080091029103  3.96122009450945
 7 -6.70404205380538  2.66644457695770 -0.76731939963996
 6 -6.85046724452445  3.99631003650365 -0.40995919901990
 6 -7.77396253645365  4.64256531333133 -1.35085789488949
 6 -8.28085111791179  3.64043317341734 -2.22380693309331
 6 -7.65749956145615  2.41074924902490 -1.72073584338434
 6 -8.23184546324633  6.05590696039604 -1.22997413201320
 6 -9.28380485888589  3.76155709400940 -3.37100964956496
 6 -8.59370835153515  4.06682804590459 -4.72563581028103
 7 -6.36566233353335 -0.13707888808881 -1.09137015741574
 6 -7.33675728242824 -0.04382528812881 -2.03006892949295
 6 -7.48574169076908 -1.34350950365036 -2.70798382298230
 6 -6.65621110481048 -2.15752952625263 -2.09198840874087
 6 -5.94835275877588 -1.46486051555156 -1.13312117681768
 6 -8.46153152785279 -1.65072486108611 -3.79733065246525
 6 -6.18674230133013 -3.52451155715572 -2.04782017591759
 8 -6.61467470807081 -4.55169013911391 -2.64859510521052
 6 -5.00252050555055 -3.50853261996200 -0.89410603140314
 6 -5.26611373897390 -4.65557075867587  0.12972012301230
 8 -5.68182236483648 -4.54263019641964  1.22716983728373
 8 -4.99532949614962 -5.77992187628763 -0.44656882828283
 6 -5.29835318451845 -7.00288387948795  0.35190272507251
 6  2.23900058165817 -5.07257351755175  0.74939292059206
 6  3.34283759385939 -4.09071057035704  1.04156544234423
 6  3.97342644634463 -3.30133995489549  0.16374874987499
 6  3.69920481778178 -3.17055024342434 -1.33645131393139
 6  5.13147735373537 -2.39506377457746  0.67219907080708
 6  6.41938754345435 -2.66298125112511  0.07356768266827
 6  7.57550667736774 -1.92075372117212  0.62943677827783
 6  8.95685429392939 -1.94343032503250 -0.07961467466747
 6  9.58047512761276 -3.39662956545655  0.13113623862386
 6  9.98111354695470 -0.94617523842384  0.49060702410241
 6  11.29075223252325 -0.90114290939094 -0.31102641324132
 6  12.14620224082408  0.24760395089509  0.16799758795880
 6  13.36188558265827  0.46141582848285 -0.65037479467947
 6  14.42513068606861 -0.72943367336734 -0.58299498469847
 6  14.17916785498550  1.84164893709371 -0.35455309770977
 6  15.28414769566957  2.28865080038004 -1.17867497519752
 6  16.05364498419842  3.60981349134914 -0.64751584458446
 6  17.33093748844884  3.90338925442544 -1.36731777957796
 6  17.25099408150815  4.14251981468147 -2.87648996899690
 6  17.84527794699470  5.14870299629963 -0.81767272427243
 1 -2.70589609550955  1.11596846044604  3.58817642884288
 1 -6.53733461636164  5.57854405660566  0.63914367706771
 1 -8.54225942504250  1.14838910041004 -3.37277265816582
 1 -3.58754581978198 -3.35977909460946  2.08658440054005
 1 -1.81714280028003 -1.11793940214021  3.04568673467347
 1 -3.03810313551355 -2.86693327422742  4.47471741764176
 1 -3.82518911901190 -1.17345946364636  4.76924306020602
 1 -4.69777145294529 -1.95661357935794  3.70930415301530
 1 -2.26217338293829 -3.16884992999300 -0.20592832743274
 1 -1.71467216691669 -1.61922054945495  0.29080992229223
 1 -0.71765615571557 -3.23147311961196  2.48163270437044
 1 -1.56048552715272 -4.64395123142314  1.72361139783978
 1 -1.81616026812681  3.16649133583358  3.96087846894689
 1 -2.39970762476248  4.69413905300530  4.73128879177918
 1 -3.00654058655866  3.11575476957696  5.34394137093709
 1 -4.93883774307431  6.67239522202220  2.11787390319032
 1 -9.77188117061706  2.69162631453145 -3.58507966256626
 1 -10.22670015291529  4.62986052055205 -3.07819081168117
 1 -9.39503526442644  3.97737563756376 -5.42675898649865
 1 -8.14602856885689  4.93995593619362 -4.89329901170117
 1 -8.20905118001800  3.17631194509451 -4.79892400710071
 1 -8.42753933553355 -1.19446270397040 -4.84414438343834
 1 -8.38459808770877 -2.71686874717472 -4.14118346224623
 1 -9.48049129822982 -1.42480911551155 -3.51399568466847
 1 -4.13911568756876 -3.87531335433543 -1.56772170227023
 1  2.42817076087609 -6.02014930803080  1.27599598749875
 1  2.00219354595460 -5.20798932533253 -0.27048248334833
 1  3.73393937633763 -4.21421154345435  2.13399176327633
 1  2.45923337523752 -3.41210276517652 -1.27615026512651
 1  3.66679401740174 -2.25240994159416 -1.64055227272727
 1  4.35816832423242 -3.85697755405541 -1.85217667496750
 1  4.98422229122912 -1.40551609620962  0.23101349244925
 1  4.98653101150115 -2.33461777897790  1.70149403570357
 1  6.57760698069807 -3.64617891739174  0.31526084778478
 1  6.38824766426643 -2.58836105210521 -1.02894258045805
 1  7.44959576117612 -0.87578413271327  0.60285903920392
 1  7.95674458465847 -1.94445269376938  1.70760823322332
 1  8.75822172177218 -1.52267030773077 -1.20590880958096
 1  8.87130929632963 -4.22503136303630  0.09281681148115
 1  10.43562659205921 -3.56098945364536 -0.47919550145015
 1  9.97965471307131 -3.36236196479648  1.22617358035804
 1  9.40138119901990  0.04286269666967  0.46196537093709
 1  10.10774973357336 -1.22130044934494  1.37704864216422
 1  11.82332426352635 -1.70121744344434 -0.19304861266127
 1  10.87945388558856 -0.70621225672567 -1.33457430113011
 1  11.52404242234223  1.06955002680268 -0.21223843424342
 1  12.24072483118312  0.37624890819082  1.36580575567557
 1  12.98744948724872  0.54112885568557 -1.68879508430843
 1  14.67833806100610 -0.69400241754175  0.55820091759176
 1  13.77305769226923 -1.61180435933593 -0.72389864396440
 1  15.20697055355535 -0.68616194389439 -1.12829523252325
 1  13.46148539413941  2.72878117731773 -0.27682756005601
 1  14.58247585978598  1.76242265676568  0.72219104640464
 1  16.02400112721272  1.44571003250325 -1.21240905590559
 1  14.85055985148515  2.56073432483248 -2.24879841074107
 1  15.38133959605960  4.56153936163616 -0.73944522452245
 1  16.06614624852485  3.78396435583558  0.48008046684668
 1  18.05450526732673  3.18856236473647 -0.98675306320632
 1  16.25771290809081  4.85892317121712 -2.93748802770277
 1  18.19067145704570  4.31543793699370 -3.41304873847385
 1  16.99860454575457  3.03589850105010 -3.30473102630263
 1  17.73099097309731  5.28226887988799  0.23868303400340
 1  18.73384099489949  5.64461068756876 -1.11189333043304
 1  17.18363093289329  5.98015242534253 -0.97819617171717
 1 -4.92429031363136 -7.94050514991499 -0.31163547954795
 1 -6.20124061536154 -7.10953033443344  0.45586542984298
 1 -4.52881509890989 -7.07106698289829  1.11954482288229
 8 -7.71223411871187  6.87874790619062 -0.47471089948995
 1 -9.02094547834784  6.25602301800180 -2.07557602510251

