%nproc=3
%Mem=2GB
# td=(NStates=1) iop(3/107=0140000000,3/108=0140000000) iop(3/107=0140000000,3/108=0140000000) CAM-B3LYP/6-31G(d,p) 

TD

0 1
12 -5.66547227842784  1.20673070077008  0.29029169796980
 6 -5.07359748154815 -2.15314927962796 -0.28294135923592
 6 -3.41262272217222  1.18833137463746  2.81581301950195
 6 -6.09543596589659  4.63152117521752  0.59187154835484
 6 -7.92176309430943  1.24104278667867 -2.26120021392139
 7 -4.36813389788979 -0.30874679777978  0.98421858885889
 6 -4.22932815321532 -1.71848302970297  0.72589630813081
 6 -3.16925832753275 -2.36017721632163  1.54287987658766
 6 -2.92663681908191 -1.27480815051505  2.62762954955496
 6 -3.61489828982898 -0.07669682228223  2.11281193979398
 6 -3.48119022702270 -1.64830152275228  3.95168302770277
 6 -1.98286312961296 -2.69280327352735  0.73151733783378
 6 -0.94956271917192 -3.61241632953295  1.50985486238624
 6  0.27704357175718 -3.94166903900390  0.70207836893689
 8  0.41160501440144 -3.56832652145215 -0.45815583098310
 8  1.07707939013901 -4.75544068886889  1.33722971147115
 7 -5.02200075107511  2.55961619831983  1.50778746534653
 6 -4.05829991719172  2.42274029002900  2.52374760056006
 6 -3.76035657285729  3.60185026752675  3.17905685008501
 6 -4.49436519221922  4.64482294779478  2.56233211741174
 6 -5.19725908830883  3.99581425792579  1.54767991989199
 6 -2.81589021392139  3.74605168886889  4.41387525802580
 6 -4.58652135213521  6.05043507770777  2.81174661146115
 8 -3.91137362466247  6.55656048624862  3.70963493599360
 7 -6.79104075367537  2.64726265876588 -0.67275994369437
 6 -6.92968516631663  4.04962536803680 -0.46500470357036
 6 -7.83130827102710  4.69130018681868 -1.24266707580758
 6 -8.37802083488349  3.69781891199120 -2.09577412981298
 6 -7.70497430893089  2.47588576267627 -1.75452922272227
 6 -8.38915119381938  6.02391376107611 -1.15617675227523
 6 -9.33240971937194  3.76098703700370 -3.24489703830383
 6 -8.70787976867687  4.03595495859586 -4.60025327202720
 7 -6.37743351065106 -0.16331151135114 -1.11557257765777
 6 -7.37940154685469 -0.10643154875488 -2.03927985058506
 6 -7.58319143574357 -1.29388454115412 -2.58781180578058
 6 -6.66489197289729 -2.17251102440244 -2.06367557745775
 6 -5.96539446294629 -1.40599462896290 -1.01727959265927
 6 -8.45984135883588 -1.65327511611161 -3.86981790119012
 6 -6.18258188528853 -3.56391549754976 -2.01607700160016
 8 -6.50868410901090 -4.55065003510351 -2.55994624032403
 6 -4.99310956445645 -3.63899566626663 -0.91518813961396
 6 -5.35628275587559 -4.68406360796080  0.16762391339134
 8 -5.70808499109911 -4.53454938833883  1.30352747304730
 8 -5.18780874407441 -5.91344522862286 -0.44329850125012
 6 -5.52083543274327 -7.04065765686569  0.39326686148615
 6  2.30992767436744 -5.09801606180618  0.67494547584758
 6  3.31011432153215 -4.02422392169217  1.01585287108711
 6  4.02043114681468 -3.28385820672067  0.17288966396640
 6  3.72164706200620 -3.13106629502950 -1.34770243904390
 6  5.13044725072507 -2.37212148034803  0.66791864276428
 6  6.44160976567657 -2.64115906890689 -0.06830650475048
 6  7.63658278497850 -1.82627427322732  0.53642747734773
 6  8.93213182168217 -2.00402638463846 -0.12574928812881
 6  9.62113919401940 -3.42662256475648 -0.01205808080808
 6  9.89361479707971 -0.90542116301630  0.43755171857186
 6  11.21627478477848 -0.78516131123112 -0.31511682228223
 6  12.17459508010801  0.40615980648065  0.15790657885789
 6  13.55401479557956  0.54718440534053 -0.58271802900290
 6  14.42056022902290 -0.71190192019202 -0.52863954915492
 6  14.26239617781778  1.76054082628263 -0.23106074847485
 6  15.50771005190519  2.24292622792279 -1.02251935963596
 6  16.06960658035803  3.57555006500650 -0.54629572257226
 6  17.40879527422742  3.94714362986299 -1.23216426422642
 6  17.31157013911391  3.96524208690869 -2.81537385738574
 6  17.84849826902690  5.31698982498250 -0.81631258825883
 1 -2.90626613251325  1.07753461706171  3.58324593579358
 1 -5.78372925582558  5.68300450265026  0.58906866956696
 1 -8.58039323842384  1.26480074157416 -3.26042142304231
 1 -3.56432349754976 -3.21484460116012  1.95961170327033
 1 -1.90860194619462 -1.20231783998400  2.64422658865887
 1 -3.30492981818182 -2.66391297219722  4.07997794369437
 1 -3.23547014711471 -0.90060217791779  4.84853098899890
 1 -4.36926860266027 -1.77249516751675  3.91453467606761
 1 -2.16985415101510 -3.23140618561856 -0.16999473407341
 1 -1.42007270697070 -1.73022164956496  0.50357119841984
 1 -0.66982137223722 -3.09054902720272  2.54984952605261
 1 -1.41375085368537 -4.56370320662066  1.78684772147215
 1 -1.72291094319432  3.78717340404040  4.02859524062406
 1 -2.92402005600560  4.77646728582858  5.02661832473247
 1 -3.06088602110211  2.72328552265227  5.00319729652965
 1 -5.21245510481048  6.61533951645164  2.02434455025503
 1 -9.88628261076108  2.80740789268927 -3.23423457805781
 1 -10.24164164706471  4.59313684818482 -3.07223021562156
 1 -9.60061582248225  4.02055995599560 -5.27829414001400
 1 -8.09974394039404  4.82050399099910 -4.80173985578558
 1 -8.28642891779178  3.04055836973697 -4.90113422812281
 1 -7.64431101270127 -1.19920317801780 -4.88196816581658
 1 -8.69159878777878 -2.74063112341234 -4.00256960086009
 1 -9.55683893299330 -1.14829146374638 -3.79784406950695
 1 -4.08224000000000 -3.85512133513351 -1.30636556665667
 1  2.41844978877888 -6.02581987508751  0.94930331823182
 1  2.14117744434443 -5.07494602100210 -0.42174760986099
 1  3.35373135553555 -3.93687380968097  2.00119848394840
 1  2.58020547244724 -3.16649820472047 -1.34392704280428
 1  4.07127446544655 -2.14371907250725 -1.56876509400940
 1  4.19555206260626 -4.13242509880988 -1.80241169846985
 1  5.01287515651565 -1.35960150475047  0.56530692179218
 1  5.02317467586759 -2.56252056925692  1.54238812511251
 1  6.66533575357536 -3.58152245174517 -0.25567624592459
 1  6.07444628412841 -2.27817003300330 -1.00495018121812
 1  7.22135293689369 -0.72939949424942  0.53092184548455
 1  7.88211712191219 -2.01086933543354  1.67888536093609
 1  8.91884778437844 -1.77045508620862 -1.12858107680768
 1  8.94819698509851 -4.35605446534654 -0.45351782198220
 1  10.63201623102310 -3.58273162786279 -0.32343992589259
 1  9.60252700030003 -3.68781451005101  1.10326128912891
 1  9.45998705960596  0.02342075247525  0.61262043644364
 1  10.06912587118712 -1.17274559385939  1.42590352765277
 1  11.87426935803580 -1.75420274197420 -0.34794410221022
 1  10.93459940014001 -0.77052868836884 -1.29909075277528
 1  11.58187820592059  1.41222429422942  0.20615340494049
 1  12.55674643334333  0.17003828712871  1.29530870597060
 1  13.19263000530053  0.56648139093909 -1.71062726752675
 1  14.61816204340434 -0.78434145144514  0.48702379987999
 1  13.98559894639464 -1.64565774467447 -0.84367062116212
 1  15.29754961146114 -0.63675700340034 -1.21868427142714
 1  13.38645789138914  2.54019231843184 -0.36429630693069
 1  14.37479509170917  1.68536495099510  0.86188501580158
 1  16.32020074717472  1.28742420392039 -0.84164197919792
 1  15.27777257275728  2.20003825522552 -2.08649218011801
 1  15.32671413351335  4.38638184588459 -0.90425170517052
 1  16.31853148704870  3.53734969436944  0.46240869966997
 1  18.15961577837784  3.21275478397840 -0.80690507840784
 1  16.62951008780878  4.69511679057906 -2.85345962486249
 1  18.21971436133613  4.38207460066007 -3.18373580718072
 1  16.96572125742574  3.07540245144514 -3.17937849104911
 1  18.07270514451445  5.47752840584058  0.21937110281028
 1  18.69871748254825  5.70371659815982 -1.33936607770777
 1  17.25230780058006  6.22297670777078 -1.03577192929293
 1 -5.27236512111211 -7.91289238863886 -0.24268858485849
 1 -6.59167965926593 -7.28464784618462  0.32936277957796
 1 -4.98968118551855 -7.14187406360636  1.29793266166617
 8 -7.72812570787079  6.85405543694369 -0.46280970937094
 1 -9.27878126192619  6.29110652635264 -2.01219968746875

