%nproc=3
%Mem=2GB
# td=(NStates=1) iop(3/107=0140000000,3/108=0140000000) iop(3/107=0140000000,3/108=0140000000) CAM-B3LYP/6-31G(d,p) 

TD

0 1
12 -5.57164289548955  1.34291431913191  0.28130079887989
 6 -4.86674679647965 -2.15981994669467 -0.33733679877988
 6 -3.29065052495250  1.26547908940894  2.78653009120912
 6 -6.19413583588359  4.56332435553555  0.56631899309931
 6 -7.98518943694369  1.13408209060906 -2.29661375527553
 7 -4.31732881738174 -0.25308123122312  1.04491465846585
 6 -4.28138335873587 -1.61007218861886  0.64464818331833
 6 -3.17819922162216 -2.34747594619462  1.57134272287229
 6 -2.86822097749775 -1.18213888358836  2.60784757135714
 6 -3.49842664266427  0.01187203460346  2.10176083468347
 6 -3.40234234223422 -1.64938163076308  3.95734359375938
 6 -1.96231107440744 -2.76595058825883  0.68129231533153
 6 -1.01242900580058 -3.69635472337234  1.45978985588559
 6  0.24483035043504 -4.07053192529253  0.66514467556756
 8  0.46634048794879 -3.52517220602060 -0.42690270567057
 8  1.00742242444244 -5.02862800760076  1.22129811831183
 7 -4.90812936393639  2.68325856255626  1.42864955155516
 6 -3.90010409760976  2.49225724172417  2.44215944174417
 6 -3.74633517071707  3.63102318481848  3.22199114351435
 6 -4.49703545924592  4.62789125462546  2.56086197039704
 6 -5.26388575097510  3.96107078357836  1.43911906380638
 6 -2.72880150505050  3.79165624932493  4.41901577207721
 6 -4.61971467146715  6.09251928612861  2.84965040184018
 8 -4.05889837713771  6.61114594479448  3.74963893639364
 7 -6.76805845544554  2.62137006950695 -0.70105277297730
 6 -6.90756295409541  3.91698210371037 -0.35782398549855
 6 -7.83447858805881  4.67509856665667 -1.24630743984398
 6 -8.42729576237624  3.69470860096010 -2.10664521692169
 6 -7.77369118061806  2.40527870197020 -1.73420719051905
 6 -8.24630690939094  6.07114848454845 -1.26769790439044
 6 -9.41707818621862  3.88495943424342 -3.19758230683068
 6 -8.72243122382238  3.95333669676968 -4.56491973867387
 7 -6.22477824512451 -0.17950313051305 -1.04163518391839
 6 -7.22315592229223 -0.00875178077808 -1.99872579517952
 6 -7.56069918651865 -1.25901105380538 -2.64371739633963
 6 -6.63705918961896 -2.20956472977298 -2.11966117601760
 6 -5.85612353585359 -1.42966699619962 -1.06273413811381
 6 -8.57198257295730 -1.51745153375338 -3.78059897929793
 6 -6.15712934003400 -3.46315542154215 -1.95809120302030
 8 -6.55380862146215 -4.45854082418242 -2.52358260396040
 6 -4.97327758125813 -3.51862362906291 -0.93336995779578
 6 -5.27148427602760 -4.66542174377438  0.09346649764976
 8 -5.75627981058106 -4.49893582698270  1.16448356865687
 8 -4.88475843904390 -5.88133201730173 -0.38550272167217
 6 -5.40645399459946 -6.97577116821682  0.37478501330133
 6  2.30675735733573 -5.24423068326833  0.56717469876988
 6  3.35582889298930 -4.32770426972697  0.96490777657766
 6  4.01692079577958 -3.33743356425643  0.24356673167317
 6  3.82317721502150 -3.22186537493749 -1.27623529232923
 6  5.15628983498350 -2.53572784098410  0.87699955085509
 6  6.50756636133613 -2.84531948494850  0.15153547944794
 6  7.56188531523152 -1.91648329412941  0.64870870547055
 6  8.95543415191519 -2.06827280928093 -0.02101881508151
 6  9.49304638473847 -3.42564246674667  0.45409853485349
 6  9.93076851245125 -0.95748636953695  0.25271323472347
 6  11.27728088538854 -1.02204499959996 -0.41763707430743
 6  12.09445706630663  0.19109830033003 -0.02080129192919
 6  13.47429682378238  0.43395308220822 -0.67348710591059
 6  14.53599177217722 -0.73409413941394 -0.52631931713171
 6  14.18451839003900  1.78661343354335 -0.09118676107611
 6  15.32344162506251  2.27445938123812 -0.98806591429143
 6  15.82499211891189  3.69962247224723 -0.58097919091909
 6  17.10471486618662  4.07438635413541 -1.34389543734373
 6  17.05614459655966  4.28136369906991 -2.90930325032503
 6  17.68569198839884  5.37497562356236 -0.72536349334933
 1 -2.89451495739574  1.05357222082208  3.82552016321632
 1 -6.24985586848685  5.57060326252625  0.81693145584559
 1 -8.84077927702770  0.93647790929093 -3.16943232413241
 1 -3.54298136333633 -3.22868598529853  2.05583132523252
 1 -1.82479356535654 -1.12934054225423  2.67562972897290
 1 -2.89267859305931 -2.50945752665267  4.50912085798580
 1 -3.34335093519352 -0.95473759145915  4.72920905680568
 1 -4.52469414521452 -1.42695061306131  3.79564278687869
 1 -2.36235340094009 -3.22399544454445 -0.39954768936894
 1 -1.44865556525653 -1.75047367476748  0.29398023932393
 1 -0.64670906100610 -3.16457642994299  2.36615115621562
 1 -1.82238171677168 -4.55405224152415  1.74320335703570
 1 -1.79762841494149  3.44057874457446  4.20310269136914
 1 -2.97299495349535  4.92130176927693  4.73881954485449
 1 -2.94319425192519  3.11113430753075  5.24456143294329
 1 -5.22456631593159  6.62752073457346  2.03622573837384
 1 -10.14346832933293  3.02480963286329 -3.38389954455446
 1 -9.98314579747975  4.73171070557056 -2.95812880548055
 1 -9.42188794969497  4.00717861786179 -5.44802111271127
 1 -8.21059502550255  4.93373531413141 -4.56137581938194
 1 -8.10614088898890  3.20551486538654 -4.79694380908091
 1 -8.19263584518452 -1.10597385508551 -4.75791576057606
 1 -8.72495212311231 -2.62636969726973 -3.91848119201920
 1 -9.51080432953295 -1.15970260486049 -3.30202448754876
 1 -4.06174795079508 -3.79591541454145 -1.50077500760076
 1  2.54693263706371 -6.39751704480448  0.85265365326533
 1  2.31699502610261 -5.06394492089209 -0.52821825692569
 1  3.64092007440744 -4.41438156045605  2.10210857495750
 1  2.76782423432343 -3.41490304520452 -1.75494814491449
 1  3.94274161216122 -2.20813551415142 -1.56894511201120
 1  4.67295980338034 -3.65810766706671 -1.81465292259226
 1  4.71714558355836 -1.60922646724672  0.53273366446645
 1  5.21432379077908 -2.48576289348935  1.88098198449845
 1  6.78332755275528 -3.88954325382538  0.54328365006501
 1  6.36525536503650 -2.86893910991099 -1.01578126432643
 1  7.25800660226023 -0.79809636393639  0.27814656795680
 1  7.66203511371137 -1.98540678917892  1.79730720312031
 1  8.86829272887289 -2.09711775247525 -1.18186640534053
 1  8.95177734313431 -4.46374523442344  0.08957648744874
 1  10.47985101450145 -3.69484283898390 -0.23295087698770
 1  9.84917166476648 -3.42074780338034  1.68141910491049
 1  9.40119118001800  0.00300871127113  0.20907008140814
 1  9.98437739633963 -0.84371269056906  1.43560449774977
 1  11.74952688378838 -1.83076039773977  0.07306799899990
 1  11.08638457865787 -1.13334496999700 -1.63694453815382
 1  11.45278529662966  1.07955102690269 -0.10020723112311
 1  12.23863462216222  0.24980626392639  1.07279645474547
 1  13.33205394769477  0.51270601340134 -1.73038924372437
 1  14.62029225642564 -1.05035805310531  0.60447554505451
 1  14.18511889838984 -1.81800497939794 -1.56621287538754
 1  15.51107096359636 -0.41122445014501 -0.86182858585859
 1  13.38043728932893  2.49456775597560 -0.45127500480048
 1  14.42548016021602  1.80060647514751  1.03446227352735
 1  15.97990671777178  1.53198866036604 -0.86894470947095
 1  14.88359315481548  2.15419367076708 -2.01366489738974
 1  14.93720518261826  4.42596580428043 -0.96178745874587
 1  15.78694832873287  3.83914987438744  0.46409886868687
 1  17.90779059585959  3.28633214171417 -1.07991237913791
 1  16.54481161796179  5.09672695159516 -3.01328560746075
 1  18.01967435733573  4.28076446964696 -3.32547998159816
 1  16.46017070237023  3.36221113231323 -3.21074162736274
 1  17.97585545954595  5.16336698969897  0.34856402210221
 1  18.56081369216922  5.72449867636764 -1.33929607070707
 1  16.94051662146215  6.26316072617262 -0.77242559465947
 1 -4.71751963656366 -7.68167926732673 -0.05009932593259
 1 -6.48918941024102 -7.13665304670467  0.31142098539854
 1 -5.14747696509651 -6.72881275747575  1.50559342774277
 8 -7.87261015631563  7.02479251065107 -0.49145257365737
 1 -9.00421380518052  6.30000741644164 -2.13842230973097

