%nproc=3
%Mem=2GB
# td=(NStates=1) iop(3/107=0140000000,3/108=0140000000) iop(3/107=0140000000,3/108=0140000000) CAM-B3LYP/6-31G(d,p) 

TD

0 1
12 -5.55632136333633  1.30523055075508  0.15627829662966
 6 -5.02310243204320 -2.20783474817482 -0.38012107720772
 6 -3.37654911481148  1.29292183368337  2.78851028922892
 6 -6.28756517881788  4.54319234233423  0.69742210341034
 6 -8.05052597059706  1.10853953635364 -2.19186328022802
 7 -4.44129121362136 -0.32283820692069  1.07293746074607
 6 -4.21940716111611 -1.65286646804680  0.69307302580258
 6 -3.24842624432443 -2.34633583218322  1.51222681128113
 6 -2.86378053345335 -1.31440210991099  2.63280006660666
 6 -3.63125992599260  0.04873572097210  2.22761341994199
 6 -3.53087519551955 -1.74892158475848  3.99010687008701
 6 -1.95846068936894 -2.66588058125813  0.58978316441644
 6 -0.88851661456146 -3.55067015491549  1.34386826372637
 6  0.24371023842384 -3.81699657175718  0.47454561566157
 8  0.53069692359236 -3.27433712251225 -0.55157517291729
 8  0.96607829002900 -4.76593173797380  1.14536052455245
 7 -4.95576412741274  2.69201943864386  1.53825051165116
 6 -3.93015710291029  2.46716473247325  2.39813503930393
 6 -3.57285782298230  3.71148123062306  3.03819276367637
 6 -4.45290104580458  4.65361382688269  2.44757064126413
 6 -5.28618798119812  3.98080275677568  1.42198735063506
 6 -2.53943256815682  3.84383146684668  4.18375224572457
 6 -4.72936563656366  6.04777481168117  2.81264670147015
 8 -4.03976646394639  6.55646047624762  3.75809978247825
 7 -6.85764741434143  2.66024395689569 -0.75852852055206
 6 -7.02844504230423  3.98485889138914 -0.39173737683768
 6 -8.07311245144514  4.55590664746475 -1.21239404850485
 6 -8.60708374117412  3.58123725382538 -1.95799035143514
 6 -7.93626743824383  2.42418059215922 -1.61249501930193
 6 -8.45920819951995  6.01404277397740 -1.25915705030503
 6 -9.54037051545155  3.71188212651265 -3.10561310991099
 6 -9.01185016571657  3.83109447254725 -4.52594584128413
 7 -6.33863963126313 -0.03484866506651 -1.02246326672667
 6 -7.38121172787279 -0.05441634723472 -2.00284620722072
 6 -7.54421753835384 -1.42228738143814 -2.58464148874888
 6 -6.61742722642264 -2.16314008730873 -2.06464567446745
 6 -6.00551847534754 -1.39546357585759 -1.09666753145314
 6 -8.50647602230223 -1.65256504510451 -3.74975589498950
 6 -6.15967959505951 -3.55923502950295 -1.96976237013701
 8 -6.57810105070507 -4.60420539063906 -2.54970521622162
 6 -4.98257851135113 -3.55843761046105 -0.96333295409541
 6 -5.24254138173817 -4.62914811641164  0.09700685168517
 8 -5.67382156475647 -4.43334926832683  1.22609973027303
 8 -5.09666963016302 -5.91020490459046 -0.44399857125713
 6 -5.28611196039604 -6.97231082218222  0.51891942674267
 6  2.31641832343234 -5.05170143034303  0.56740472177218
 6  3.33776708680868 -4.00121162046205  0.99979126492649
 6  3.99004810851085 -3.22901272217222  0.13267564256426
 6  3.62732763006301 -2.96855004340434 -1.23519118791879
 6  5.16356056205621 -2.37610187838784  0.58825067596760
 6  6.51467707240724 -2.73805875887589  0.09586991289129
 6  7.68643777047705 -1.80640228602860  0.57895172977298
 6  9.01206981548155 -1.94941092309231 -0.04052076527653
 6  9.60295737583758 -3.43145304780478  0.10474359935994
 6  10.01516695229523 -0.98055867676768  0.39976794019402
 6  11.36747990529053 -0.96068886398640 -0.27393270387039
 6  12.27989561016102  0.34308349884988  0.05232602080208
 6  13.63410280438044  0.32632231913191 -0.60609036623662
 6  14.54032220522052 -0.85048577857786 -0.29502618781878
 6  14.31477141534153  1.66585135733573 -0.17104474687469
 6  15.57960724162416  2.05087702300230 -0.96954406210621
 6  16.23218283798380  3.39906241624162 -0.49930102310231
 6  17.36406080078008  3.89429834533453 -1.18798984678468
 6  17.12796177827783  4.06884244694469 -2.73532585258526
 6  17.91615503470347  5.29534766076608 -0.69508046504650
 1 -2.42009751565157  1.37802466606661  3.49867747894789
 1 -6.20367125002500  5.75796199839984  0.77118688138814
 1 -8.71007620672067  0.93750801230123 -3.02646802770277
 1 -3.81244831003100 -3.33347646434643  2.02765850795079
 1 -1.93346443244324 -0.96542415061506  2.86059822582258
 1 -2.89442876807681 -2.61266784768477  4.39493943984398
 1 -3.12155875597560 -1.01072319001900  4.62846898279828
 1 -4.63414509030903 -1.99438735673567  3.83795701830183
 1 -2.02953011861186 -3.15010805580558 -0.24298203280328
 1 -1.46369706940694 -1.66220484788479  0.46623746504650
 1 -0.76717110721072 -3.15382535483548  2.46144068516852
 1 -1.33433291189119 -4.67505434173417  1.44154319101910
 1 -1.47924657675768  3.43070775747575  4.05871825292529
 1 -2.53186084008401  4.96809644874487  4.60931659455946
 1 -2.88086801930193  3.30855404950495  5.08206518331833
 1 -5.42217607690769  6.69104708720872  2.12551466726673
 1 -10.31230521302130  2.90816796869687 -3.10268142274227
 1 -10.24837232013201  4.46462399689969 -2.88098109070907
 1 -9.91041680258026  3.86519441944194 -5.26683299389939
 1 -8.37952191819182  4.68687062766277 -4.59560924272427
 1 -8.51527180208021  2.97698201210121 -4.65875999069907
 1 -7.84757133873388 -1.33704696239624 -4.64719468846885
 1 -8.50779040694069 -2.77092415271527 -3.73928327222722
 1 -9.49347259635964 -1.30193682828283 -3.62639692479248
 1 -3.98923069906991 -4.09907573057306 -1.61657658775878
 1  2.66088403220322 -5.87336462956296  1.24328271617162
 1  2.26131945854585 -5.18278680508051 -0.44120955605561
 1  3.46728271067107 -4.20254037633763  1.95465382948295
 1  2.55923337523752 -3.21576313121312 -1.62124477457746
 1  3.73702104010401 -1.83925862646265 -1.54348256575658
 1  4.17219972737274 -3.47024888118812 -1.92490394769477
 1  4.99265313431343 -1.34965050965097  0.59745013611361
 1  5.28867122552255 -2.38777309450945  1.68242212851285
 1  6.78585780578058 -3.69822412191219  0.31493081478148
 1  6.48410725022502 -2.61831404740474 -0.96078576477648
 1  7.42955375697570 -0.79066562086209  0.34498325162516
 1  7.82946185638564 -1.78151640014001  1.73666113851385
 1  9.07462336193619 -1.65872391309131 -1.17421564026403
 1  9.07682984838484 -4.25786464636464 -0.41665413561356
 1  10.67751078047805 -3.56197955265527 -0.12499008090809
 1  9.47662441004100 -3.79585531413141  1.19379034203420
 1  9.31437249814982 -0.15342693229323  0.23826300070007
 1  10.07021598019802 -1.07060537983798  1.56468740604060
 1  12.13051498259826 -1.84996231793179 -0.03079238703870
 1  11.19935587578758 -1.04333596909691 -1.51337218091809
 1  11.72342236033603  1.31487455925593 -0.26993420382038
 1  12.24524528322832  0.40818210151015  1.15382455755576
 1  13.32496323862386  0.26655139793979 -1.74765096989699
 1  14.72615284248425 -1.00099311661166  0.78649374687469
 1  14.20443082958296 -1.90367354625463 -0.59078533263326
 1  15.32678253475347 -0.78063139083908 -1.08230063306331
 1  13.73568281388139  2.53261156035604 -0.05514539183918
 1  14.69302691489149  1.65473188768877  0.79463829112911
 1  16.24101282838284  1.26593205470547 -0.98134594959496
 1  15.28259305480548  2.23697194859486 -2.09773330423042
 1  15.51442290439044  4.25108831653165 -0.63050433043304
 1  16.42390202410241  3.66139209860986  0.67378983778378
 1  18.25301511831183  3.19560306880688 -1.29838422632263
 1  16.42079921672167  5.00249752865287 -3.05615989488949
 1  17.90526291619162  4.35703209640964 -3.53559099269927
 1  16.93557824312431  3.00079499069907 -3.21713226642664
 1  17.84666254025402  5.46557721072107  0.44474364006401
 1  19.08138574937494  5.69623585008501 -1.08454059515952
 1  17.26150872067207  6.21511592169217 -0.82581093319332
 1 -5.25067295189519 -7.74371547094709 -0.28151246724672
 1 -6.33565405670567 -6.77617699909991  0.88241808510851
 1 -4.55118733613361 -7.05346522272227  1.32645551395139
 8 -8.00181307660766  6.89863989538954 -0.37242067046705
 1 -9.26742012581258  6.19441685738574 -1.83536200370037

