%nproc=3
%Mem=2GB
# td=(NStates=1) iop(3/107=0140000000,3/108=0140000000) iop(3/107=0140000000,3/108=0140000000) CAM-B3LYP/6-31G(d,p) 

TD

0 1
12 -5.58413414461446  1.28135816351635  0.19742241104110
 6 -5.10963108490849 -2.09873383808381 -0.40051311641164
 6 -3.25330679057906  1.23326586808681  2.73038447664766
 6 -6.14818124042404  4.57412543564356  0.63174553575358
 6 -7.98166908490849  1.15420410281028 -2.38239233313331
 7 -4.36918400290029 -0.22673859695970  0.96522668966897
 6 -4.21631685208521 -1.49988116951695  0.59990370887089
 6 -3.21254265596560 -2.28333953255326  1.47504309290929
 6 -2.88700285568557 -1.25785645534553  2.59700648724872
 6 -3.58212501250125 -0.03148230083008  2.10215087368737
 6 -3.66417852585259 -1.53908060066007  3.98929678907891
 6 -1.86286112941294 -2.56305029822982  0.67608179427943
 6 -0.88141590449045 -3.54354944284428  1.38368224512451
 6  0.30900676807681 -3.87452232433243  0.61100926202620
 8  0.45465931983198 -3.52918260706071 -0.56787680308031
 8  0.99134081628163 -4.76042118691869  1.30346633513351
 7 -4.86731528252825  2.66264650135013  1.46024271087109
 6 -4.02322640984098  2.41726974297430  2.39121434723472
 6 -3.66880741794179  3.61838192069207  3.20874981938194
 6 -4.52309806550655  4.59690815631563  2.52327821202120
 6 -5.26630599299930  3.98002267876788  1.44743989588959
 6 -2.79938856375638  3.73188027172717  4.36064993549355
 6 -4.62858555855586  6.00637067126713  2.91407684448445
 8 -4.13291577887789  6.56712154235424  3.82938691119112
 7 -6.84887653725372  2.65095302780278 -0.65252792049205
 6 -6.92490468826883  3.93148355385539 -0.32220042314231
 6 -7.89919505970597  4.65763682048205 -1.21789459855986
 6 -8.36254928772877  3.63713284338434 -2.04356890929093
 6 -7.70157396889689  2.40283845794579 -1.72777654745475
 6 -8.22353463216322  6.00999236893689 -1.12685381998200
 6 -9.32318879727973  3.89686062436244 -3.23702625122512
 6 -8.58275725642564  3.95173653675368 -4.57389063576358
 7 -6.36648241554155 -0.16419159935994 -1.15233625402540
 6 -7.31896550325032 -0.04193509910991 -2.12377830043004
 6 -7.59376249284928 -1.29933508620862 -2.76194921952195
 6 -6.73113859755976 -2.21412518581858 -2.06680589048905
 6 -5.93824174767477 -1.43931796129613 -1.20254811951195
 6 -8.61678705340534 -1.66195598419842 -3.80025094449445
 6 -6.31676530363036 -3.53015212121212 -1.96405179907991
 8 -6.70037327792779 -4.61677664776478 -2.45978622432243
 6 -5.10309056255626 -3.59033079977998 -0.92640926172617
 6 -5.24222134973497 -4.58469367096710  0.21865901690169
 8 -5.77694187678768 -4.45112104550455  1.28255537583758
 8 -5.19501946514652 -5.88842272637264 -0.39514368576858
 6 -5.52001535073507 -6.94607819891989  0.47774530933093
 6  2.29237591919192 -5.18212447264726  0.73913189448945
 6  3.43059636973697 -4.27165866516652  1.09994127992799
 6  4.12763186688669 -3.47295711661166  0.23002537753775
 6  3.83476837413741 -3.31143433183318 -1.30314798359836
 6  5.22939714571457 -2.49316358455846  0.69396124702470
 6  6.54392999769977 -2.87346229922992  0.03519384528453
 6  7.73603272997300 -1.98015966176618  0.56495032963296
 6  9.05017362586259 -2.07391337333733 -0.12703941714171
 6  9.67097417751775 -3.46174607710771  0.06062918791879
 6  9.99681511711171 -0.94950557145715  0.51263922732273
 6  11.34708786608661 -0.90915371047105 -0.23683899449945
 6  12.21237885848585  0.32316150665067  0.23303409160916
 6  13.52629202330233  0.50504019091909 -0.55673543074307
 6  14.50701887488749 -0.63026375637564 -0.50077676287629
 6  14.07616755495549  1.82652742494249 -0.24170181258126
 6  15.35492477337734  2.22100403570357 -1.04718182588259
 6  15.97089670937094  3.52226473647365 -0.66802789578958
 6  17.35831022572257  4.05064397989799 -1.35506655445545
 6  17.16409539163917  4.14085964866487 -2.84222654265427
 6  17.68950236943694  5.38272639863986 -0.68809976697670
 1 -2.46655216111611  1.02291915551555  3.42854046524652
 1 -6.31303218611861  5.55897209940994  0.68271803450345
 1 -8.85505070417042  0.94110837233723 -3.20569595049505
 1 -3.85774283948395 -3.19269238593859  1.75833157525753
 1 -1.85063614961496 -1.04882249044905  2.61595376137614
 1 -3.20981030623062 -2.37073365426543  4.45776572247225
 1 -3.41829842994299 -0.60524264196420  4.72248838473847
 1 -4.71998367416742 -1.65772369036904  3.92282550515052
 1 -2.01402856845685 -2.92846589158916 -0.26719445404540
 1 -1.54647534723472 -1.62681130853085  0.18798964026403
 1 -0.50938532863286 -3.12170214251425  2.34571911301130
 1 -1.39419889848985 -4.35837267356736  1.88977801450145
 1 -1.68685733783378  3.15205989268927  4.20474285538554
 1 -2.60258791279128  4.88039767886789  4.54817047994799
 1 -3.32208214071407  3.36017921202120  5.27414439123912
 1 -5.25565942524252  6.66321430393039  2.21967408320832
 1 -10.15020900340034  3.13273042494249 -3.23488464306431
 1 -9.81886936983699  4.76856439093909 -2.98999199179918
 1 -9.42504826572657  3.97570547054705 -5.30183649424943
 1 -7.82321628762876  4.76949889048905 -4.54455413721372
 1 -7.90939121402140  3.03678799269927 -4.81495561026103
 1 -8.66498307990799 -0.85347860556056 -4.53237320632063
 1 -8.51561118901890 -2.62489955025503 -4.00253959785979
 1 -9.65224847394740 -1.64923155775578 -3.19201348644864
 1 -4.17492926892689 -3.84250007300730 -1.48892382248225
 1  2.25170311411141 -6.08547584068407  1.09547793569357
 1  2.25026835343534 -5.26344487088709 -0.33361879697970
 1  3.57751373377338 -4.40188031033103  2.21223958805881
 1  2.84566201810181 -3.81585314021402 -1.62804545464546
 1  3.91656899489949 -2.42530723132313 -1.56864508200820
 1  4.51002350975097 -4.21685354165417 -1.72670412771277
 1  5.05329919891989 -1.53411895649565  0.33576396749675
 1  5.33207556595660 -2.58674299149915  1.67113099939994
 1  6.84224344434443 -3.87497179667967  0.11952127382738
 1  6.50778961846185 -2.73923613961396 -1.23182286848685
 1  7.53490429202920 -1.06461301560156  0.59064781808181
 1  7.72284119431943 -2.20349859835984  1.75664313671367
 1  8.98499439903991 -1.80362840354035 -1.32418063676368
 1  8.88184034943494 -4.23948280818082 -0.28124059425943
 1  10.64901793119312 -3.60337369206921 -0.49265684758476
 1  9.79907665526553 -3.69796552515252  1.07917888088809
 1  9.51072213311331 -0.00811240084008  0.28429760416042
 1  10.22954191279128 -1.17117543684368  1.35087602490249
 1  11.96949888098810 -1.75581290299030 -0.01788109590959
 1  11.38789472967297 -0.75239687518752 -1.28841968566857
 1  11.59309932803280  1.12423549534954  0.07473026262626
 1  12.21876263496350  0.13160444374437  1.44876405150515
 1  13.16709745204520  0.72411715451545 -1.64528073287329
 1  14.77202742994299 -0.98552156945695  0.86353145064506
 1  14.01512189868987 -1.43465664456446 -0.93656991109111
 1  15.38753861036104 -0.39898322602260 -1.04225662866287
 1  13.31491073667367  2.60793909310931 -0.32077195449545
 1  14.39430704290429  1.86863327782778  0.81434026132613
 1  16.14239296639664  1.48530399189919 -0.91602941794179
 1  14.86900169566957  2.47686593799380 -2.13676720762076
 1  15.45807726982698  4.49131233893389 -0.80080136013601
 1  16.16908654255425  3.55218117751775  0.42051451025103
 1  18.23895371217122  3.38909241774177 -1.20394478237824
 1  16.27362449924992  4.87932521142114 -3.25807008590859
 1  18.08589097899790  4.52447884108411 -3.40148758235824
 1  16.80075476077608  3.17202211341134 -3.20151070427043
 1  17.74946282028203  5.57728838183818  0.42319148484849
 1  18.85571318211821  5.70462668916892 -1.15875801690169
 1  17.23951652145215  6.17340175027503 -1.10910926302630
 1 -5.32227011161116 -7.95946704610461 -0.00143445944594
 1 -6.47225771707171 -6.65125450685069  0.99420926422642
 1 -4.79955217261726 -6.75208508470847  1.53220608900890
 8 -7.83980687598760  6.84116414781478 -0.28646207460746
 1 -9.07207059085908  6.49398681438144 -1.70667913541354

