%nproc=3
%Mem=2GB
# td=(NStates=1) iop(3/107=0140000000,3/108=0140000000) iop(3/107=0140000000,3/108=0140000000) CAM-B3LYP/6-31G(d,p) 

TD

0 1
12 -5.68669440064006  1.30519054675468  0.20138280708071
 6 -5.04561468326833 -2.11018498319832 -0.33545661076108
 6 -3.37470893079308  1.12771531303130  2.78126956515651
 6 -6.17232365466547  4.53711173427343  0.52917527872787
 6 -8.01277219521952  1.25319400180018 -2.36262035593559
 7 -4.39422650715071 -0.28354427752775  1.10339050605060
 6 -4.28594381478148 -1.62315349674968  0.60492421092109
 6 -3.24640604230423 -2.34222542114211  1.51137672627263
 6 -2.89731388678868 -1.32642331203120  2.63415020162016
 6 -3.53642044204420 -0.12112126472647  2.13772443104310
 6 -3.50444255225523 -1.74790148274828  4.02709056845685
 6 -2.00800564386439 -2.67860185338534  0.58954314041404
 6 -1.07313507640764 -3.59899498739874  1.41282515941594
 6  0.27857372477248 -3.87703257535754  0.73052121322132
 8  0.52084593849385 -3.32731242004200 -0.31545156055606
 8  1.03142482468247 -4.81885703050305  1.33619960846085
 7 -4.97173572457246  2.55311554825483  1.49154584118412
 6 -4.06292037923792  2.31261927792779  2.49663488928893
 6 -3.81968250545055  3.62843292579258  3.09755870027003
 6 -4.67120287598760  4.64907337283728  2.63498938313831
 6 -5.21461082348235  3.93920859735974  1.45429058095810
 6 -2.81059968486849  3.72748983268327  4.28879274977498
 6 -4.74903760376038  6.10620065426543  2.97844328112811
 8 -4.05596808410841  6.48392322252225  3.96045001750175
 7 -6.97003865346535  2.61259919241924 -0.73605627332733
 6 -6.91406360416042  3.99231963746375 -0.47896609970997
 6 -7.97472261246125  4.63315437223722 -1.19948275737574
 6 -8.51702473527353  3.61787091719172 -2.09763431583158
 6 -7.80107391889189  2.44643281738174 -1.74348811861186
 6 -8.36124840354035  6.07205857555756 -1.22160329492949
 6 -9.54258073647365  3.77285822412241 -3.21506405500550
 6 -8.85491447214721  4.02088345144514 -4.55398864556456
 7 -6.30545631293129 -0.12604778497850 -1.02535355575558
 6 -7.40055366206621 -0.01353225882588 -2.05409133173317
 6 -7.39861297789779 -1.25484063676368 -2.74469749434944
 6 -6.58222370607061 -2.15019879317932 -2.10242945284528
 6 -5.95131305480548 -1.37859188868887 -1.03805166986699
 6 -8.48546392109211 -1.57912770137014 -3.85093601300130
 6 -6.12706633373337 -3.53617272327233 -1.99072446634663
 8 -6.43864710531053 -4.59279424952495 -2.59965021072107
 6 -4.94178443194319 -3.55692745944594 -0.95316193699370
 6 -5.17725485308531 -4.62441764336434  0.06366351735174
 8 -5.59237341994199 -4.34512044544454  1.18013513381338
 8 -5.04304426762676 -5.87120100420042 -0.37901207260726
 6 -5.29932328152815 -6.99483307440744  0.55293282808281
 6  2.25256193779378 -5.11112737293729  0.58483646494649
 6  3.40924423452345 -4.16999849914991  0.96403768956896
 6  4.04809391309131 -3.27829765066507  0.19105148014801
 6  3.76579147644764 -2.99140232863286 -1.21555922472247
 6  5.15474968096810 -2.52815708390839  0.83464531543154
 6  6.53048865356536 -2.60230518351835 -0.04013368746875
 6  7.54029315601560 -1.80050169596960  0.70489432403240
 6  8.98089669816982 -1.96944292629263 -0.04250096329633
 6  9.56229330943094 -3.37392729522952  0.06370949594959
 6  9.94414985058506 -0.95062568346835  0.43976193959396
 6  11.32578573587359 -0.81521431653165 -0.23362867346735
 6  12.26127374797480  0.28313750425043  0.23472426062606
 6  13.60647004110411  0.47422710961096 -0.49480923812381
 6  14.49813798679868 -0.69646037603760 -0.34421110631063
 6  14.27339727792779  1.89196396859686 -0.14820246264626
 6  15.50852013291329  2.14663659895990 -1.12338944664466
 6  16.13270288998900  3.39477198719872 -0.65432652565257
 6  17.36017041174117  3.80858977447745 -1.46043709150915
 6  17.11378036013602  3.98121368406841 -2.97035935593559
 6  17.92585600480048  5.14219234523452 -0.84799575657566
 1 -2.43316882278228  1.25793265686569  3.35864347554755
 1 -6.27243812671267  5.46646284848485  0.80570033273327
 1 -8.79179437853785  0.95496975847585 -3.15714109500950
 1 -3.64055112031203 -3.34189730643064  1.66653239533953
 1 -1.78791987798780 -1.22546015421542  2.73488565456546
 1 -2.87973729892989 -2.62730931183118  4.47073701960196
 1 -3.36027262736274 -0.88932104980498  4.79248538443844
 1 -4.45260693649365 -2.14364228222822  3.88355157775778
 1 -2.61617878347835 -3.34325737073707 -0.35704343894389
 1 -1.46565726542654 -1.74209283668367  0.12967380868087
 1 -0.72071646174617 -3.28541851415142  2.54643918501850
 1 -1.43436291489149 -4.67351418771877  1.57472650935094
 1 -1.74109276137614  3.23700838753875  4.02441482258226
 1 -2.60548820282028  4.90670030913091  4.60998666156616
 1 -3.22753268576858  3.11329452355236  5.10685766256626
 1 -5.13496735603560  6.83238122062206  2.31502361816182
 1 -10.09888387088709  2.79127627952795 -3.07952910751075
 1 -10.19417690059006  4.55990352485248 -2.94036702930293
 1 -9.55255101600160  4.04186208620862 -5.35750206080608
 1 -8.12624659065906  4.93409535013501 -4.49864954675468
 1 -8.12576285118512  3.12035634953495 -4.67490160486049
 1 -7.99220580218022 -1.25519877757776 -5.16960692969297
 1 -8.70590021792179 -2.79875693599360 -3.86932627652765
 1 -9.46413966306631 -1.12140877547755 -3.76817110221022
 1 -4.07925970197020 -3.58991481448145 -1.62055698579858
 1  2.45173311711171 -6.05378267136714  0.87793618151815
 1  1.83800712731273 -5.00359888628863 -0.43511894699470
 1  3.70121610401040 -4.31216133843384  2.02350071417142
 1  2.65237268916892 -3.59546110101010 -1.50907355745575
 1  3.69924726272627 -1.90754545514551 -1.33135135263526
 1  4.58981148854885 -3.51386324262426 -1.77763922122212
 1  4.68900276927693 -1.40053559815982  0.78110850195020
 1  5.17591995039504 -2.78122243944394  1.87792167846785
 1  6.71845106510651 -3.73186748624863 -0.17603828212821
 1  6.40997983748375 -2.35012722872287 -1.19580926712671
 1  7.47312811441144 -0.69048560286029  0.67824657795780
 1  7.50554946514651 -2.39937818631863  1.86469394179418
 1  8.75214111371137 -1.61699974067407 -1.16744496319632
 1  8.88724088948895 -4.04410327022702 -0.38335080528053
 1  10.49089211861186 -3.61960531523152 -0.52356993889389
 1  9.66101284888489 -3.73742947154715  1.24047501050105
 1  9.48671973287329  0.12936134653465  0.61089026342634
 1  10.09938889748975 -1.29536785608561  1.75423636093609
 1  11.88056998809881 -1.78528585028503 -0.10442975077508
 1  11.01006694689469 -0.61657329282928 -1.37326817051705
 1  11.80757077517752  1.14067713951395  0.39273206280628
 1  12.45381614031403  0.07260854415442  1.22077125222522
 1  13.38370911321132  0.47577232003200 -1.69565577037704
 1  14.72907313451345 -0.54207722502250  0.65899099659966
 1  14.30821120762076 -1.69131231013101 -0.56909316341634
 1  15.41282113861386 -0.32596592429243 -1.13074547754775
 1  13.54501374697470  2.68404670387039 -0.14767464476448
 1  14.62470008220822  1.85425183968397  0.78791761906191
 1  16.25810453755376  1.35732119361936 -1.25337315231523
 1  15.17201199669967  2.36367461886189 -2.12775630653065
 1  15.43983544564456  4.38448165586559 -0.85083636363636
 1  16.49149878377838  3.52500846024602  0.47334979377938
 1  18.07956777357736  3.01677518601860 -1.36011039893989
 1  16.55520265706571  4.90281756065607 -3.25055933483348
 1  17.91150354025402  4.40145653885388 -3.49855728932893
 1  16.84468915421542  2.99852476367637 -3.46093664686469
 1  18.45242311631163  4.97297795079508  0.22060122582258
 1  18.72245985678568  5.56246247274727 -1.60611275237524
 1  17.08962153195320  5.90795520562056 -0.82301065316532
 1 -5.05892377697770 -8.05399649904991  0.03749943394339
 1 -6.46176666796680 -6.93839322072207  0.60368021132113
 1 -4.76950916831683 -6.94411428762876  1.40207307570757
 8 -7.85827872317232  6.89413944534453 -0.47711113951395
 1 -9.33154653845384  6.44187160286029 -1.79682815031503

