%nproc=3
%Mem=2GB
# td=(NStates=1) iop(3/107=0140000000,3/108=0140000000) iop(3/107=0140000000,3/108=0140000000) CAM-B3LYP/6-31G(d,p) 

TD

0 1
12 -5.66288201940194  1.26691671937194  0.05315798459846
 6 -4.95867598939894 -2.20423438813881 -0.38517158225823
 6 -3.24593605350535  1.18388092959296  2.67526896509651
 6 -6.28817523982398  4.56319434253425  0.66586894809481
 6 -8.11064198219822  1.16111479387939 -2.27422151605160
 7 -4.32523960846085 -0.27932385548555  1.03712387938794
 6 -4.18503372377238 -1.57227840924092  0.56345006350635
 6 -3.17004840654065 -2.28686988558856  1.43856944554455
 6 -2.90215437083708 -1.32892356205621  2.54991177777778
 6 -3.50722752275228 -0.01812096469647  2.12485314391439
 6 -3.50838294629463 -1.68185487808781  3.90023788318832
 6 -1.91163600690069 -2.69261325452545  0.60969515561556
 6 -0.86036379927993 -3.45325041294129  1.41864574147415
 6  0.29185505290529 -3.91906677877788  0.58996715781578
 8  0.57466132003200 -3.63199288808881 -0.51470148554855
 8  1.09344102630263 -4.71648679347935  1.35411139963996
 7 -4.83413196419642  2.65639587628763  1.44685137173717
 6 -3.93072715991599  2.50009802580258  2.35716094189419
 6 -3.73420395759576  3.65809589208921  3.05882482688269
 6 -4.52935869156916  4.63546201170117  2.56616250045005
 6 -5.25695505790579  3.95113979047905  1.45976112801280
 6 -2.78237686258626  3.74689177287729  4.33330720122012
 6 -4.59213191319132  6.01348138233823  3.01323676047605
 8 -4.04662715001500  6.57111194139414  3.87903187568757
 7 -6.93734538413841  2.65471340384038 -0.69509217691769
 6 -7.02455465326533  4.02540294579458 -0.29345754885489
 6 -8.07733287348735  4.57593865066507 -1.04111692079208
 6 -8.60263329612961  3.61006013611361 -1.98454300670067
 6 -7.80662447394740  2.41306948104811 -1.73697746754675
 6 -8.45976825552555  5.92647401710171 -1.00637177177718
 6 -9.57039351775177  3.83626456475648 -3.04641719031903
 6 -8.94591357205721  3.99521088418842 -4.48323156985699
 7 -6.30410617791779 -0.11368654885489 -1.13769478987899
 6 -7.28932253895390  0.01025011941194 -2.09096501910191
 6 -7.59087220382038 -1.31077623032303 -2.72875590019002
 6 -6.70849633333333 -2.13833760706071 -2.06326553645365
 6 -5.92120004350435 -1.38700272977298 -1.13011087578758
 6 -8.53646902160216 -1.67765755435544 -3.72619353875388
 6 -6.18242186928693 -3.54431353735374 -2.15942133603360
 8 -6.41086432703270 -4.53984895499550 -2.86920716641664
 6 -5.11105135863586 -3.58314008070807 -1.02833945474547
 6 -5.41236836443644 -4.56812201380138  0.00925807680768
 8 -5.82373655625562 -4.42792872627263  1.21882900320032
 8 -5.13042300550055 -5.78112199629963 -0.49968413981398
 6 -5.28130147934793 -6.90536412751275  0.40728826362636
 6  2.30417709930993 -5.06930319051905  0.78300628192819
 6  3.37650096019602 -4.10309180848085  1.20196148194819
 6  4.08685778947895 -3.26238605950595  0.29524189918992
 6  3.94586948424842 -3.30011319971997 -1.19352702150215
 6  5.14610881688169 -2.25749001720172  0.69599145004500
 6  6.65253085778578 -2.66527148014801  0.22029235513551
 6  7.65863499019902 -1.69676132193219  0.69691352595260
 6  9.03145175367537 -1.96258224022402 -0.04773148634863
 6  9.46723380348035 -3.44654455695570  0.29474259925993
 6  9.99784522012201 -0.88956957785779  0.58036600000000
 6  11.44011716901690 -0.87772056715672 -0.08688399899990
 6  12.26260388098810  0.29817900840084  0.27551834003400
 6  13.59324871897190  0.37735742264226 -0.44159391659166
 6  14.44878305130513 -0.83089381938194 -0.20737742294229
 6  14.26352629082908  1.75055982818282 -0.20026766916692
 6  15.54495377627763  2.07788972427243 -1.05183229092909
 6  16.06882650235023  3.41281379137914 -0.68003909690969
 6  17.29216361106111  3.92886180168017 -1.47961900970097
 6  17.07840682278228  3.98387395009501 -3.02811513151315
 6  17.87304072327233  5.22660078607861 -1.08589954695470
 1 -2.62518802470247  1.19583644724472  3.31759937113711
 1 -6.39318020092009  5.70705690789079  0.47987775047505
 1 -9.03949914901490  1.05522978447845 -2.91299668056806
 1 -3.60139720492049 -3.22571568826883  1.79038478057806
 1 -1.72127321332133 -1.06691429962996  2.45706787278728
 1 -3.14953427862786 -2.72971955285528  4.21380132603260
 1 -3.15834243434343 -1.07201931963196  4.84280041594159
 1 -4.51821349714971 -1.69311722972297  3.58846206880688
 1 -2.27718488408841 -3.48789183418342 -0.06113384798480
 1 -1.40235093479348 -1.94467309470947  0.07196803810381
 1 -0.64204859495950 -2.80886085838584  2.16204074517452
 1 -1.23816329492949 -4.47673450975097  1.73510254695470
 1 -1.66111476357636  3.75330001670167  4.03049543064306
 1 -2.97702535653565  4.86446608570857  4.64554021692169
 1 -3.00263019551955  3.11053424752475  5.12352932973297
 1 -5.30557441674167  6.56917489999000  2.48441055685569
 1 -10.30364434693469  2.97858501040104 -2.96043719831983
 1 -10.41870935383538  4.60753828832883 -2.86520951355136
 1 -9.63912967386739  4.05637353735373 -5.45531184178418
 1 -8.22425639163916  4.73111505210521 -4.34612429422942
 1 -8.28026830173017  3.01401571547155 -4.55363947864786
 1 -8.36289287088709 -1.44417767546755 -4.83233320232023
 1 -8.39204883278328 -2.69469652995299 -3.75967531143114
 1 -9.58577182628263 -1.25561219581958 -3.54967925302530
 1 -4.06863863986399 -4.09999582258226 -1.38170310041004
 1  2.57517546134613 -6.13320061316132  1.29070745864586
 1  2.41659498609861 -5.24852337873787 -0.22298773387339
 1  3.67531351375138 -4.13726384868487  2.25624398849885
 1  2.95204265616562 -3.49146070097010 -1.59516216631663
 1  4.01199853785379 -2.20620532113211 -1.59595781328133
 1  4.85473798119812 -3.80613246954695 -1.80541199849985
 1  4.75596946594659 -1.22662820742074  0.22050244134413
 1  4.96160851925193 -2.32189650685069  1.98783266956696
 1  6.91053027302730 -3.80786508600860  0.42142146384638
 1  6.77473631313131 -2.73572578857886 -0.92173185938594
 1  7.29530033163316 -0.61466802110211  0.55306405970597
 1  7.79811872207221 -1.90779902840284  1.74216168856886
 1  8.90583648324833 -1.91966000670067 -1.14115233393339
 1  8.84129629502950 -4.41350020992099 -0.14489695989599
 1  10.47826085548555 -3.72432578727873 -0.33359094099410
 1  9.34016076367637 -3.71346707530753  1.37010797379738
 1  9.50576163706371  0.18116652705271  0.46002517691769
 1  10.16428538713871 -1.21813013231323  1.55250618791879
 1  11.75935786688669 -1.74921224292429  0.06835752795280
 1  11.39450539073907 -0.93093472897290 -1.28206905060506
 1  11.73908392649265  1.17094016581658  0.13510630023002
 1  12.58481924062406  0.31645292859286  1.34074324942494
 1  13.33094383668367  0.67648239103910 -1.58853505830583
 1  14.61743197039704 -0.87509052635264  0.79563466096610
 1  13.93165355185519 -1.75723890279028 -0.49975622972297
 1  15.54468432493249 -0.83703703140314 -0.74427683068307
 1  13.50627987358736  2.62265056425643 -0.62157203450345
 1  14.78471608380838  1.78749516401640  0.64004283158316
 1  16.40589931703170  1.12149761126113 -0.98213602860286
 1  15.44679947544754  2.02416066746675 -2.11902543344334
 1  15.35324678677868  4.28511171887189 -1.17011829182918
 1  16.38159779367937  3.52321828122812  0.43879633843384
 1  18.10349016581658  3.12069557805781 -1.33914830273027
 1  16.29573671047105  4.60879815871587 -3.00967524642464
 1  17.86878926882688  4.34150054325432 -3.53922135573557
 1  16.69522420772077  3.07600251145115 -3.50757131033103
 1  18.12482035603560  5.27738839183918 -0.05770660496050
 1  18.88233584438444  5.37303352985299 -1.69818195929593
 1  17.25861843164316  6.11782619271927 -1.25228358045805
 1 -4.92102998759876 -7.81980307970797 -0.13180749674967
 1 -6.35101559285929 -6.97085646704670  0.71659150245025
 1 -4.60485270267027 -6.98106798299830  1.17598046644665
 8 -8.01730462576258  6.88343837523752 -0.32460588898890
 1 -9.26368975277528  6.24950236593659 -1.88226669416942

