%nproc=3
%Mem=2GB
# td=(NStates=1) iop(3/107=0140000000,3/108=0140000000) iop(3/107=0140000000,3/108=0140000000) CAM-B3LYP/6-31G(d,p) 

TD

0 1
12 -5.66446217741774  1.17943797149715  0.20400306910691
 6 -4.99059918171817 -2.05332929762976 -0.41226429152915
 6 -3.35875733563356  1.24083662516252  2.76833827202720
 6 -6.36393281558156  4.57496551965197  0.68479084028403
 6 -7.95591650965097  1.15316399879988 -2.37684177807781
 7 -4.27379446394639 -0.27340326342634  1.00415058205821
 6 -4.18202342274227 -1.62226340774077  0.61080479897990
 6 -3.21165256695670 -2.25378657725773  1.45517110571057
 6 -2.86471062646265 -1.33154382408241  2.59570635723572
 6 -3.50646744674467  0.04207505490549  2.13589424802480
 6 -3.43744585258526 -1.83339003160316  3.99579743914391
 6 -1.86805164846485 -2.63791778497850  0.67095128122812
 6 -0.92863062596260 -3.51564665256526  1.51429530643064
 6  0.30888675607561 -4.00072494459446  0.66821498259826
 8  0.49924377827783 -3.57498718751875 -0.45628564396440
 8  1.12409409160916 -4.75461060586059  1.38843483198320
 7 -4.98317686868687  2.60556079277928  1.47790447704770
 6 -4.09046313351335  2.45920393639364  2.62522774857486
 6 -3.77252778997900  3.65479556205621  3.29257820222022
 6 -4.64059981568157  4.67458592409241  2.68076396059606
 6 -5.28879824222422  3.95131980848085  1.50625577747775
 6 -2.89949857475748  3.76691377507751  4.43307717821782
 6 -4.76591929192919  6.15233526772677  2.99010444724472
 8 -4.21364385168517  6.62415724592459  3.88963293579358
 7 -6.90493214281428  2.63205113761376 -0.72874554225423
 6 -7.01928412621262  3.89749015451545 -0.33742194529453
 6 -7.99783492369237  4.57044810161016 -1.20656346544654
 6 -8.43365639843984  3.62736186628663 -2.01776632903290
 6 -7.72266607810781  2.43115128922892 -1.74643841364136
 6 -8.40140241894190  5.91114248394839 -1.09054018861886
 6 -9.49320579897990  3.81898283658366 -3.22510505910591
 6 -8.83912289298930  4.07711907500750 -4.51944519121912
 7 -6.31072683998400 -0.03830901110111 -1.15265628602860
 6 -7.27956156285629 -0.05139604520452 -2.17652357495750
 6 -7.44509762636264 -1.28472362506251 -2.76897992259226
 6 -6.53738922262226 -2.14193796709671 -2.08602781268127
 6 -5.88679660316032 -1.33959798929893 -1.13485134983498
 6 -8.34956033073307 -1.69181897049705 -3.98768968836884
 6 -6.09735336243624 -3.49113821982198 -2.11790718461846
 8 -6.44079732033203 -4.45306027612761 -2.73603384908491
 6 -4.98682893639364 -3.54903667036704 -0.97555417621762
 6 -5.27655478307831 -4.67898309990999  0.01064821582158
 8 -5.65980016261626 -4.35095102850285  1.11943906420642
 8 -5.01253121632163 -5.82520640474047 -0.38699287068707
 6 -5.34499784898490 -6.84262785388539  0.52432996779678
 6  2.35933261486149 -5.12908916911691  0.68027600890089
 6  3.46257956805681 -4.13246474577458  1.09257054285429
 6  4.08493759745975 -3.27612743364336  0.22753512851285
 6  3.77332222952295 -3.27862105050505 -1.31446911571157
 6  5.10371457745775 -2.39060332853285  0.77973982488249
 6  6.43004860956096 -2.81668662166217  0.17004733063306
 6  7.56386551325133 -1.81257290309031  0.64064789938994
 6  8.97668627712771 -2.00949693169317 -0.04509122232223
 6  9.52610969106911 -3.35738564106411  0.17419054405441
 6  9.95939137473747 -0.88858947984798  0.46221418481848
 6  11.32852600990099 -0.83713650875088 -0.21285659625963
 6  12.17786540714071  0.33229241974197  0.06800758895890
 6  13.58753814791479  0.46566625352535 -0.61070082728273
 6  14.48023619661966 -0.73096382638264 -0.27617430263026
 6  14.15427536573657  1.82918769096910 -0.14456209860986
 6  15.37528680958096  2.20646258155816 -0.93325043274327
 6  16.03377299699970  3.49317182718272 -0.63671476447645
 6  17.29986438113811  3.81769068456846 -1.49668071587159
 6  16.86995597769777  3.83070863356336 -2.98810113011301
 6  17.99426284548455  5.07728585458546 -1.07232818981898
 1 -2.76419192509251  1.15586244984498  3.65560317151715
 1 -6.63789467236724  5.60205640784078  0.91641140384038
 1 -8.46979217831783  1.09193345484548 -3.21423680458046
 1 -3.72236930213021 -3.16405952265227  1.84864060616062
 1 -1.70164125012501 -1.21034864306431  2.93158532453245
 1 -2.70737006220622 -2.68553513441344  4.37122706860686
 1 -3.18292489258926 -1.18375049274928  4.90800693659366
 1 -4.62147382318232 -2.15566348434843  3.99422264486449
 1 -2.17956512211221 -3.06765981098110 -0.19762749734973
 1 -1.29682038173817 -1.63813244064406  0.47806864816482
 1 -0.35394978507851 -3.08537851015102  2.36812135323532
 1 -1.52690216881688 -4.21783862016202  1.98342737943794
 1 -2.00450910301030  3.68365305200520  4.10131251235123
 1 -3.01406906090609  4.82427206630663  5.04776043894389
 1 -3.27985791829183  2.79793298739874  5.09765674247425
 1 -5.36544040334033  6.61720970347035  2.19294140994099
 1 -10.08338232073207  2.97956510841084 -3.13279443404341
 1 -10.10230771367137  4.71670920542054 -3.09430242284228
 1 -9.70566632753275  4.06149404940494 -5.28134444504450
 1 -8.17437140314031  4.93535547614761 -4.44585426722672
 1 -8.27704797969797  3.25478979287929 -4.85259937463746
 1 -8.19448603020302 -1.04886814451445 -5.05111508050805
 1 -8.47051667956796 -2.89611667196720 -4.32937228112811
 1 -9.36596984608461 -1.55127176177618 -3.68427271237124
 1 -4.23725550155016 -3.65376119911991 -1.45581051115111
 1  2.60930887468747 -6.14756204930493  1.01182957085709
 1  2.13593692029203 -4.99600812721272 -0.56300173527353
 1  3.79938592099210 -4.16401652395240  2.17139550365037
 1  2.81271872377238 -3.40565212011201 -1.41136378647865
 1  4.14187152515252 -2.24609931053105 -1.39774799229923
 1  4.39368187558756 -3.97849970627063 -1.81067252455246
 1  4.97807167616762 -1.39229477407741  0.45830622172217
 1  5.36768912731273 -2.21829614681468  1.83258714501450
 1  6.58613783378338 -3.76011031053105  0.27872719441944
 1  6.45348418791879 -2.77166938293829 -0.91677136333633
 1  7.38729953155316 -0.62568912321232  0.32368112141214
 1  7.68008691889189 -1.89716796529653  1.70828830123012
 1  9.07512341194120 -2.00928896959696 -1.19607782648265
 1  8.79436160156016 -4.19059791969197 -0.04770724092409
 1  10.42922595199520 -3.53232658735874 -0.52150973287329
 1  10.05850259785979 -3.51186691529153  1.17496845984598
 1  9.49026008690869  0.03333174357436  0.46466564096410
 1  10.16967592619262 -0.77774609390939  1.61568250555056
 1  11.77729966106611 -1.62954027572757 -0.22819212701270
 1  10.99138507870787 -0.79446108160816 -1.25466631033103
 1  11.31152117021702  1.18781185298530 -0.03232044244424
 1  12.59439019771977  0.23623490679068  1.04223339843984
 1  13.33532427472747  0.46302104490449 -1.72699890469047
 1  14.75749597679768 -0.82371538883888  0.70512561006101
 1  14.18244863136314 -1.87031020992099 -0.69116537063706
 1  15.45034489098910 -0.58013134083408 -0.77798020102010
 1  13.40341958755875  2.47692599179918 -0.51800167746775
 1  14.23567117931793  1.95557197169717  1.02179100640064
 1  16.33352207930793  1.60934639613961 -0.94982279727973
 1  15.21615641114111  2.38663691509151 -1.96985051595160
 1  15.32577403950395  4.21486469416942 -0.86874815481548
 1  16.25116475037504  3.68328428782878  0.41730418921892
 1  18.01091090789079  3.01167467596760 -1.38754314221422
 1  15.99097623442344  4.64235151405140 -3.19577385628563
 1  17.63412580248025  4.09806619981998 -3.41603903750375
 1  16.59900458575857  2.79008391959196 -3.40012056525653
 1  18.40675854985498  4.75170582358236 -0.02742357665767
 1  18.92343995479548  5.25443166966697 -1.78995113621362
 1  17.43569613941394  5.96104051415142 -1.21026937903790
 1 -5.28960684528453 -7.82238333773377 -0.08498281428143
 1 -6.32926341764176 -6.80338972037204  0.97055689898990
 1 -4.47016923432343 -6.51653152935294  1.43497636603660
 8 -7.81257415271527  6.83782381378138 -0.43064649304930
 1 -9.34906829062906  6.26673408910891 -1.46332479998000

