%nproc=3
%Mem=2GB
# td=(NStates=1) iop(3/107=0140000000,3/108=0140000000) iop(3/107=0140000000,3/108=0140000000) CAM-B3LYP/6-31G(d,p) 

TD

0 1
12 -5.56854258545855  1.28953898159816  0.18844151295130
 6 -5.07167728952895 -2.11114507920792 -0.26544961006101
 6 -3.38634009390939  1.07810035153515  2.87284872307231
 6 -6.13447987028703  4.54633265636564  0.63802616381638
 6 -7.94201511951195  1.21392007440744 -2.38298239213921
 7 -4.32547963246325 -0.35115103820382  1.05705587258726
 6 -4.26375159555956 -1.64023520492049  0.68349206770677
 6 -3.27937933963396 -2.42354355295530  1.54969055765577
 6 -3.08358251365137 -1.46876754645465  2.69704649124912
 6 -3.59487628762876 -0.05580473307331  2.16468712731273
 6 -3.71070317831783 -1.78600529312931  4.10834869426943
 6 -1.92135697899790 -2.73194718791879  0.64723890999100
 6 -1.06193395629563 -3.74902999089909  1.41222509940994
 6  0.28186405380538 -3.92332720482048  0.78947710881088
 8  0.43453730763076 -3.48845853465347 -0.38766878227823
 8  1.11610329252925 -4.65964110891089  1.37858384688469
 7 -4.89622817381738  2.64966520322032  1.40523721032103
 6 -3.97129121632163  2.41106912291229  2.41280650645064
 6 -3.78219875707571  3.60968105060506  3.15031397579758
 6 -4.48072382808281  4.52292075757576  2.54239012321232
 6 -5.18709807220722  4.00191486798680  1.46907205910591
 6 -2.78740736563656  3.64342142584258  4.40666453695370
 6 -4.47963066306631  6.01547158135814  2.94827026382638
 8 -3.95317780508051  6.55928075827583  3.88188216071607
 7 -6.80619226882688  2.67992592509251 -0.72052472017202
 6 -6.86960915871587  3.98312871837184 -0.45502370547055
 6 -7.82268740894089  4.61411246804680 -1.24436724582458
 6 -8.39896292909291  3.68561769186919 -2.12583713611361
 6 -7.77722153365337  2.46624479857986 -1.77605137493749
 6 -8.36690896959696  6.07042841254125 -1.12641377597760
 6 -9.41664814321432  3.82933387168717 -3.22646519511951
 6 -8.68538751945194  3.92577394049405 -4.67397064376438
 7 -6.38946471377138 -0.12850803100310 -1.09101012141214
 6 -7.42003561026103 -0.04199510511051 -2.02461838443844
 6 -7.61709482608261 -1.33503865656566 -2.70006303090309
 6 -6.74142962666267 -2.19248302160216 -2.01457066696670
 6 -6.02967089058906 -1.46065009450945 -1.04208207290729
 6 -8.57330270497050 -1.74523431203120 -3.75736665606561
 6 -6.30234386148615 -3.54984409040904 -1.97737313121312
 8 -6.68648188878888 -4.48840381048105 -2.59924016971697
 6 -5.09703995749575 -3.59553131983198 -0.89458607940794
 6 -5.32755988358836 -4.67060226182618  0.16891404240424
 8 -5.85674985758576 -4.53740967436744  1.29679679998000
 8 -5.08952891609161 -5.94606849094910 -0.35084925632563
 6 -5.49589293849385 -6.97864145524552  0.51416895169517
 6  2.33443012461246 -4.92718897909791  0.59660764206421
 6  3.49997330743074 -4.04035553485348  0.95009629542954
 6  4.10884998869887 -3.14366418731873  0.01131350635063
 6  3.63247814511451 -3.18386157455746 -1.38864653345335
 6  5.21589579557956 -2.31379564776478  0.53608545944594
 6  6.52236784148415 -2.59469442244224 -0.08359803390339
 6  7.67971709840984 -1.63788543434343  0.51009484408441
 6  9.07286589508951 -1.85816179817982 -0.12414912811281
 6  9.54909198929893 -3.30092999549955 -0.00675755075508
 6  10.02710814641464 -0.91334195509551  0.43294125752575
 6  11.45001815911591 -0.85200799589959 -0.34039935053505
 6  12.28035565616562  0.31647083758376  0.21920270847085
 6  13.64962435653565  0.45886557345735 -0.52986274347435
 6  14.53219139213921 -0.73804453445345 -0.28176486168617
 6  14.30209014721472  1.75981075327533 -0.13993163556356
 6  15.59800908180818  2.15361729702970 -0.92127923562356
 6  16.00828044774477  3.54131664166417 -0.57760885388539
 6  17.30892528722872  3.93603251875188 -1.35225627342734
 6  17.09584856695670  4.00999656235624 -2.81851417141714
 6  17.83756717591759  5.19926805280528 -0.79151010801080
 1 -2.66668217411741  1.10339720332033  3.46233384458446
 1 -6.28456933983398  5.55799200140014  0.85100486318632
 1 -8.70412561166117  1.29997425892589 -3.16609199009901
 1 -4.03592065726573 -3.27052016871687  1.69756549864987
 1 -2.03285437143714 -1.25354296249625  2.66895906190619
 1 -3.60900022522252 -2.75124170507051  4.61648159405941
 1 -3.28304490459046 -1.04435655335534  4.79551568746875
 1 -4.78209988578858 -1.67304522252225  3.98743196579658
 1 -2.14786195179518 -3.30643368836884 -0.33516125072507
 1 -1.43473417311731 -1.80026865426543  0.32022286358636
 1 -0.88853324342434 -3.25540551285129  2.48207274837484
 1 -1.49928940754075 -4.87772460876088  1.58965800250025
 1 -1.66050470257026  3.51179586628663  4.15094747584758
 1 -2.85028268226823  4.77205684478448  4.62690835373537
 1 -3.13433336583658  3.13084627872787  5.06889386618662
 1 -5.13192705200520  6.56790477297730  2.25097721352135
 1 -10.15233921642164  2.93159031093109 -3.41932308690869
 1 -10.00146762966297  4.75372290679068 -3.07859085168517
 1 -9.41503726462646  4.40593849384938 -5.45173148374838
 1 -8.01704567056706  4.83247518811881 -4.85282496429643
 1 -8.19414968986899  3.08812312621262 -4.82088620332033
 1 -8.05366194779478 -1.25844910261026 -4.66058602760276
 1 -8.52887251515151 -2.75085214551455 -3.98932827672767
 1 -9.56474972407241 -1.59790642524252 -3.36313059815982
 1 -4.16000777677768 -3.97910373337334 -1.63521845194520
 1  2.34905284908491 -5.99702699579958  1.01706009390939
 1  2.13626695329533 -5.01191971837184 -0.49396483158316
 1  3.70027601000100 -3.94633475577558  1.87750611471147
 1  2.53643109500950 -3.36974852975298 -1.25924857495750
 1  3.60900823882388 -2.18601330193019 -1.64132234973497
 1  4.45312782018202 -3.73844570087009 -2.08682013931393
 1  4.90543441244125 -1.23065861046105  0.44566495759576
 1  5.32890524892489 -2.57599191639164  1.60369425572557
 1  6.71778099809981 -3.64588888838884 -0.01848252655266
 1  6.54850368986899 -2.43267548354835 -1.18786847304730
 1  7.52339314091409 -0.53914046834683  0.48071682498250
 1  7.73761267146715 -1.76033428192819  1.61209868226823
 1  8.80625652525253 -1.60463850455046 -1.32424064276428
 1  8.89138130353035 -3.97360622052205 -0.57404987518752
 1  10.53012604200420 -3.53208656335634 -0.66706428832883
 1  9.72028877647765 -3.70613634223422  1.10774173717372
 1  9.88500956185618  0.12713112351235  0.41782095649565
 1  10.22513147174717 -0.94892321162116  1.64185512281228
 1  11.97141907300730 -1.73813113481348 -0.08011731953195
 1  11.28896483668367 -0.64290592609261 -1.60175101880188
 1  11.90335035313531  1.36644971677168  0.19903269286929
 1  12.41073183188319  0.17006829012901  1.33706288138814
 1  13.31561230353035  0.62247699049905 -1.48272447724772
 1  14.83213344054406 -0.91931494879488  0.65923102060206
 1  13.88571895839584 -1.60567374627463 -0.56354260836084
 1  15.40145000150015 -0.90100342804280 -1.00988339133913
 1  13.57332657825783  2.41484978417842 -0.31342121942194
 1  14.66335394759476  1.74168058255826  0.91754058135814
 1  16.52419114621462  1.47622308380838 -0.73672148714872
 1  15.26072086758676  2.02220047144714 -1.99357288818882
 1  15.14534599669967  4.28540174787479 -0.93503478347835
 1  16.10142977687769  3.78202416181618  0.33753621242124
 1  18.10459027582758  3.17242075057506 -1.19258364626463
 1  16.28946608340834  4.52455973487349 -2.98570284918492
 1  17.92181457135714  4.29789618281828 -3.52502993659366
 1  16.65407009230923  2.98224313551355 -3.02777333053305
 1  17.92312018601860  5.17381803480348  0.04009317501750
 1  18.84054166496650  5.67438366486649 -1.44376651775178
 1  17.23908647844785  5.98510292039204 -0.90338869096910
 1 -5.12529041364136 -7.75062616201620 -0.02115643164316
 1 -6.54623511481148 -7.34719410081008  0.63944378767877
 1 -5.03272548994900 -6.97178705490549  1.49546241464146
 8 -7.84850774607461  6.97599763116312 -0.53859728812881
 1 -9.22438582238224  6.10199761546155 -1.98034650215021

