%nproc=3
%Mem=2GB
# td=(NStates=1) iop(3/107=0140000000,3/108=0140000000) iop(3/107=0140000000,3/108=0140000000) CAM-B3LYP/6-31G(d,p) 

TD

0 1
12 -5.50277600880088  1.27675770347035  0.16974964376438
 6 -5.00820094189419 -2.09380334503450 -0.32267533263326
 6 -3.22871433133313  1.29809235073507  2.67954939313931
 6 -6.10092651495150  4.66537456055606  0.64555691689169
 6 -7.83028394639464  1.20811949434944 -2.41782587648765
 7 -4.30789787428743 -0.18575449854985  0.98170833783378
 6 -4.23931915231523 -1.61238241964196  0.68996271477148
 6 -3.19491089278928 -2.27146834543454  1.49245483408341
 6 -2.89717387278728 -1.35017568726873  2.63234002060206
 6 -3.51602840284028 -0.03994314691469  2.14256491509151
 6 -3.47183929192919 -1.96008270087009  3.92816067546755
 6 -1.93528837213721 -2.79160315351535  0.60330451655166
 6 -0.99119688258826 -3.64739982788279  1.41788566546655
 6  0.24635050245025 -3.99075394749475  0.58523668476848
 8  0.46865071897190 -3.78743843264326 -0.54950496589659
 8  1.03353503570357 -4.82124726952695  1.27517350585059
 7 -4.83468201920192  2.69261949864986  1.54604129072907
 6 -3.83139722692269  2.41924994099410  2.43431865766577
 6 -3.68413895109511  3.67832791529153  3.18394733913391
 6 -4.43040879657966  4.65225369086909  2.57243312751275
 6 -5.13290265266527  4.01975665216522  1.53788894079408
 6 -2.68695732063206  3.85733281698170  4.34069794029403
 6 -4.53642634263426  6.07788782298230  2.86825226202620
 8 -3.83163565086509  6.68024285448545  3.75505947844784
 7 -6.78802045164516  2.61722965546555 -0.66395906360636
 6 -6.86643884168417  3.95766617211721 -0.35425362846285
 6 -7.83895903610361  4.62409346614661 -1.25498830793079
 6 -8.36841987478748  3.66761589168917 -2.06074062646265
 6 -7.60116392789279  2.41124929902990 -1.75045881568157
 6 -8.37098937763776  5.98006937663766 -1.18944007860786
 6 -9.30488696709671  3.78961990029003 -3.12589513811381
 6 -8.87438641934193  3.86891825492549 -4.55339858655866
 7 -6.26383215051505 -0.13481866206621 -1.14940596099610
 6 -7.23274688138814 -0.05251615721572 -2.16725264786479
 6 -7.59352246884688 -1.34662981568157 -2.66907993259326
 6 -6.66869235293529 -2.20016378967897 -2.02484169406941
 6 -6.00215813931393 -1.39107313681368 -1.15971383608361
 6 -8.62723809850985 -1.62551233983398 -3.74627554695470
 6 -6.14601822892289 -3.53550265626563 -2.03108850275027
 8 -6.61419466006601 -4.47114208430843 -2.70674091979198
 6 -5.02137239073907 -3.52968473517352 -0.93053967476748
 6 -5.28669579717972 -4.57895309690969  0.26396354735474
 8 -5.72885706830683 -4.31920785418542  1.32843996429643
 8 -5.11447141034103 -5.79545342944294 -0.26757092849285
 6 -5.42366571577158 -6.89177276837684  0.62744027882788
 6  2.27848453005301 -5.24817107730773  0.71945992729273
 6  3.44997830793079 -4.28778027732773  0.93094438023802
 6  3.96687579127913 -3.36415623652365  0.09406178117812
 6  3.71682657995800 -3.12814600300030 -1.34939260806081
 6  5.10553475947595 -2.47421168936894  0.61892374327433
 6  6.54571017571757 -2.77152210521052  0.10364068996900
 6  7.55800492719272 -1.82135378117812  0.56586042064206
 6  8.94750335883588 -2.01711769376938 -0.00477719091909
 6  9.58217529762976 -3.47484738723872  0.23158628362836
 6  9.86366180178018 -0.91399202010201  0.38019598299830
 6  11.24668782608261 -0.85507830293029 -0.30009532013201
 6  12.11416903750375  0.34404359485949  0.12644343254325
 6  13.41746114021402  0.47789747664766 -0.66826658385839
 6  14.29659783278328 -0.72535326532653 -0.51708839403940
 6  14.12732267046705  1.74800957315732 -0.16975461786179
 6  15.49668894979498  2.11808374367437 -0.99534664236424
 6  15.82877249694969  3.62425493549355 -0.49976106910691
 6  17.13573796849685  4.10664958045805 -1.29882092989299
 6  16.91086006810681  4.20851641434143 -2.76123844384438
 6  17.59009242844284  5.38276640264026 -0.64771572857286
 1 -2.48610411631163  1.33119998359836  3.34866247744774
 1 -6.45336621952195  5.72223842604260  0.77819758245825
 1 -8.66325152425243  1.10513477497750 -3.10518589948995
 1 -3.70742780798080 -3.12847596429643  1.87621336343634
 1 -1.88618970497050 -1.13978158635864  2.74642680868087
 1 -2.81168049324932 -2.88188476937694  4.25023496939694
 1 -3.54569116921692 -1.07642976067607  4.68899503540354
 1 -4.47470914671467 -2.24086200420042  3.62543576617662
 1 -2.27668483408341 -3.48251129612961 -0.19689742434243
 1 -1.58076877657766 -1.97435606300630  0.04210505180518
 1 -0.55699008910891 -3.10712068436844  2.33183772487249
 1 -1.56268574717472 -4.65648248454845  1.74613365006501
 1 -1.57786643874387  3.55706039273927  4.07048943004300
 1 -2.96848450245025  4.83757339643964  4.76718238113811
 1 -3.15938587108711  3.27506070017002  5.10760773757376
 1 -5.34416827612761  6.61410939343934  2.15127724352435
 1 -10.09042302480248  2.97703485538554 -3.11917307190719
 1 -9.87302478537854  4.76981451595159 -2.86852984558456
 1 -9.68729449034904  3.70198809880988 -5.28389470007001
 1 -8.07045101110111  4.65537747834783 -4.96471615341534
 1 -8.29511978687869  2.84255856975698 -4.79448356305631
 1 -8.65013159475948 -1.00253351105111 -4.66632660166017
 1 -8.35118474637464 -2.82088914921492 -4.03511285518552
 1 -9.58264151325132 -1.54905153975398 -3.17844212931293
 1 -4.06544832083208 -3.69257508050805 -1.48517344744474
 1  2.55311325512551 -6.17507480058006  1.19635802370237
 1  2.10670399699970 -5.32909143554356 -0.31907734283428
 1  3.69874585698570 -4.53238336063606  1.94085244934493
 1  2.73114056595660 -3.38522007690769 -1.62095474557456
 1  3.71836917491749 -2.18554325492549 -1.67584580208021
 1  4.26164867226723 -3.80622247854785 -1.81579303660366
 1  5.04139800880088 -1.43395894049405  0.39331972307231
 1  5.26259861826183 -2.59037335453545  1.71141502780278
 1  6.69313853385338 -3.92087638713871  0.28985830753075
 1  6.64536337583758 -2.65851806780678 -1.00898058425843
 1  6.97009781138114 -0.78784533883388  0.43936268956896
 1  7.50599951015101 -1.94873312181218  1.64942241464146
 1  8.95571147074708 -1.79774781548155 -1.05070328902890
 1  9.17732989838984 -4.29583844374437 -0.26259873007301
 1  10.66843987338734 -3.64113746844684 -0.29523710561056
 1  9.61143789138914 -3.90672640124012  1.27270823382338
 1  9.31519258015802 -0.02221381098110  0.41424059845985
 1  10.06398535713571 -0.93553187248725  1.62107304460446
 1  11.72124405550555 -1.76383370507051 -0.29206851465147
 1  10.95723166336634 -0.71862349784979 -1.25057590129013
 1  11.23469348744874  1.24747781958196  0.19533232283228
 1  12.34008476717672  0.38714999829983  0.97095627072707
 1  13.31722246454645  0.80770551335134 -1.79766597139714
 1  14.54149437663767 -1.05388840614061  0.50798589608961
 1  13.90928131463146 -1.63022620152015 -0.92859911401140
 1  15.39597945444544 -0.64906823452345 -0.96009841284128
 1  13.46632587818782  2.55694399359936 -0.21203108040804
 1  14.38532614481448  1.89550596509651  0.84604343164316
 1  16.32813154025402  1.54049951145115 -0.60494830983098
 1  15.25342013751375  2.04383263466347 -1.94840837173717
 1  14.99108057015702  4.24798800650065 -1.00368164816482
 1  15.99990962486248  3.77842380178018  0.58545100390039
 1  17.84509432623262  3.35255876437644 -1.05813020092009
 1  16.38486562336233  4.97263454235424 -3.07997227612761
 1  17.99243163306330  4.36890328352835 -3.38805623922392
 1  16.58428311361136  3.31027593879388 -3.27632818601860
 1  18.09730760476048  5.17177783078308  0.41119028472847
 1  18.39811742254225  5.96908313481348 -1.25272741384138
 1  16.78821139093909  6.05331974207421 -0.69113746584658
 1 -5.24934281888189 -7.55048614801480 -0.08503281928193
 1 -6.48852934423442 -6.90318970037004  0.77170701400140
 1 -4.73041525892589 -6.58595847204720  1.55164803320332
 8 -7.84712760806081  6.81263129452945 -0.40860428882888
 1 -9.19898328212821  6.27021443714372 -1.77373584108411

