%nproc=3
%Mem=2GB
# td=(NStates=1) iop(3/107=0140000000,3/108=0140000000) iop(3/107=0140000000,3/108=0140000000) CAM-B3LYP/6-31G(d,p) 

TD

0 1
12 -5.46524225542554  1.23866389408941  0.11575424422442
 6 -4.96229635143514 -2.01430539523952 -0.40071313641364
 6 -3.40214167406741  1.26646918841884  2.87158859705971
 6 -6.14314073637364  4.55416343944394  0.54271663286329
 6 -7.95815673367337  1.09710839323932 -2.48645273917392
 7 -4.38066515101510 -0.28855477857786  1.09372953995400
 6 -4.31042626302630 -1.57462864426443  0.66152987148715
 6 -3.26691809350935 -2.29234043264326  1.55512110071007
 6 -2.89744389978998 -1.23246391609161  2.60245703230323
 6 -3.52553935393539  0.00496134353435  2.18414907350735
 6 -3.40019212721272 -1.70363705630563  4.00233809320932
 6 -1.98927377067707 -2.65557955115512  0.67770195629563
 6 -1.03327109000900 -3.58928401630163  1.34769864676468
 6  0.28175404280428 -3.90345521762176  0.58461662276228
 8  0.58111196509651 -3.40486017481748 -0.48747876327633
 8  0.99721140334033 -4.77955310011001  1.24604059255926
 7 -4.86879543054305  2.67697793449345  1.40186687328733
 6 -4.01348543574357  2.46622463846385  2.48763398919892
 6 -3.83236377357736  3.69471955445545  3.20767971237124
 6 -4.52069782548255  4.65219368486849  2.57135301950195
 6 -5.19240860326033  3.93076775327533  1.39517466936694
 6 -2.93368199309931  3.86390347404740  4.36366023652365
 6 -4.74614731473147  6.03040307450745  2.96312174897490
 8 -4.10609309660966  6.42901773197320  3.95358933143314
 7 -6.80746239583958  2.56934486698670 -0.71044371207121
 6 -6.92169436723672  3.91965237073707 -0.44357256035604
 6 -7.92198733893389  4.61375243204320 -1.21516432553255
 6 -8.46763979677968  3.63606273637364 -2.08333288568857
 6 -7.67978178967897  2.36548472257226 -1.82778654845485
 6 -8.34098637733774  5.98436980668067 -1.21503263786379
 6 -9.43851032943294  3.72208314661466 -3.15299784838484
 6 -8.78831781248125  3.88500986408641 -4.51993524022402
 7 -6.29135490279028 -0.05275045524552 -1.17278829922992
 6 -7.35246885358536 -0.03437434303430 -2.07367328992899
 6 -7.51670478707871 -1.34488964166417 -2.68683170777078
 6 -6.49148463216322 -2.16101987528753 -2.16134534443444
 6 -5.90957888138814 -1.34453848334833 -1.17520538523852
 6 -8.50421579627963 -1.58113790239024 -3.73278419781978
 6 -6.09466309340934 -3.51388049404941 -1.98245363926393
 8 -6.40673391399140 -4.48657362746275 -2.52080232593259
 6 -4.96201645514551 -3.47904967166717 -0.83558017881788
 6 -5.29810693829383 -4.53745894749475  0.28989614061406
 8 -5.71163534613461 -4.37093302670267  1.36136325662566
 8 -5.11616157935794 -5.73276716081608 -0.28029220062006
 6 -5.39009235843584 -6.91170476157616  0.55652318711871
 6  2.19759644124412 -5.17616387658766  0.66230421172117
 6  3.28012132223222 -4.17926942624262  0.95595688148815
 6  3.99441854555456 -3.35567538843884  0.14443681868187
 6  3.69569446674667 -3.20953414181418 -1.34085175397540
 6  5.13112731873187 -2.48559282748275  0.60787263816382
 6  6.55042064676468 -2.76097105010501 -0.03896357045705
 6  7.54288341504150 -1.80724237003700  0.50333416801680
 6  8.97746635513551 -2.11260724272427 -0.12276899009901
 6  9.54315139523952 -3.50367026952695  0.06725985098510
 6  9.93648908450845 -1.02756337723772  0.44045200860086
 6  11.40726388368837 -1.01048384348435 -0.26985229582958
 6  12.28662628322832  0.22534172467247  0.29413020122012
 6  13.55762515661566  0.41590127702770 -0.58265802300230
 6  14.58424659765977 -0.80067079707971 -0.58018470367037
 6  14.29173911211121  1.69722449464947 -0.10805844824482
 6  15.40044932583258  2.26988892419242 -1.01073818151815
 6  15.98908852855285  3.57635014501450 -0.58476956995700
 6  17.24088848354835  4.04473338883888 -1.27006805460546
 6  16.89812879497950  4.19044460716072 -2.76919923992399
 6  17.70887430663066  5.33040116611661 -0.86609756675668
 1 -2.86359186508651  1.21798866246625  3.72288990019002
 1 -6.29094997789779  5.62675887808781  0.66370613331333
 1 -8.75493069216922  1.09217347884788 -3.15067044794479
 1 -3.67877494269427 -3.23748686538654  2.03819956205621
 1 -1.97792887888789 -0.83337094529453  2.85567773377338
 1 -2.92136146134613 -2.63666024692469  4.13887383328333
 1 -3.20794739483948 -1.12557467516752  4.81242737863786
 1 -4.51819349514952 -1.83281119911991  3.95478870147015
 1 -2.16937410301030 -3.24958800380038 -0.26526426102610
 1 -1.48364906460646 -1.68351697909791  0.30420126142614
 1 -0.50780517061706 -3.14456442874287  2.35986052715272
 1 -1.36132561116112 -4.64993182948295  1.66830586728673
 1 -1.81787043914391  3.44753944064406  4.28474085518552
 1 -2.91613926792679  4.93428306740674  4.50323598649865
 1 -3.46651658415842  3.29649284338434  5.26200317711771
 1 -5.53503736303630  6.80887887038704  2.47864998079808
 1 -10.07610159265927  2.85758291019102 -3.01167232183218
 1 -10.24138162106211  4.40279781428143 -2.84583757635764
 1 -9.64628038893889  4.02267016701670 -5.33098940954095
 1 -7.96039000500050  4.77032897349735 -4.45549523132313
 1 -8.21068134303430  2.88194250815082 -4.63890800550055
 1 -8.07408398999900 -1.06408966666667 -4.73009297829783
 1 -8.79445907380738 -2.58810587088709 -4.11865120902090
 1 -9.48251150025003 -1.11044767936794 -3.58328261336134
 1 -4.11951372737274 -4.03974979797980 -1.43057798789879
 1  2.65365330913091 -6.15115240834083  1.07898628652865
 1  2.16011933853385 -5.17751627802780 -0.37419285438544
 1  3.73454943734373 -4.32624274657466  1.95654401850185
 1  2.65906335823582 -3.45529708460846 -1.60425307540754
 1  3.92575991399140 -2.20305500610061 -1.72023024052405
 1  4.42224473187319 -3.83698555485549 -1.62998445574557
 1  4.53896776577658 -1.56374191879188  0.48389878097810
 1  5.36131849024902 -2.70201451865186  1.76790067636764
 1  6.95868508850885 -3.84591889138914  0.32072139383938
 1  6.45569440894089 -2.97639985598560 -1.18763845004500
 1  7.30284108570857 -0.94999155345535  0.38376713001300
 1  7.52262117231723 -1.95865411391139  1.64494196659666
 1  9.05953185278528 -1.79056709740974 -1.19111733043304
 1  8.91328349374938 -4.22267112701270 -0.32133460366037
 1  10.60955398479848 -3.72542589728973 -0.29827740964096
 1  9.60453720132013 -3.75739146774677  1.13085404840484
 1  9.45043610451045 -0.10705229482948  0.42110128452845
 1  10.41199015761576 -1.28767708700870  1.58314925222522
 1  11.88171010211021 -2.00262758445845 -0.25275458325833
 1  11.15502144234423 -0.91251288678868 -1.41215205890589
 1  11.79042906100610  0.99830290209021  0.48063085268527
 1  12.53230398909891  0.05278656195620  1.40982015711571
 1  13.06152689498950  0.58836357915792 -1.67629383418342
 1  14.86057628482848 -0.90608362566257  0.51720681818182
 1  13.98337872437244 -1.85457863676368 -0.68370462456246
 1  15.53076293279328 -0.66640996869687 -1.12783518651865
 1  13.52661190679068  2.41464976417642 -0.27987786508651
 1  14.67699531173117  1.66996341084108  0.93371219851985
 1  16.16553528062806  1.52782824432443 -0.96422423742374
 1  15.01538633413341  2.15948419981998 -2.11889542044204
 1  15.33251471357136  4.35220842854285 -0.76771805180518
 1  16.11104073797379  3.46560251965197  0.56194865366537
 1  18.06577639443945  3.25585909440944 -1.33505789368937
 1  15.94921205800580  4.84653193209321 -2.99935421432143
 1  17.82129451935193  4.36817321052105 -3.35183261686169
 1  16.61859654495450  3.26907181838184 -3.18113866706671
 1  18.26294416841684  5.28076872987299  0.09227839353935
 1  18.47137474827483  5.75038126462646 -1.47494963606361
 1  16.90775334513451  6.14096850695070 -0.69852820492049
 1 -4.93078096269627 -7.62598369776978  0.07913359735974
 1 -6.49700019131913 -7.07748713011301  0.84761460476048
 1 -5.15068728612861 -6.62879275547555  1.58607147554755
 8 -7.92684557985799  6.84433446484648 -0.41455488388839
 1 -9.08174155795580  6.30281769746975 -1.89898836633663

