%nproc=3
%Mem=2GB
# td=(NStates=1) iop(3/107=0140000000,3/108=0140000000) iop(3/107=0140000000,3/108=0140000000) CAM-B3LYP/6-31G(d,p) 

TD

0 1
12 -5.66903263446345  1.23028305600560  0.18742141094109
 6 -5.08296841864186 -2.15149911461146 -0.36057912301230
 6 -3.47964942484248  1.25589813131313  2.80503194139414
 6 -6.14235065736574  4.57436545964597  0.63536589778978
 6 -8.01657257525753  1.20692937533753 -2.33435752965297
 7 -4.39938702320232 -0.24583050615062  1.09282944994499
 6 -4.31042626302630 -1.52722390379038  0.68292201070107
 6 -3.25691709340934 -2.31195239383938  1.50449603820382
 6 -2.99302345774577 -1.27598826852685  2.65810259685969
 6 -3.60917771777178  0.01220206760676  2.12345300390039
 6 -3.29931203920392 -1.80669736233623  4.01126898629863
 6 -2.04155899919992 -2.73742773597360  0.67093127922792
 6 -1.02406016891689 -3.63234832273227  1.39965384228423
 6  0.14923079047905 -3.97499237133713  0.52794095519552
 8  0.48977283118312 -3.36552624142414 -0.60825084048405
 8  0.99924160636064 -4.72042718751875  1.25076106460646
 7 -4.96037458845885  2.62140237693769  1.47142382898290
 6 -4.04493858105811  2.38812682868287  2.53750897669767
 6 -3.73376391359136  3.65565564806481  3.21813075747575
 6 -4.52158791449145  4.57430589608961  2.56575245944594
 6 -5.33112247464747  3.87106178267827  1.56390154205421
 6 -2.76458508340834  3.77402448614861  4.33380725122512
 6 -4.64849754975498  5.98218825302530  2.99791522832283
 8 -3.92601508880888  6.53949878007801  3.85285925842584
 7 -6.87114876447645  2.63590152265227 -0.68991165886589
 6 -6.95479767756776  3.95492589808981 -0.37396559965997
 6 -7.99163430363036  4.60573162996300 -1.16775958505851
 6 -8.51500453325333  3.57163629372937 -2.00613516591659
 6 -7.80156396789679  2.42173034713471 -1.74238800860086
 6 -8.32735501420142  6.12401377107711 -1.21284241884188
 6 -9.49140561896190  3.73637457575758 -3.06739928852885
 6 -8.73482246294629  3.75872723582358 -4.53366661336134
 7 -6.38816458375838 -0.09627480768077 -1.11481250165017
 6 -7.29305291199120 -0.00966187178718 -2.02969889248925
 6 -7.57803091969197 -1.31573672637264 -2.61756478107811
 6 -6.76025150885089 -2.26977075037504 -2.00713992389239
 6 -6.08944686818682 -1.38395242474247 -1.04243210791079
 6 -8.52868824352435 -1.66263605220522 -3.76538745814581
 6 -6.11742536963696 -3.56366547254725 -2.01080647454745
 8 -6.38397163776378 -4.57824279437944 -2.68833907960796
 6 -5.01120137363736 -3.52686445314531 -1.02255887668767
 6 -5.14109123672367 -4.67426262786279  0.00014716571657
 8 -5.64419860246025 -4.55258119151915  1.09244636493649
 8 -4.77623758695870 -5.85870975507551 -0.52910708210821
 6 -5.03488683788379 -6.96271986308631  0.32678021282128
 6  2.29108579017902 -5.02911917211721  0.61450943224322
 6  3.30618392849285 -4.02731423072307  1.06178746454645
 6  3.94920402410241 -3.14622444334433  0.25268764376438
 6  3.62387728502850 -3.12639582798280 -1.30056772557256
 6  5.01052525852585 -2.30362463066307  0.76054790569057
 6  6.47124272897290 -2.50041499449945  0.16719704560456
 6  7.57979710641064 -1.64282592839284  0.61266510111011
 6  8.87722633113311 -1.85861184318432 -0.17170388358836
 6  9.47570465056506 -3.22811271377138  0.19503262826283
 6  9.84066950255026 -0.70440106100610  0.29992795619562
 6  11.26172933023302 -0.71308410351035 -0.18262357295730
 6  12.12317993859386  0.46694588508851  0.19088987718772
 6  13.55133452755276  0.48480816771677 -0.45299505670567
 6  14.45330350335034 -0.71395212521252 -0.14540122532253
 6  14.26907684588459  1.80490526272627 -0.05297293969397
 6  15.52057133803380  2.07380931623162 -0.89835694339434
 6  16.19546916661666  3.49588209820982 -0.72740383338334
 6  17.45972036673667  3.62483139863986 -1.47553860166017
 6  17.36733571567157  3.62289785248525 -2.98033035303530
 6  18.14515793499350  4.95396352235224 -1.06854781178118
 1 -2.85719122502250  1.19607647124712  3.59023663486349
 1 -6.32355323822382  5.46956315851585  0.86345610831083
 1 -8.73394859395940  1.44991925342534 -2.96227160806081
 1 -3.73952101730173 -3.25459857655766  2.10304604670467
 1 -1.92292337833783 -0.92626023422342  2.47536970297030
 1 -2.81764108930893 -2.76935351625162  4.08350829672967
 1 -2.88561516161616 -1.35108722642264  4.93333946984699
 1 -4.47471914771477 -2.02774069206921  4.18828205080508
 1 -2.40386755235524 -3.25247829282928 -0.27321505610561
 1 -1.67908860856086 -2.00617924532453  0.10292113341334
 1 -0.63810820092009 -3.22155212751275  2.25411995309531
 1 -1.58986846544654 -4.49805664196420  1.56144518121812
 1 -1.89177782988299  3.48197288398840  3.84249663076308
 1 -2.57619527352735  4.66775641474147  4.85651131403140
 1 -3.26041597409741  3.24043723782378  5.31812878967897
 1 -5.49356321562156  6.64145212771277  2.34409652545255
 1 -10.10140412291229  2.82781993389339 -3.10387154175418
 1 -10.32180966386639  4.64912244674467 -3.04020701330133
 1 -9.64040980188019  3.77821572157216 -5.24435074567457
 1 -8.18596256225623  4.56966890749075 -4.37307698949895
 1 -8.21569184408441  2.88306262016202 -4.87993210791079
 1 -8.32735931753176 -1.08519177687769 -4.72006197519752
 1 -8.45331495939594 -2.71665872617262 -3.77013635753575
 1 -9.56886013511351 -1.41052768736874 -3.57928221332133
 1 -4.17063883988399 -3.85206102910291 -1.50236516661666
 1  2.36973491729173 -5.84933222632263  0.94086247414741
 1  2.00616394299430 -5.00186871327133 -0.39578501360136
 1  3.49705568796880 -4.18123824612461  2.12555091919192
 1  2.66618407030703 -3.38710026492649 -1.44687733783378
 1  3.61001833983398 -2.00116481708171 -1.56706492399240
 1  4.29661216861686 -3.67836969326933 -2.05971742904290
 1  4.78979284828483 -1.24790033463346  0.58234862596260
 1  5.15542790119012 -2.39825414261426  1.77001088738874
 1  6.62798201820182 -3.68755305480548  0.13584290599060
 1  6.35482432193219 -2.52895511151115 -0.84601428762876
 1  7.44850565216522 -0.65232178647865  0.49541829512951
 1  7.62732164236424 -1.53095134363436  1.67881535393539
 1  8.61988788838884 -1.61580962166217 -1.17147536623662
 1  8.88126029142914 -4.13752261216122  0.09052658245825
 1  10.36233926332633 -3.30274362906291 -0.38488607050705
 1  10.09868661626163 -2.94526025462546  1.31730269326933
 1  9.53124418531853  0.35368377877788  0.08587776217622
 1  9.95204416301630 -0.83554187348735  1.65006594389439
 1  11.68126005710571 -1.69595691739174  0.07187787998800
 1  11.15928186838684 -1.03920555605561 -1.41482232593259
 1  11.61164118221822  1.45264833663366 -0.30189740014001
 1  12.11640239893989  0.74763604690469  1.32012118721872
 1  13.36408715101510  0.64237898069807 -1.52693889868987
 1  14.54238446564657 -0.69632264956496  0.85627072457246
 1  14.05571595809581 -1.87219039793979 -0.60470672477248
 1  15.46661651815181 -0.40731405910591 -0.47513991699170
 1  13.59725897149715  2.65326362556256  0.04512463516352
 1  14.37579519171917  1.78759517401740  1.04681350865086
 1  16.34700342744274  1.55031049254925 -0.58786660166017
 1  15.37770256575658  1.91372962436244 -1.89744327522752
 1  15.56310777287729  4.32695590329033 -0.87667894789479
 1  16.59165879977998  3.41659761916192  0.41399385818582
 1  18.15023484028403  2.72316582508251 -1.18324271217122
 1  16.72703984078408  4.46837411631163 -3.45954023292329
 1  18.37350974087409  4.02602899609961 -3.55754318791879
 1  17.09633431873187  2.59480439163916 -3.39316987018702
 1  18.25245311931193  4.97572822582258  0.04366353205321
 1  19.32231984278428  5.13445967246725 -1.42822496359636
 1  17.60014258405841  5.86676108620862 -1.50622897499750
 1 -4.73371125572557 -7.75455655505551 -0.12794711071107
 1 -6.11487197849785 -7.06685606700670  0.73786362966297
 1 -4.60595281268127 -7.05100497669767  1.36138900730073
 8 -7.88083097839784  6.88504853625362 -0.46826025442544
 1 -9.18468185198520  6.23745116081608 -1.95783425092509

