%nproc=3
%Mem=2GB
# td=(NStates=1) iop(3/107=0140000000,3/108=0140000000) iop(3/107=0140000000,3/108=0140000000) CAM-B3LYP/6-31G(d,p) 

TD

0 1
12 -5.70371610281028  1.26878690639064  0.22126479527953
 6 -4.93053317511751 -2.16050001470147 -0.32887595269527
 6 -3.44810627052705  1.21623416491649  2.79426086428643
 6 -6.28834525682568  4.51551957505751  0.66432879407941
 6 -7.92384330233023  1.18136681908191 -2.31703579747975
 7 -4.48706579107911 -0.28640456355636  1.01762192919292
 6 -4.24557977837784 -1.64209539093909  0.69764348284828
 6 -3.23030443214321 -2.25826702530253  1.52684827342734
 6 -2.92133628902890 -1.24880555025503  2.67031381798180
 6 -3.60661746174617 -0.00155930853085  2.11785244384438
 6 -3.53636574457446 -1.61642833543354  4.03897175657566
 6 -2.03704854815482 -2.62786677987799  0.62763694979498
 6 -0.95203296619662 -3.52534762266227  1.46035991289129
 6  0.21806767416742 -3.88520339243924  0.58946710781078
 8  0.45595944984498 -3.44720440924092 -0.57661767716772
 8  1.15342702490249 -4.66551169596960  1.28088407690769
 7 -5.00982953395340  2.64554479117912  1.55264195079508
 6 -4.06278036523652  2.43427144314431  2.51433665946595
 6 -3.80662119931993  3.61704178667867  3.17759670407041
 6 -4.54948070377038  4.60050851635163  2.60741662586259
 6 -5.31058042044204  3.94359903640364  1.55678082998300
 6 -2.90319894479448  3.77851493519352  4.35740961146115
 6 -4.59431213121312  6.01281131533153  2.88498393519352
 8 -3.96715920322032  6.52017684788479  3.79162313481348
 7 -6.89845149474947  2.57154508700870 -0.69940260796080
 6 -6.97208940674067  3.96195660116012 -0.34694289738974
 6 -8.04807994819482  4.58677973477348 -1.18178098719872
 6 -8.45356838963896  3.59294842494249 -2.06614116651665
 6 -7.77793160466047  2.39230740484048 -1.62971674147415
 6 -8.33437571627163  5.97267863756376 -1.16595773037304
 6 -9.43139961836184  3.82179311761176 -3.21823437203720
 6 -8.71098007870787  4.11818318141814 -4.50376362306231
 7 -6.40524629192919 -0.17702288248825 -1.00476149654965
 6 -7.37109071577158 -0.01733263886389 -2.11132705530553
 6 -7.54708782538254 -1.32065721842184 -2.73750677527753
 6 -6.63441892559256 -2.17916168946895 -2.08309751965196
 6 -5.92516043954395 -1.46618064756476 -1.11224908960896
 6 -8.47884325902590 -1.73148293689369 -3.94855577497750
 6 -6.22245587268727 -3.57093619961996 -2.01010640454045
 8 -6.54927816841684 -4.62501747184719 -2.65887613331333
 6 -4.98286854035404 -3.52615438213821 -0.85249186998700
 6 -5.27078420602060 -4.60310551215122  0.11393854485449
 8 -5.66074025662566 -4.44892082548255  1.29876699699970
 8 -5.05722568576858 -5.78064194829483 -0.34676884828483
 6 -5.25736908610861 -6.95795938703870  0.48693622842284
 6  2.30103678527853 -5.01363762396240  0.63207118841884
 6  3.42919622972297 -4.09659115841584  0.99760104590459
 6  3.99919902360236 -3.23778359925993  0.16871924692469
 6  3.66731162846285 -3.01697488588859 -1.33702137093709
 6  5.20833503950395 -2.28006227442744  0.59681153205321
 6  6.51619722442244 -2.69180413341334 -0.09262893699370
 6  7.57647677437744 -1.74120576637664  0.34146798139814
 6  9.09160776927693 -2.04773075507551 -0.06011272447245
 6  9.68991607170717 -3.38210811331133  0.26780990599060
 6  10.15051048664867 -0.98200882178218  0.42596055945595
 6  11.42907606490649 -1.00794358945895 -0.35933124372437
 6  12.25186280688069  0.18466765726573  0.19394018221822
 6  13.58877827192719  0.47263695059506 -0.43774353155316
 6  14.52447062006201 -0.75506623662366 -0.32309899509951
 6  14.36598653685368  1.80574534673467 -0.12389003140314
 6  15.53566284718472  2.00213214851485 -0.91447855555556
 6  16.14827444714471  3.42437494749475 -0.67278837183718
 6  17.33302769746975  3.87316623212321 -1.37039808760876
 6  16.96884586668667  4.05234079677968 -2.93756607660766
 6  17.75473889308931  5.27759588558856 -0.82391334833483
 1 -2.66581208710871  1.26615347894790  3.49072668386839
 1 -6.70325120802080  5.61093729592959  0.58987875057506
 1 -8.68019321842184  1.08073233473347 -3.24911029192919
 1 -3.56254331953195 -3.12801591829183  2.04190993309331
 1 -1.78116920292029 -1.08566617481748  2.93565573157316
 1 -2.80244957015702 -2.43674025492549  4.50312025792579
 1 -3.19848644874487 -0.79000111781178  4.74842097799780
 1 -4.51080275607561 -1.76657457545755  4.02411563416342
 1 -2.10663782938294 -3.41953499849985 -0.24366210081008
 1 -1.36075677537754 -1.93483211061106  0.20843168446845
 1 -0.80142453255326 -3.34042401470147  2.54029857095710
 1 -1.34361383998400 -4.48946578287829  1.55532456915692
 1 -1.99639829192919  3.48088277497750  4.14462684378438
 1 -3.04072172617262  4.74323396249625  4.93869953285328
 1 -3.33841377387739  2.98886208030803  5.02579955675568
 1 -5.35212907220722  6.61074905740574  2.45313742954295
 1 -9.99456343884388  2.82003915581558 -3.60513166776678
 1 -10.32225970887089  4.51350888538854 -2.97599059165917
 1 -9.21905766666667  4.12350025002500 -5.49041535213521
 1 -8.07345131113111  5.05551749234923 -4.38806848864887
 1 -7.88607888278828  3.42049636353635 -4.74445856055605
 1 -8.13359994159416 -1.12544580228023 -4.73886385538554
 1 -8.46322595049505 -2.85500256055606 -4.17050639453945
 1 -9.53294654375438 -1.42691932653265 -3.83759804490449
 1 -4.21586336233623 -3.92832865586559 -1.42423735383538
 1  2.41983992779278 -6.07952524562456  1.04563295119512
 1  2.19497282388239 -5.10955948234823 -0.53096853195320
 1  3.78556453885389 -4.03243336563656  2.15276364046405
 1  2.74772222412241 -3.53360491539154 -1.54028667876788
 1  3.66042338033803 -1.87794249484948 -1.47483570107011
 1  4.75420792819282 -3.43085494179418 -1.81030248754875
 1  4.83817768676868 -1.15659120372037  0.41830222132213
 1  5.09313167156716 -2.44678899609961  1.81295518181818
 1  6.64948416841684 -3.75151945144514  0.11501082278228
 1  6.63734257375738 -2.91152336833683 -1.21099078527853
 1  7.26416721832183 -0.70354690899090  0.07685643894389
 1  7.51733064326433 -1.79394764326433  1.43204067646765
 1  9.16159205880588 -1.98230627132713 -1.29927814651465
 1  9.06303846924692 -4.20791965186519 -0.03934640484048
 1  10.60021305070507 -3.39360271497150 -0.31605918781878
 1  9.95634238183818 -3.60258598719872  1.22706366936694
 1  9.78488954985498 -0.07436902650265  0.17859703410341
 1  10.23611256985699 -1.15569388868887  1.69487042434243
 1  11.89881181228123 -2.00104742644264 -0.27587689548955
 1  11.36769270947095 -0.89124075957596 -1.32210305400540
 1  11.61093111121112  0.90246331813181  0.37010980058006
 1  12.38254901360136 -0.15681439813981  1.26446562166217
 1  13.20578132043204  0.32383712651265 -1.42043824862486
 1  14.60802102930293 -1.03609662696270  0.79775487298730
 1  14.19124951145115 -1.62657583648365 -0.96007226132613
 1  15.55250510701070 -0.46594992269227 -0.72982538553855
 1  13.58265751135113  2.73091139033903 -0.17178705600560
 1  14.44083169536954  1.85295170967097  0.92820164746475
 1  16.35831455855585  1.39213467496750 -0.48190600560056
 1  15.15454024952495  1.85343359475948 -1.86257978887889
 1  15.37305876797680  4.14901810951095 -0.96864814481448
 1  16.38837847174717  3.67380333973397  0.36151861066107
 1  18.19586940374037  3.06940044854485 -1.29714410231023
 1  16.37550468726873  4.93314059295930 -3.20748502740274
 1  18.06090848074808  4.12284867806781 -3.44137157075708
 1  16.73725841114111  3.02418732993299 -3.15619617281728
 1  18.07234510851085  5.17416806980698  0.30030919661966
 1  18.50503811461146  5.66286251275127 -1.61610375147515
 1  16.86253882368237  5.97164157425743 -0.74815316741674
 1 -5.17880576517652 -7.95091619101910 -0.11605592159216
 1 -6.30808129942994 -6.78895827722772  0.92002184548455
 1 -4.54364658205821 -7.10279015521552  1.24610747914791
 8 -7.84262715801580  6.92477250865087 -0.56613004140414
 1 -9.21183456725673  6.23914132983298 -1.86649511701170

