%nproc=3
%Mem=2GB
# td=(NStates=1) iop(3/107=0140000000,3/108=0140000000) iop(3/107=0140000000,3/108=0140000000) CAM-B3LYP/6-31G(d,p) 

TD

0 1
12 -5.60623635483548  1.15024505220522  0.15420808960896
 6 -4.97279740154015 -2.04282824752475 -0.35541860696070
 6 -3.43775523542354  1.16814935643564  2.67566900510051
 6 -6.15531195349535  4.64765278837884  0.61376373757376
 6 -8.01441235923592  1.12632131453145 -2.41535562946295
 7 -4.44529161366137 -0.19502542564256  1.05957612461246
 6 -4.22411763216322 -1.51971315271527  0.65039875837584
 6 -3.20215161686169 -2.38729992859286  1.43863945254525
 6 -2.95430958635864 -1.35846651635163  2.58264505110511
 6 -3.59383618361836 -0.05589474207421  2.07392805140514
 6 -3.57000910891089 -1.74800149274928  4.06020387978798
 6 -1.92553739703970 -2.69505349854985  0.62294648074807
 6 -0.97073483638364 -3.49268435633563  1.38546242314231
 6  0.28841470887089 -3.83630850295030  0.56323448454845
 8  0.53933778767877 -3.46090577937794 -0.56497651305131
 8  1.03424510671067 -4.66014115891589  1.37970395889589
 7 -4.86026457745775  2.64160439713971  1.39079576617662
 6 -3.95032912011201  2.45789380538054  2.36958218401840
 6 -3.74937547474747  3.67687777027703  3.12080102450245
 6 -4.45192094779478  4.63272173767377  2.46624250845085
 6 -5.24492385478548  3.98834351085108  1.45420057195720
 6 -2.66385501040104  3.84260134383438  4.29998386888689
 6 -4.55639833983398  6.04596463066307  2.91322675947595
 8 -3.94516700400040  6.55166999719972  3.75499947244724
 7 -6.94436608620862  2.55461339383938 -0.70409307700770
 6 -6.92168436623662  3.92680308580858 -0.38106630973097
 6 -7.96366150635064  4.61177223402340 -1.04672748184818
 6 -8.55353838663866  3.62161129122912 -1.94400895329533
 6 -7.87464127562756  2.33281145524552 -1.68341211101110
 6 -8.41102338103810  5.98859022872287 -1.01990312491249
 6 -9.53981045944595  3.93178411671167 -3.02886543514351
 6 -8.88578755945595  4.05749711281128 -4.50618386508651
 7 -6.45869163646365 -0.14056923712371 -1.14348536893689
 6 -7.52899650635063 -0.08166907250725 -2.05319124172417
 6 -7.60996411301130 -1.40825597829783 -2.68706173077308
 6 -6.65309079277928 -2.24853862716272 -2.05115432533253
 6 -6.01745966946695 -1.36431046054605 -1.14401226592659
 6 -8.63144851955196 -1.83802359095910 -3.74451537093709
 6 -6.24287791489149 -3.56283538953895 -2.05839123302330
 8 -6.47904114471447 -4.56458142824282 -2.66623686938694
 6 -4.95955620912091 -3.52838460516052 -0.96728334913491
 6 -5.20780790839084 -4.59194439603960  0.10923807480748
 8 -5.77009119171917 -4.39913584698470  1.14748186848685
 8 -4.98498846204620 -5.84129801390139 -0.46380055145515
 6 -5.27353070227023 -6.91215480658066  0.55513304810481
 6  2.32023870547055 -5.04758101830183  0.69922790409041
 6  3.38246155625563 -4.13609510881088  1.09829111491149
 6  4.00320942464246 -3.30603042394239  0.23844621962196
 6  3.76119101640164 -3.14186737513751 -1.26803447224722
 6  5.19688389438944 -2.42606687488749  0.72373422432243
 6  6.53980958565857 -2.66709166216622 -0.00314998909891
 6  7.70059918661866 -1.89608125392539  0.61147498209821
 6  9.02052066056606 -2.05133111511151  0.02723601040104
 6  9.64623170327033 -3.41142104460446  0.25898902390239
 6  9.92341777737774 -0.87449807070707  0.44042200560056
 6  11.34240739803980 -0.82496529162916 -0.30862617321732
 6  12.19248686928693  0.37117630813081  0.20068085628563
 6  13.44662405650565  0.46192587948795 -0.57654741194119
 6  14.44089226222622 -0.69456018601860 -0.47658434363436
 6  14.13713365156516  1.77175194739474 -0.23122076447645
 6  15.44077335823582  2.25121705700570 -1.08305541324132
 6  16.10593021272127  3.46835934593459 -0.54801589458946
 6  17.43226762146215  3.87973688918892 -1.27345839363936
 6  17.22152113421342  3.86681224392439 -2.85087740774077
 6  18.00478389758976  5.14507263326333 -0.77999895689569
 1 -2.67270277617762  1.01297816141614  3.52634024522452
 1 -6.43116399929993  5.66629283148315  0.85510527322732
 1 -8.78062326142614  1.10124438593859 -3.35590097099710
 1 -3.53808087328733 -3.31497461416142  1.61730747284729
 1 -1.90220130613061 -1.00619822802280  2.75135730173017
 1 -3.08768809400940 -2.58864544544454  4.46057600350035
 1 -3.34277087718772 -1.02805492319232  4.90406654255426
 1 -4.69665134093409 -1.82039995799580  3.82687591019102
 1 -1.98937610321032 -3.25305835083508 -0.18589632423242
 1 -1.34131483118312 -1.76569519691969  0.27301814311431
 1 -0.76573096319632 -3.05697566986699  2.37726226732673
 1 -1.63825330393039 -4.33800063636364  1.60290932763276
 1 -1.67605625772577  3.16523120982098  4.15509789088909
 1 -2.37517517151715  4.84124376347635  4.47623328622862
 1 -3.38167810031003  3.43986718081808  5.32405938273827
 1 -5.35368922822282  6.82163014551455  2.34301641744174
 1 -10.39476345884589  3.00633778567857 -2.93579473407341
 1 -10.18263574647465  4.88090562506251 -2.80770376297630
 1 -9.69422518341834  4.38120602060206 -5.16336264686469
 1 -7.94510847684769  4.66299824042404 -4.45435511731173
 1 -8.44158443334334  2.89004331823182 -4.57954206890689
 1 -8.17344392599260 -1.60830408810881 -4.79354932393239
 1 -8.99246887478748 -2.98021508180818 -3.76496584048405
 1 -9.55483873297330 -1.15749238383838 -3.61840612571257
 1 -4.02634441044104 -3.63453927692769 -1.47285221532153
 1  2.57679562336234 -5.96287358045805  1.18613700160016
 1  2.20153347994800 -4.99337786418642 -0.24913034813481
 1  3.71844782718272 -4.11952207450745  2.06412477657766
 1  2.91615906780678 -3.69415096999700 -1.58681133123312
 1  3.94021135913591 -2.16021072167217 -1.52231044854485
 1  4.62818532593259 -3.56629848614862 -2.10573203050305
 1  4.85068893789379 -1.21877742234223  0.53410380148015
 1  5.43908626702670 -2.56373069026903  1.97367125342534
 1  6.85167438743874 -3.64127842734273 -0.04873555185519
 1  6.56507534703470 -2.34857707370737 -1.20035972217222
 1  7.79462026362636 -0.73139969426943  0.58058681198120
 1  7.85324423462346 -2.40975922442244  1.55992346474647
 1  8.76171207080708 -1.93670171087109 -1.04260247894789
 1  9.16801896729673 -4.30386924682468 -0.18476094629463
 1  10.49661269066907 -3.45384873957396 -0.28997657955796
 1  9.92937968556856 -3.74476020462046  1.41067203020302
 1  9.36071713261326  0.06788519891989  0.23319249364937
 1  10.19271823042304 -1.12638095739574  1.45830676797680
 1  11.90909284038404 -1.75797311901190 -0.23451275907591
 1  11.11815775597560 -0.79753138863886 -1.45689653335334
 1  11.43217323542354  1.26945001680168  0.16405919551955
 1  12.34352511121112  0.04237552085209  1.20534971007101
 1  13.27971871417142  0.40393513631363 -1.55352155695570
 1  14.68715894309431 -0.61102411971197  0.65993109060906
 1  13.83732411891189 -1.67056023492349 -0.55771202530253
 1  15.31851170767077 -0.46615994369437 -0.97531993499350
 1  13.50620986658666  2.60472877207721 -0.42858273557356
 1  14.36132374457446  1.64751116561656  0.75912473977398
 1  16.11428015511551  1.41681714321432 -0.91681949694969
 1  15.11521631713171  2.30292854425443 -2.10855438633863
 1  15.32813427552755  4.31216442414241 -0.45114639463946
 1  16.28685831973197  3.51161712111211  0.58932139093909
 1  18.19184900170017  2.91742525102510 -1.21106549444944
 1  16.65984312111211  4.92572985188519 -3.26344062296230
 1  18.43368575847585  3.76448284148415 -3.29029646324632
 1  16.79836452175217  2.98620353155315 -3.24719527272727
 1  18.23132100610061  5.41485213821382  0.34944411011101
 1  18.86706431723172  5.61828805530553 -1.19974211531153
 1  17.14258682848285  5.83826823692369 -0.89652800490049
 1 -4.82358024262426 -7.94363546294630  0.07121280528053
 1 -6.52033252455246 -6.85043442484248  0.61259110241024
 1 -4.68080029742974 -6.77503737993799  1.43838670707071
 8 -7.92466536183618  6.87122715411541 -0.36564999339934
 1 -9.07880126392639  6.26106352205221 -1.86092455995600

