%nproc=3
%Mem=2GB
# td=(NStates=1) iop(3/107=0140000000,3/108=0140000000) iop(3/107=0140000000,3/108=0140000000) CAM-B3LYP/6-31G(d,p) 

TD

0 1
12 -5.77017274847485  1.26792682038204  0.26236890569057
 6 -5.08340846264626 -2.17896186088609 -0.37756082118212
 6 -3.40705216511651  1.16757929942994  2.71160259845985
 6 -6.14313073537354  4.63134115721572  0.62609497069707
 6 -7.93710462846285  1.23087176957696 -2.40674476837684
 7 -4.43225030953095 -0.30020594369437  1.10854102110211
 6 -4.33479870027003 -1.60745192659266  0.68835255375538
 6 -3.18773017471747 -2.35031623022302  1.45758134673467
 6 -2.94992914831483 -1.39698036773677  2.69619640624062
 6 -3.62461926192619 -0.12967211981198  2.21620227882788
 6 -3.57608971697170 -1.93576026862686  4.05047290669067
 6 -1.95767061036104 -2.79387338053805  0.67113129922992
 6 -1.06970473337334 -3.57066215411541  1.47146102300230
 6  0.26520238763876 -3.92222709480948  0.65373353445345
 8  0.50657451135114 -3.44475416421642 -0.48587860326033
 8  1.05917759996000 -4.76388153295330  1.31198718721872
 7 -4.97172572357236  2.59580981768177  1.45384207080708
 6 -4.02813690089009  2.36964498049805  2.49810503630363
 6 -3.66596713391339  3.64969505200520  3.11013995839584
 6 -4.57784354005401  4.56126459195919  2.59796568076808
 6 -5.29084844724472  3.90970564706471  1.52821797369737
 6 -2.71621024592459  3.79596668036804  4.27626149664967
 6 -4.58606130613061  5.97920795499550  2.96575201200120
 8 -3.97719020632063  6.54051888208821  3.85847982048205
 7 -6.88752040164016  2.66453438593859 -0.64035670337034
 6 -6.92899509730973  3.94898530403040 -0.35639384248425
 6 -7.88742388258826  4.64251530833083 -1.29212202130213
 6 -8.40130316311631  3.65058418851885 -2.02649720212021
 6 -7.67742155365537  2.45230340444044 -1.73104687448745
 6 -8.25340761946195  6.08030940064006 -1.17760889548955
 6 -9.47550402880288  3.72494343264326 -3.18979152775278
 6 -8.80166914761476  3.78765012811281 -4.52242548924892
 7 -6.34896066336634 -0.11651683188319 -1.15266628702870
 6 -7.34751835853585 -0.03908481408141 -2.14107002960296
 6 -7.48421153775378 -1.28792394509451 -2.74405743034303
 6 -6.65030051375138 -2.18171194449445 -2.09334854475448
 6 -5.95234315781578 -1.37169119861986 -1.11814967966797
 6 -8.44578995369537 -1.67038682728273 -3.81445236463646
 6 -6.17717134423442 -3.60067917391739 -2.10753614751475
 8 -6.52725596619662 -4.52676764686469 -2.72917316301630
 6 -5.04256450995099 -3.53896566326633 -0.92356897769777
 6 -5.47590471807181 -4.59873507510751  0.06978412941294
 8 -5.90448463106311 -4.36014194759476  1.21293841414141
 8 -5.22586254945495 -5.88341222532253 -0.39447361876188
 6 -5.50255360456046 -6.90540413151315  0.48712624742474
 6  2.28830551215121 -4.93900016021602  0.68660664196420
 6  3.38938224832483 -3.98148964826483  1.10603188898890
 6  4.06213531723172 -3.21753157405741  0.26909928492849
 6  3.71650654795480 -3.05425861426143 -1.22257992679268
 6  5.25513971997200 -2.47447171537154  0.84007585848585
 6  6.54908051275128 -2.72220717371737  0.14835516141614
 6  7.65229435613561 -1.80875252105211  0.70112394699470
 6  9.10065867436744 -2.05310129212921 -0.00809752295230
 6  9.64329140924092 -3.34826472897290  0.38984210921092
 6  10.01112654825483 -0.93278389928993  0.35138310171017
 6  11.36426958425842 -0.90686348144814 -0.38198350895090
 6  12.22770039063906  0.43224241474147 -0.17294650645065
 6  13.57218661276127  0.48054774167417 -0.80846060326033
 6  14.51730990399040 -0.64990572057206 -0.45562224742474
 6  14.24608454665466  1.84281905410541 -0.33061070347035
 6  15.50741002190219  2.25441737703770 -1.10304741244124
 6  16.07495711541154  3.62980549054905 -0.62203329632963
 6  17.38398279297930  3.86586550205021 -1.30328137593759
 6  17.36626560866087  4.14000956365637 -2.85727804780478
 6  18.02038545774577  5.11651977797780 -0.70476143314331
 1 -2.68319382528253  1.39900676427643  3.60067767896790
 1 -6.19746062896290  5.70112631483148  0.80868063076308
 1 -8.58796399549955  1.02430669216922 -3.21467684858486
 1 -3.58977604280428 -3.33829694639464  1.84146988908891
 1 -1.96310739673967 -1.18568617681768  3.01224339033903
 1 -3.02329165436544 -2.85103168406841  4.34731467736774
 1 -3.55457205730573 -1.21948406610661  4.73036917281728
 1 -4.70618229402940 -2.12903082108211  3.92663588618862
 1 -2.34789195479548 -3.24188723372337 -0.26909464406441
 1 -1.49627032673267 -1.85268389578958  0.50982182348235
 1 -0.89894428452845 -3.15277524982498  2.43005754685469
 1 -1.57367684628463 -4.54563139943994  1.83012204890489
 1 -1.74350300240024  3.51751643834383  3.89252163326333
 1 -2.91828948294829  4.80379001810181  4.63259892279228
 1 -2.94965489798980  3.02475566966697  4.93242021882188
 1 -5.20649450875087  6.49356733923392  2.35220733653365
 1 -10.12958694119412  2.86737388928893 -3.31338249284929
 1 -9.78763624652465  4.72175971047105 -3.12737573017302
 1 -9.47389315021502  3.83049094909491 -5.29041535213521
 1 -8.13686765276528  4.59007094769477 -4.66392607440744
 1 -8.18242851775178  2.94894920882088 -4.56214032873287
 1 -8.44344092569257 -1.13478673637364 -4.62190215921592
 1 -8.46065569346935 -2.76482354265427 -4.16190553445345
 1 -9.48465171427143 -1.21119775437544 -3.52506679177918
 1 -4.28058983498350 -3.85408123112311 -1.64094902500250
 1  2.51898984278428 -5.97716500960096  1.08802719061906
 1  2.25147847444744 -4.97955648204821 -0.41708714381438
 1  3.90444642704270 -4.20920104240424  2.06888525262526
 1  2.67272472437244 -3.22225378027803 -1.36721937203720
 1  4.12280961896190 -1.99340404100410 -1.51768998649865
 1  4.23932644004400 -3.90991284758476 -1.59602105940594
 1  5.02810667966797 -1.30495604020402  0.59267965906591
 1  5.47874023242324 -2.61004532173217  1.90838472477248
 1  6.75247446744674 -3.79553385288529  0.36471579327933
 1  6.56872571207121 -3.01550376637664 -0.90703038923892
 1  7.31972277387739 -0.89382593689369  0.55147390069007
 1  7.63621253145314 -1.79926817531753  1.77950542294229
 1  8.95017091669167 -2.07481552225223 -1.08458667736774
 1  9.06042820822082 -4.09127798769877  0.26511404120412
 1  10.54917794719472 -3.54636799149915 -0.24603218511851
 1  9.93894064166417 -3.53297902650265  1.45324628762876
 1  9.58248930983098  0.01875028542854  0.21592076647665
 1  10.16194515311531 -1.09625794509451  1.34440537783778
 1  11.88681061216122 -1.86210353205321 -0.28434774257426
 1  10.92001794199420 -0.87948958445845 -1.40183102680268
 1  11.59830984908491  1.32657572937294 -0.46446365676568
 1  12.43643440214021  0.50125140844084  0.94675385048505
 1  13.31552229452945  0.62840758355836 -1.80323652845285
 1  14.52903313051305 -0.89385240254025  0.64012911041104
 1  13.97474786128613 -1.51116429532953 -0.96165241934193
 1  15.42333218971897 -0.42969629732973 -0.59912231523152
 1  13.49259850545054  2.50181848104811 -0.38556843414341
 1  14.53922153435344  1.64642105660566  0.76233506080608
 1  16.25016374347435  1.37776323782378 -0.94326214121412
 1  15.29130392589259  2.22701095249525 -2.12790632153215
 1  15.27840930303030  4.40354356205621 -0.75576685668567
 1  16.28921855575557  3.35297125652565  0.42555501430143
 1  17.95768558535854  3.11657516601660 -1.14677906580658
 1  16.66063320012001  4.89448672757276 -3.24747902680268
 1  18.42951534143414  4.38396478967897 -3.08826626022602
 1  17.17338202350235  3.12631754295430 -3.54747530073007
 1  18.27125499949995  5.03154380738074  0.19522868856886
 1  18.89679729052905  5.38706493299330 -1.18428056915692
 1  17.26704927472747  5.95702011211121 -0.68835718781878
 1 -5.40293817841784 -7.88974007340734 -0.03929824582458
 1 -6.65593608490849 -6.94058343974397  0.65119496279628
 1 -4.99287150455045 -7.16847672387239  1.54116698509851
 8 -7.87731062636264  6.96250628202820 -0.40059348774877
 1 -8.83564694849485  6.34025144084409 -2.05148361586159

