%nproc=3
%Mem=2GB
# td=(NStates=1) iop(3/107=0140000000,3/108=0140000000) iop(3/107=0140000000,3/108=0140000000) CAM-B3LYP/6-31G(d,p) 

TD

0 1
12 -5.61093682488249  1.20223025072507  0.19375204400440
 6 -5.05602572437244 -2.13071703640364 -0.37950101520152
 6 -3.40046150605061  1.17982052355236  2.73177461566157
 6 -6.17664408670867  4.57244526762676  0.55681804300430
 6 -8.02807372537254  1.22695137753775 -2.41903599749975
 7 -4.36003308780878 -0.26721264436444  1.07904807180718
 6 -4.29364458485849 -1.70220140154015  0.58599231773177
 6 -3.19311071277128 -2.45366656525653  1.39498508710871
 6 -2.90458461386139 -1.29737040674067  2.44843162976298
 6 -3.50762756275628 -0.07519667226723  2.04549520812081
 6 -3.23587569556956 -1.72719941254125  3.94610246964696
 6 -2.06583142644264 -2.82508650185019  0.47308149424942
 6 -0.98385614851485 -3.50623571147115  1.39453333023302
 6  0.34054992239224 -3.84361923402340  0.60197835893589
 8  0.54201805570557 -3.36726641544154 -0.54887490289029
 8  1.08074975717572 -4.69318446324632  1.24530051855185
 7 -4.85814436543654  2.62631286798680  1.41693838043804
 6 -3.96678076527653  2.45617363336334  2.43581880768077
 6 -3.62236277347735  3.68714879737974  3.03210215461546
 6 -4.38844460016002  4.71533999949995  2.39107499169917
 6 -5.15845520792079  3.95529020552055  1.38173332523252
 6 -2.62295091999200  3.77139422312231  4.20216408690869
 6 -4.59918261826183  6.07536757095710  2.89957539433943
 8 -4.03771625892589  6.57716254645465  3.83362733523352
 7 -6.77788943854385  2.63153108560856 -0.67335000270027
 6 -6.90464266206621  3.93150355585559 -0.39040724382438
 6 -7.80234537473747  4.60303135993599 -1.19759256835684
 6 -8.33675670847085  3.65739486958696 -2.10477502990299
 6 -7.73685749724973  2.39904807890789 -1.77665143494349
 6 -8.38492077077708  5.95128649834983 -1.03723485808581
 6 -9.42266874527453  3.90270120842084 -3.08241078967897
 6 -8.84049303000300  4.03658502160216 -4.59655290199020
 7 -6.34512027932793 -0.14330951115112 -1.10727174757476
 6 -7.36991059775978 -0.03656456205621 -2.02679860246025
 6 -7.66495961256126 -1.27455260796080 -2.70206323092309
 6 -6.78822430613061 -2.19209298259826 -1.94344355425543
 6 -5.99844776827683 -1.43480751025102 -1.15768363306331
 6 -8.70755613031303 -1.73599338793879 -3.70880179957996
 6 -6.38963259035904 -3.54437354335434 -1.92401779567957
 8 -6.78946218681868 -4.57092206230623 -2.53164341004100
 6 -5.10304055755576 -3.60787255395540 -0.86687330813081
 6 -5.36438356595660 -4.68130333193319  0.20581773277328
 8 -5.77598178077808 -4.38162409580958  1.38527564786479
 8 -5.16793675687569 -5.92974685878588 -0.23134730613061
 6 -5.47021037023702 -6.94040763186319  0.66724425922592
 6  2.31745842744274 -5.07891415161516  0.51373935523552
 6  3.38280159025903 -4.22249374867487  0.89474075987599
 6  4.05241434513451 -3.33960378127813  0.10676305130513
 6  3.93456835413541 -3.22821601000100 -1.37724539333933
 6  5.18116232223222 -2.48439270747075  0.76436828772877
 6  6.49086469116912 -2.62482743574357  0.03314364026403
 6  7.59487861456146 -1.81991363716372  0.67097093169317
 6  8.98346695519552 -1.96145212721272  0.11261454825483
 6  9.60920800090009 -3.33624352685269  0.23995712071207
 6  9.99025446104610 -0.89530015091509  0.60099806320632
 6  11.35962912021202 -0.81199399449945 -0.20181549214921
 6  12.21474909550955  0.32956214671467  0.12546333453345
 6  13.48958835293529  0.45623531043104 -0.77857761496150
 6  14.43204137713771 -0.72041277127713 -0.65986267146715
 6  14.20266020422042  1.69064383658366 -0.31522916531653
 6  15.55315459635964  2.09931186648665 -1.03617072477248
 6  15.93446306600660  3.53848635863586 -0.55484657765777
 6  17.29355375007501  3.93645256075608 -1.17000804860486
 6  17.30317930003000  4.25859142184218 -2.74243656365637
 6  17.79232265146515  5.27703582958296 -0.47099805680568
 1 -2.53656916281628  1.26886374997500  3.50983859505951
 1 -6.29902078497850  5.68466466866687  0.65517528022802
 1 -8.64262946204621  1.17569183068307 -3.33531891279128
 1 -3.69038610381038 -3.26534965166517  1.93522926502650
 1 -1.62206329232923 -1.31930953915392  2.48280044604460
 1 -2.66565589078908 -2.75613219411941  4.13433337923792
 1 -2.96587318741874 -0.91106322402240  4.72552868876888
 1 -4.35917759355936 -1.78059597759776  3.82948617121712
 1 -2.30971813741374 -3.48482152715271 -0.29446718131813
 1 -1.54184488418842 -2.07146577397740 -0.08309746844684
 1 -0.61985637573757 -2.89415938823882  2.27634217531753
 1 -1.19289876847685 -4.55412224852485  1.67870690739074
 1 -1.43840249234923  3.87505219191919  3.66746912801280
 1 -2.81901955595560  4.70895053415342  4.62953861676168
 1 -2.74158409090909  2.70151334543454  4.92638961576158
 1 -5.08494235353535  6.91581956445645  2.25323743954395
 1 -10.12795677817782  3.17916506840684 -3.01863301790179
 1 -9.97148463136314  4.94211174567457 -2.87180017261726
 1 -9.59469523042304  4.12064996499650 -5.13767007760776
 1 -8.17870183618362  4.64394633523352 -4.76922660446045
 1 -8.42746302120212  3.01046536043604 -4.78266238093809
 1 -8.50401698329833 -1.40406366406641 -4.72369233823382
 1 -8.96797642554255 -2.76996405670567 -3.74197354125413
 1 -9.65772902200220 -1.16899353395340 -3.45659994509451
 1 -4.16799857585759 -3.81025684868487 -1.57019194929493
 1  2.50844878867887 -5.97990528362836  1.00558894679468
 1  2.00402372897290 -5.08551707810781 -0.53673910901090
 1  3.55715169756976 -4.18826894919492  2.05815417951795
 1  2.85803325522552 -3.52437399229923 -1.66117876797680
 1  4.32876021402140 -2.23246794739474 -1.54622283978398
 1  4.56192870027003 -4.03723557985799 -1.88959041634163
 1  4.71254512351235 -1.56694223882388  0.82146253735374
 1  5.15434779317932 -2.66729104630463  1.83092697899790
 1  6.87503672367237 -3.77124142364236 -0.23830450875087
 1  6.27189602910291 -2.59724194019402 -1.03506319251925
 1  7.33158395999600 -0.73392994729473  0.85990474377438
 1  7.68428733893389 -2.23712196069607  1.72025949834984
 1  9.10553645324532 -1.68796683738374 -0.90604882358236
 1  8.90336250165016 -4.00504936483648 -0.12561503170317
 1  10.46796982638264 -3.49731308600860 -0.44137171907191
 1  10.03851059865987 -3.56431215981598  1.39100006300630
 1  9.50233129402940 -0.05918750835083  0.16820599499950
 1  10.14292325092509 -0.99181750105011  1.66001693899390
 1  12.06371830293029 -1.60458778047805 -0.16340564836484
 1  11.07298323852385 -1.00842247774777 -1.28631947564757
 1  11.45539555765576  1.19716278807881 -0.09615682608261
 1  12.37002776147615  0.44684596789679  1.28249742484248
 1  13.13980472277228  0.60007475027503 -1.82360856565657
 1  14.90288051525153 -0.85717873517352  0.36456155365537
 1  14.04199458595860 -1.82334551345134 -0.69318557265727
 1  15.30620047654765 -0.64588791649165 -1.38889129212921
 1  13.48606785238524  2.64168246744675 -0.50117999529953
 1  14.40459807200720  1.72431884638464  0.69491831913191
 1  16.33191191829183  1.39898536003600 -0.68211602660266
 1  15.35481027652765  1.98944719611961 -2.11070460136014
 1  15.11878334043404  4.26064927262726 -0.76903818381838
 1  16.24315394929493  3.40819677907791  0.56563902270227
 1  17.94186400320032  3.15558906740674 -1.07451183908391
 1  16.71816895369537  5.30211749064906 -3.05438971787179
 1  18.29404179407941  4.41063745694569 -3.23426085968597
 1  16.53331801710171  3.53805871707171 -3.20176072927293
 1  18.23549142314231  4.74721537453745  0.66973613931393
 1  18.51125873667367  5.54708093459346 -0.97523966506651
 1  16.94365693549355  6.07565197529753 -0.48221657375737
 1 -5.08609649424942 -7.67867896729673  0.26585226922692
 1 -6.57735822712271 -6.91116049744975  0.77889773307331
 1 -4.94711692909291 -6.91568144434443  1.63690655905591
 8 -7.87278017331733  6.77997802920292 -0.32772620102010
 1 -9.40517390119012  6.36718413411341 -1.40704917241724

