%nproc=3
%Mem=2GB
# td=(NStates=1) iop(3/107=0140000000,3/108=0140000000) iop(3/107=0140000000,3/108=0140000000) CAM-B3LYP/6-31G(d,p) 

TD

0 1
12 -5.60568629982998  1.21057108480848  0.24288695749575
 6 -4.90566068786879 -2.06438040274027 -0.50844390949095
 6 -3.45273673357336  1.27758029952995  2.70693213141314
 6 -6.32699912221222  4.56959498259826  0.74124648584858
 6 -8.08569948794879  1.17126580898090 -2.36332042594259
 7 -4.36711379587959 -0.28867479057906  0.98940910791079
 6 -4.28284350475047 -1.58643982538254  0.65816953545355
 6 -3.15125652735273 -2.29917111571157  1.52601819041904
 6 -2.76669082448245 -1.28603927362736  2.62816960356036
 6 -3.51895869586959  0.00536138353835  2.01988264686469
 6 -3.35963807180718 -1.61751844444444  4.02034989438944
 6 -1.88305314861486 -2.70177417061706  0.71214540064006
 6 -0.93381114401440 -3.62751783968397  1.44728860576058
 6  0.27233310071007 -3.87572244434443  0.57648580968097
 8  0.44816867076708 -3.57520720952095 -0.55921593699370
 8  1.12727440964096 -4.74925006980698  1.30533652215222
 7 -4.87125567656766  2.67869810651065  1.43765045164516
 6 -3.94351843904390  2.51699971597160  2.40544577037704
 6 -3.66619715691569  3.71735181768177  3.07675662006201
 6 -4.58393414911491  4.70722918841884  2.49930581478148
 6 -5.25144450685069  4.05305998249825  1.38607375927593
 6 -2.73493211811181  3.99910699439944  4.10132400290029
 6 -4.69414211421142  6.17762779697970  2.90541597839784
 8 -4.16094858215822  6.65895072527253  3.87097106960696
 7 -6.91713336293629  2.67817575007501 -0.65199786748675
 6 -7.09115131293129  3.97073747924792 -0.28524672777278
 6 -8.03766890709071  4.63122417921792 -1.17385019411941
 6 -8.44971800460046  3.67596672677268 -2.00453500590059
 6 -7.78531234273427  2.36283445754575 -1.61009477927793
 6 -8.55102738143814  5.98531990169017 -1.06182731733173
 6 -9.44662114051405  3.84607554585459 -3.14286683528353
 6 -8.72086106680668  4.19993135623562 -4.59440268696870
 7 -6.26771253855386 -0.11736691689169 -1.19136015641564
 6 -7.28245185188519 -0.08851975757576 -2.14070999359936
 6 -7.54864798139814 -1.36749190189019 -2.70780380498050
 6 -6.57619310301030 -2.20874464776478 -2.08534774467447
 6 -5.86003392689269 -1.41712574207421 -1.17923578827883
 6 -8.41677705240524 -1.76189597819782 -3.82765368476848
 6 -6.15125875297530 -3.60519962596260 -1.95445083898390
 8 -6.55141838243824 -4.61543651375137 -2.61262150785079
 6 -4.93611386488649 -3.58647041374137 -0.94509112991299
 6 -5.27363449104910 -4.58473367496750  0.13514066506651
 8 -5.66974115671567 -4.38471440484048  1.26613373367337
 8 -4.97784774797480 -5.77562144624462 -0.44349852125213
 6 -5.31717506670667 -6.99435302640264  0.46303383818382
 6  2.33861054265427 -5.11512777297730  0.58532651395140
 6  3.38164147424743 -4.13405490479048  0.93508479427943
 6  4.04330343404340 -3.32132195309531  0.14146652165217
 6  3.77128202550255 -3.14058724712471 -1.37617528632863
 6  5.14092829882988 -2.40443471167117  0.69260111101110
 6  6.63052865756576 -2.83633858685869  0.09130945684568
 6  7.69376850355036 -1.97438908470847  0.65057889248925
 6  9.00365897439744 -2.12381836383638  0.09860314711471
 6  9.56358343844384 -3.50936083858386  0.25682880788079
 6  10.01639707530753 -0.99279990089009  0.46171413481348
 6  11.26645980328033 -0.94813760886089 -0.24407971857186
 6  12.18254587518752  0.25108429892989  0.19690047824782
 6  13.63873326742674  0.36403609050905 -0.59196895409541
 6  14.43610178317832 -0.84523525352535 -0.30347703290329
 6  14.27602754095409  1.67283205540554 -0.25291293369337
 6  15.47911719261926  2.14694662996300 -1.14065117281728
 6  15.88843846354635  3.53623613361336 -0.68638973197320
 6  17.19038343304330  3.96183509900990 -1.34827587538754
 6  17.11540052215222  4.10210577327733 -2.85489780978098
 6  17.68828224742474  5.29951807780778 -0.74722567956796
 1 -2.87009251515151  1.31097796139614  3.67554516571657
 1 -6.84711559445945  5.73678988118812  1.11693145584558
 1 -8.65692089118912  1.38408266976698 -3.22110749164916
 1 -3.83667073227323 -3.11312442914291  2.06899264136414
 1 -1.63391447744774 -1.07935554375438  2.70513267926793
 1 -2.70906023122312 -2.58117469836984  4.40678062396240
 1 -3.37074367446745 -0.83262538023802  4.85599173507351
 1 -4.36186786258626 -1.82943086108611  3.89976319891989
 1 -2.16646381198120 -3.43858690369037 -0.15573330793079
 1 -1.47049774947495 -1.88375700310031  0.11657249854985
 1 -0.54330872097210 -3.23271324362436  2.40934547564756
 1 -1.22138161676168 -4.71012784908491  1.81100013671367
 1 -1.56297494959496  3.81544623132313  3.87084946604660
 1 -2.98961661566157  4.94657429652965  4.72570823372337
 1 -2.86817675017502  3.29519271337134  4.96500347714771
 1 -5.20641450075007  6.96264424692469  2.37191930773077
 1 -10.11439542204220  2.85130228212821 -3.10613176777678
 1 -10.15774325722572  4.62829036353635 -2.93299629222922
 1 -9.34610037093709  4.05468336833683 -5.49299561016102
 1 -8.38732269826983  5.20779271987199 -4.52353203500350
 1 -7.84896517141714  3.48784309820982 -4.76942105680568
 1 -8.37652423402340 -1.15575883358336 -4.80331030003000
 1 -8.38477810571057 -2.81121818211821 -3.88918826272627
 1 -9.53180642974297 -1.41542817741774 -3.46858114321432
 1 -4.01012278827883 -3.83760958395840 -1.54890982108211
 1  2.51697964176418 -6.08823611671167  1.17270565846585
 1  1.98124145074507 -5.28804733113311 -0.43834927002700
 1  3.65917189958996 -4.09246936923692  2.09772813691369
 1  2.73215066696670 -3.38740029492949 -1.51807445754575
 1  3.91919925792579 -2.16855155575558 -1.57374559205921
 1  4.64644715211521 -3.65745760206021 -2.13106456375638
 1  4.79737360636064 -1.48567411201120  0.26152654375437
 1  5.13993635203520 -2.47509182638264  1.84232811911191
 1  6.82134135413541 -3.86926122562256  0.23906322802280
 1  6.80516935643564 -2.43349556555656 -0.91623130933093
 1  7.41890269186919 -0.81928848314831  0.63013176647665
 1  7.71600051025102 -2.33287153565357  1.76131360376038
 1  8.87338323792379 -1.97251529222922 -0.98446666536654
 1  8.93839600500050 -4.39673853375338 -0.11620409060906
 1  10.35187821722172 -3.49924327902790 -0.50511809370937
 1  9.78877562516252 -3.69702543114311  1.39265022802280
 1  9.24317537843784 -0.00855244484448  0.32487166156616
 1  10.26137509610961 -0.93296161546155  1.63658459575958
 1  11.93862579367937 -1.82407972967297 -0.06710601840184
 1  11.09753569376938 -1.01610324582458 -1.32927377107711
 1  11.89311933003300  1.30858393019302  0.13473626322632
 1  12.43767452615262  0.29649093239324  1.42983215831583
 1  13.25679642194219  0.41516625942594 -1.67144334913491
 1  14.69594982218222 -0.90039305660566  0.72023712121212
 1  14.02622300880088 -1.95049822872287 -0.62081833593359
 1  15.53564342084208 -0.91558488618862 -0.82346474947495
 1  13.51638088368837  2.54012231143114 -0.42079195649565
 1  14.51681929412941  1.77042345684568  0.88667749504951
 1  16.33920264736474  1.31817727922792 -1.01167898289829
 1  15.22177697319732  1.85395364676468 -2.13117664856486
 1  15.08524998709871  4.16387959565957 -0.95854713471347
 1  16.10662029592959  3.41567752715272  0.45953841264126
 1  18.06107592439244  3.09247275577558 -1.05251963986399
 1  16.28018515531553  4.93532081098110 -2.95608988788879
 1  17.97508989888989  4.42769916311631 -3.19902733633363
 1  16.75392007730773  3.25196010721072 -3.25491604480448
 1  17.78232610661066  5.30261091409141  0.30607977367737
 1  18.58460607140714  5.73377960446045 -1.16260840194019
 1  16.82608517831783  6.02628703880388 -0.78114646674668
 1 -4.95560344494449 -7.75137623702370 -0.02056637263726
 1 -6.40780127142714 -6.90302968436844  0.82725256855686
 1 -4.75107732513251 -6.82777265346535  1.46333920232023
 8 -8.19171206650665  6.77762779417942 -0.21320474887489
 1 -9.09495287908791  6.24829224492449 -1.88388685618562

