%nproc=3
%Mem=2GB
# td=(NStates=1) iop(3/107=0140000000,3/108=0140000000) iop(3/107=0140000000,3/108=0140000000) CAM-B3LYP/6-31G(d,p) 

TD

0 1
12 -5.62074780598060  1.11461148884888  0.21893456225623
 6 -4.95999612141214 -2.10023398809881 -0.29346241134113
 6 -3.40899235913591  1.15143768526853  2.85551698989899
 6 -6.24347076937694  4.54964298739874  0.69414177537754
 6 -8.03258417641764  1.21815049744974 -2.33698779267927
 7 -4.30666775127513 -0.31041696479648  1.07700786778678
 6 -4.17318253865387 -1.63801498289829  0.63860757925793
 6 -3.13893529522952 -2.31499269786979  1.50202579117912
 6 -2.96558071347135 -1.38638930863086  2.73364015061506
 6 -3.55642244224422 -0.01460061266127  2.26502716131613
 6 -3.54137624562456 -1.91945863846385  4.05293315271527
 6 -1.89452429572957 -2.59414340754075  0.66954114021402
 6 -0.83799156205621 -3.51582667056706  1.51531540844084
 6  0.38931479887989 -4.03496836893689  0.64592275337534
 8  0.53592744664466 -3.51895158395840 -0.40030004540454
 8  1.09709139133913 -4.86779192399240  1.33420940944094
 7 -4.94868341934193  2.59842007870787  1.48044473107311
 6 -3.95245933313331  2.45704372037204  2.46560178597860
 6 -3.78344888208821  3.71679176167617  3.13071201560156
 6 -4.67047280298030  4.60059852535254  2.53072895709571
 6 -5.28669803220322  3.86375105160516  1.45607075897590
 6 -2.80816944184418  3.90936802050205  4.26918078857886
 6 -4.60949364936494  6.07091712591259  2.81572700950095
 8 -3.83079556685669  6.57871270147015  3.66385035753575
 7 -6.78250990059006  2.66760469296930 -0.73075574327433
 6 -6.97058925672567  3.93538394389439 -0.32953115621562
 6 -7.99434457465747  4.59068012481248 -1.18761157025703
 6 -8.47639067186719  3.58804793489349 -2.00647519991999
 6 -7.70353416491649  2.39772794689469 -1.71812558235824
 6 -8.31704398309831  6.06688805850585 -1.14377551215121
 6 -9.49161563996400  3.75854679297930 -3.09580212881288
 6 -8.89720870157016  3.94208557165717 -4.48538178487849
 7 -6.33965973327333 -0.17436261646165 -0.97622864326433
 6 -7.30854446114611  0.02496159055906 -2.09999592219222
 6 -7.51479459605961 -1.30123527622762 -2.75234825942594
 6 -6.53526901060106 -2.07023079637964 -2.22938214811481
 6 -5.94910283378338 -1.38852288178818 -1.03780164486449
 6 -8.37460283498350 -1.60308009660966 -3.89197011641164
 6 -6.11370499759976 -3.48164727072707 -2.07912330623062
 8 -6.44420766136614 -4.48450342044204 -2.71080132583258
 6 -4.96484673817382 -3.51921368806881 -1.01021764256426
 6 -5.39527665526553 -4.59514471607161 -0.00985383438344
 8 -5.84189837243724 -4.43692962636264  1.08358547884788
 8 -5.11406136933693 -5.78931281538154 -0.49747391879188
 6 -5.47853120232023 -6.96921051215121  0.29986752155216
 6  2.40798748034803 -5.10367662786279  0.69035701700170
 6  3.37464077417742 -4.11996349564956  1.05095638143814
 6  4.01868097179718 -3.18568838973897  0.24308668366837
 6  3.71529642694269 -3.04486767516752 -1.19743741254125
 6  5.11351555755576 -2.37507177537754  0.73156500740074
 6  6.53689929462946 -2.63824877787779  0.20522084798480
 6  7.63943307000700 -1.75315696149615  0.71760559515952
 6  8.98267687618762 -2.06571255325533  0.05094838163816
 6  9.63157023712371 -3.35199510201020  0.38084120912091
 6  9.85005044064406 -0.88704932583258  0.42591055445545
 6  11.31326448374837 -0.83704649974998 -0.21791710231023
 6  12.14821244184419  0.38569776027603  0.05330611881188
 6  13.47198659275928  0.41292097899790 -0.61673143034303
 6  14.32818099109911 -0.73750448044804 -0.39037572277228
 6  14.12301223942394  1.79150392259226 -0.27967560996100
 6  15.41928120902090  2.10233216851685 -1.11369847754775
 6  16.00734035373537  3.47027953795380 -0.74774586758676
 6  17.22971736643664  3.84943385888589 -1.42190323812381
 6  17.09938892099210  4.20494605730573 -2.94238655865587
 6  17.97430084928493  5.05997412341234 -0.80523148014801
 1 -2.72785829172917  1.07547441104110  3.50922853405341
 1 -6.44192507540754  5.63785998819882  0.67830759345935
 1 -8.98346354545455  1.30934519601960 -2.97670305120512
 1 -3.61530859605961 -3.24345746244624  1.78544428652865
 1 -1.78068915491549 -1.31824943314331  2.77324949094910
 1 -2.77864718991899 -2.64137071797180  4.51192113801380
 1 -3.76834343444344 -1.16481859955996  4.79802593849385
 1 -4.48212988878888 -2.39815773377338  3.95829905250525
 1 -2.19254642024202 -3.28885193019302 -0.08056579117912
 1 -1.47656835653565 -1.73135176257626  0.58226906820682
 1 -0.54936932703270 -3.09906987928793  2.47581212231223
 1 -1.57139661826183 -4.31586842314231  1.66664570127013
 1 -1.90659931203120  3.61729641634163  3.83246562766277
 1 -2.91129878387839  4.91197083618362  4.61103676657666
 1 -3.11786171867187  3.35216841094109  5.03982095889589
 1 -5.31608546784678  6.82642062456246  2.09131124692469
 1 -9.98649263176318  2.83315046694669 -2.95074622922292
 1 -10.12362984588459  4.52950048454845 -3.07946093869387
 1 -9.49869563046305  4.00454835483548 -5.28972528312831
 1 -8.41093505950595  4.72447438803880 -4.67883756555656
 1 -8.07211748664866  3.33551786568657 -4.86457057175718
 1 -8.35613219481948 -0.84877813551355 -4.72560252925292
 1 -8.27529715761576 -2.59880694099410 -4.21152049594959
 1 -9.41210445954595 -1.53192982758276 -3.57067135223522
 1 -4.10838261426143 -3.64446026902690 -1.33611854195420
 1  2.64769271307131 -6.17103439653965  0.97475586348635
 1  2.36236956355636 -5.24099262566257 -0.40444587968797
 1  3.57320330273027 -3.91818194049405  2.10570893499350
 1  2.68608606050605 -3.38407996289629 -1.44328697879788
 1  3.67142448044804 -1.93177787838784 -1.87472569006901
 1  4.54278678607861 -3.52506436273627 -1.61295275257526
 1  4.83991786078608 -1.41830737533753  0.43926431753175
 1  5.07845020342034 -2.57158147534754  1.69553343964396
 1  6.75542476247625 -3.68894319381938  0.48018734043404
 1  6.60272911241124 -2.72194441044104 -0.74194388058806
 1  7.29465026662666 -0.67364391869187  0.61327008030803
 1  7.51132004220422 -1.67817606610661  1.93709118151815
 1  8.98429432903290 -2.03079111981198 -0.98246646534653
 1  9.11562372777278 -4.14945380528053  0.09713724352435
 1  10.60430345974597 -3.48279163386339  0.00046246434643
 1  9.81200794839484 -3.65761148974898  1.31684264726473
 1  9.53592465336534  0.08557696809681  0.07094626902690
 1  10.05417437603760 -0.82006032533253  1.49572050935094
 1  11.79069100020002 -1.78618594029403  0.16503719591959
 1  11.18088402860286 -0.80590222572257 -1.22903374707471
 1  11.59291931003100  1.19324239603960 -0.15532274267427
 1  12.47663842254225  0.27549883318332  1.15104427952795
 1  13.23961470377038  0.46340108290829 -1.72086829162916
 1  14.60003023022302 -1.16960997829783  0.70390548804881
 1  14.05161554805481 -1.63254643354335 -0.99361561566157
 1  15.46529638613861 -0.56476980468047 -0.81053345634563
 1  13.35772501810181  2.61861016021602 -0.51005088238824
 1  14.45689330153015  1.88361477597760  0.58028685598560
 1  16.18337706480648  1.34436989848985 -0.80040785578558
 1  15.11675647114711  2.16535478687869 -2.11729526042604
 1  15.22638410051005  4.36628983668367 -0.89591087108711
 1  16.42298193209321  3.50823678307831  0.28349080788079
 1  17.94107392419242  2.91200470897090 -1.40839522742274
 1  16.60461759855986  5.21327860676068 -3.20925520442044
 1  18.11579396929693  4.21711810501050 -3.30078751235124
 1  16.67451213651365  3.29331424262426 -3.43502405560556
 1  17.80306818081808  4.78301895489549  0.24512367806781
 1  18.87595520632063  5.40215644214421 -1.36020816191619
 1  17.45225779557956  6.08225263536354 -0.90662901500150
 1 -4.80653853845385 -7.81531263066307 -0.27148146414641
 1 -6.73216370767077 -7.05263464486449  0.32683252655266
 1 -4.94456667406741 -6.74237411361136  1.25076794519452
 8 -7.83714660996100  6.87633766516652 -0.34499792819282
 1 -9.09948333213321  6.49197661336134 -1.85937440494049

