%nproc=3
%Mem=2GB
# td=(NStates=1) iop(3/107=0140000000,3/108=0140000000) iop(3/107=0140000000,3/108=0140000000) CAM-B3LYP/6-31G(d,p) 

TD

0 1
12 -5.54131986318632  1.19098912661266  0.11597426622662
 6 -5.02841296309631 -2.08928289298930 -0.33926699179918
 6 -3.56321778167817  1.14096663816382  2.77579901810181
 6 -6.10139656195620  4.60066808990899  0.53936629782978
 6 -7.91462238023802  1.11034971737174 -2.44541863576358
 7 -4.45836292079208 -0.25480140324032  1.06184635163516
 6 -4.29089430983098 -1.55555673707371  0.70798451695169
 6 -3.19201060276028 -2.27812901150115  1.54947053565357
 6 -2.97976213161316 -1.44084475417542  2.66339312591259
 6 -3.62664946494649 -0.07536668926893  2.17668832743274
 6 -3.70569267726773 -1.84405109770977  3.96148400780078
 6 -2.02321716501650 -2.69936392959296  0.64406859295930
 6 -0.95301306420642 -3.61501658955896  1.47140101700170
 6  0.28069393679368 -3.85476034813481  0.70454861596160
 8  0.52683653755376 -3.39911960076008 -0.38658867426743
 8  1.12070375257526 -4.66099124392439  1.44905089358936
 7 -4.88714726572657  2.65033527022702  1.48490517711771
 6 -4.05668975617562  2.45779379537954  2.51558678447845
 6 -3.76028656585659  3.68276835933593  3.24903384778478
 6 -4.43225898159816  4.67870633613361  2.50197608180818
 6 -5.21845120752075  4.02600727722772  1.38865401730173
 6 -3.01165979087909  3.71029811351135  4.47772164266427
 6 -4.38600130013001  6.00167020122012  2.91499693649365
 8 -3.83414590189019  6.55685051525152  3.86389036153615
 7 -6.77409905950595  2.62198013051305 -0.77696036373637
 6 -6.87044924272427  3.97036744224422 -0.44691289438944
 6 -7.86997213741374  4.66437749454945 -1.28105091419142
 6 -8.40334336713671  3.74112324242424 -2.08188274067407
 6 -7.62503631513151  2.45590376447645 -1.82392616241624
 6 -8.31037331603160  6.07159852955296 -1.11684281888189
 6 -9.46584306270627  3.84506544484448 -3.21830437903790
 6 -8.72805178587859  3.89403076617662 -4.64301754845484
 7 -6.43571933923392 -0.11066624682468 -1.04336535693569
 6 -7.45597920462046 -0.05696660226023 -2.02507843044304
 6 -7.62056517311731 -1.33980913361336 -2.72572559715972
 6 -6.73337882158216 -2.10269404270427 -2.02226143604360
 6 -6.05208313181318 -1.44081811131113 -0.98216608130813
 6 -8.66046142084208 -1.67753754235424 -3.71106202560256
 6 -6.28034166126613 -3.61614072007201 -2.00632602650265
 8 -6.71424466506651 -4.56053102320232 -2.61946219191919
 6 -5.12130238373837 -3.51030279697970 -0.94766138693869
 6 -5.38204533213321 -4.69624482608261  0.11569872087209
 8 -5.75638982158216 -4.53802973637364  1.22098921922192
 8 -5.10081004420442 -5.84361824592459 -0.42922709410941
 6 -5.33756710591059 -7.02571616271627  0.34203173797380
 6  2.32846952855285 -5.01910817101710  0.72373035433543
 6  3.48225153525353 -4.15431693099310  1.01059234503450
 6  4.11897100080008 -3.39241906280628  0.15120749574957
 6  3.86808170547055 -3.39780296869687 -1.34934260306031
 6  5.18065227122712 -2.38852312051205  0.61251310221022
 6  6.47850345504550 -2.72396734973497  0.03026335223522
 6  7.64514364106411 -1.76433807960796  0.52640647524752
 6  9.06944555305531 -2.03451943394339 -0.07319403260326
 6  9.70704778487849 -3.37678758125813  0.20460358535854
 6  10.04504994059406 -0.78826944784478  0.33053101650165
 6  11.33270642794279 -0.73641643674367 -0.37633294389439
 6  12.20052767336734  0.35079426992699  0.13988477667767
 6  13.56799619371937  0.46659634653465 -0.55640539773977
 6  14.37627580058006 -0.79938066806681 -0.29492617781778
 6  14.35389532773277  1.76938171037104 -0.11740938333833
 6  15.40019930083008  2.15165710101010 -1.03096020372037
 6  16.03956357605761  3.51575408540854 -0.60206129912991
 6  17.34827922262226  3.90304922042204 -1.45460650845084
 6  17.07604658675868  4.20506606930693 -2.88505082508251
 6  18.04003742294229  5.20634876087609 -0.81698265526553
 1 -3.16841234713471  1.19988685228523  3.87420503170317
 1 -6.26624750765076  5.66554275647565  0.78371813451345
 1 -8.55084028312831  1.02578684018402 -3.34407978887889
 1 -3.65262232743274 -3.31097421412141  1.85571131323132
 1 -1.90840192619262 -1.18435604380438  2.59594176017602
 1 -3.21576090129013 -2.75137171807181  4.37819776567657
 1 -3.61936853695370 -1.07019913761376  4.65938207410741
 1 -4.76160783658366 -1.94262218021802  3.59191241384138
 1 -2.69960712631263 -3.30422346734673 -0.15193292789279
 1 -1.80202090179018 -1.59156778417842  0.26393723502350
 1 -0.75265965606561 -2.88844881718172  2.26643118421842
 1 -1.32990246884688 -4.72841967826783  1.78871790849085
 1 -1.87875652775278  3.44947963466347  4.37805018611861
 1 -3.08452610661066  4.60421006010601  4.93160882378238
 1 -3.33187311981198  2.94113730783078  5.39263624042404
 1 -5.04421828112811  6.67815579807981  2.19858197399740
 1 -10.06953093559356  2.86675382728273 -3.34782593719372
 1 -10.19792727562756  4.75445297979798 -2.87146013861386
 1 -9.46229199009901  4.02820072007201 -5.46796310691069
 1 -8.06684065006501  4.85362730333033 -4.75310499229923
 1 -7.95569584448445  3.05140945484548 -4.83134724942494
 1 -8.44673125472547 -1.15228848654865 -4.57959792879288
 1 -8.47374700260026 -2.81234829512951 -3.97431677557756
 1 -9.75491874097410 -1.48714534913491 -3.14937922302230
 1 -4.09107088308831 -3.87296311931193 -1.46810174027403
 1  2.55412335613561 -6.11539883298330  1.04962335023502
 1  2.12729605620562 -5.13711223762376 -0.31201663676368
 1  4.14986096849685 -4.19809993229323  2.13402176627663
 1  2.96894434633463 -3.56678823372337 -1.54493714381438
 1  4.00179751775177 -2.24549925052505 -1.59594781228123
 1  4.73882639003900 -3.86590844714471 -1.94565602290229
 1  5.01181505050505 -1.32316786138614  0.38650904200420
 1  5.03004536293629 -2.17355167236724  1.69867375367537
 1  6.58832805280528 -3.83317761726173  0.40746006770677
 1  6.31695053455345 -2.64809702570257 -1.09338902510251
 1  7.40010081168117 -0.65471202550255  0.40333908720872
 1  7.76879578977898 -1.68864711321132  1.68829630203020
 1  8.81215711531153 -2.09960800150015 -1.19018723742374
 1  8.89294145954596 -4.07234609450945 -0.04884735493549
 1  10.52951598099810 -3.73693704840484 -0.49817739963996
 1  10.07364411201120 -3.59837556615662  1.39379034203420
 1  9.57436849774977  0.25687409780978  0.11411058545855
 1  10.10214917351735 -0.74786310561056  1.48217915521552
 1  11.85901783288329 -1.66345366706671 -0.34493380118012
 1  11.29753569376938 -0.81835347084709 -1.50924176787679
 1  11.76942696079608  1.34381745354535 -0.01503871427143
 1  12.43645440414041  0.38246953025302  1.39389856495650
 1  13.38315905820582  0.63430817361736 -1.48807501230123
 1  14.84807503470347 -0.77513053035304  0.73571866936694
 1  13.84049443594360 -1.83838701760176 -0.49604585868587
 1  15.31991184768477 -0.98668199589959 -0.79866226922692
 1  13.67006625222522  2.68067636683668  0.18845896859686
 1  14.76916452865287  1.58802521702170  1.02267109440944
 1  16.16877560466046  1.37081254275428 -1.16871468646865
 1  14.89479427492749  2.39519777117712 -2.15369890079008
 1  15.42123358545854  4.42587579527953 -0.78240952095210
 1  16.48645827972797  3.42691865126513  0.47671012981298
 1  18.06482629942994  3.14099760826083 -1.23581796969697
 1  16.14048118491849  4.89229650855085 -2.81789606850685
 1  17.95444783468347  4.44263065626563 -3.32873030663066
 1  16.71264594989499  3.14399931113111 -3.42630318351835
 1  18.49294716871687  4.86144679767977  0.11587075277528
 1  18.82829043984399  5.54492071857186 -1.55457759885989
 1  17.29256182598260  5.96715112521252 -0.82895124722472
 1 -4.90934881948195 -7.82338343774377 -0.45092940894089
 1 -6.34243473477348 -7.08792817421742  0.71085092839284
 1 -4.74977719511951 -6.77143701990199  1.30426329472947
 8 -7.99466236153615  6.88281831323132 -0.27957138553855
 1 -9.16967035083508  6.35891330703070 -1.78079654715471

