%nproc=3
%Mem=2GB
# td=(NStates=1) iop(3/107=0140000000,3/108=0140000000) iop(3/107=0140000000,3/108=0140000000) CAM-B3LYP/6-31G(d,p) 

TD

0 1
12 -5.70732646384638  1.22374240194019  0.24002667146715
 6 -4.96571669346935 -2.12420638533853 -0.42989605470547
 6 -3.41953341324132  1.21130367186719  2.76903834203420
 6 -6.38830525282528  4.55196321942194  0.76491885308531
 6 -7.98297921592159  1.26250493289329 -2.34965905980598
 7 -4.32613969846985 -0.22441836493649  1.00435060206021
 6 -4.27445266566657 -1.52909409080908  0.62030574907491
 6 -3.20249165086509 -2.25232643124312  1.55815140374037
 6 -2.96830098549855 -1.27380805050505  2.56874366096610
 6 -3.64210101010101  0.02116296369637  2.16406706530653
 6 -3.57995010301030 -1.66105279787979  3.91511937133713
 6 -1.92798764206421 -2.65806980018002  0.74890907700770
 6 -0.89112687558756 -3.53323841174117  1.54765864276428
 6  0.26460232763276 -3.92151702380238  0.66660482158216
 8  0.46640049394939 -3.53865355415542 -0.45501551695170
 8  1.13662534473447 -4.82041718651865  1.27946393489349
 7 -4.97180573157316  2.60341057775778  1.51931861846185
 6 -3.98308239543954  2.42258027402740  2.55382060786079
 6 -3.76980751795180  3.69011909440944  3.18395734013401
 6 -4.52428818451845  4.67398586408641  2.66312219641964
 6 -5.36565592799280  4.01378605510551  1.57092224412441
 6 -2.73390201510151  3.82935001870187  4.28244211471147
 6 -4.79553225322532  6.01040107430743  2.99963540034003
 8 -4.21086357365737  6.53633846404640  3.91726569906991
 7 -6.86091774137414  2.65269320182018 -0.65966863456346
 6 -6.98562075987599  3.86485689118912 -0.35190339343934
 6 -7.95376051625163  4.55719677647765 -1.19522233133313
 6 -8.38047107990799  3.65369449954995 -2.04441899429943
 6 -7.71137494899490  2.44231240534053 -1.68082185198520
 6 -8.16321860056006  6.07018838853885 -1.18005914051405
 6 -9.38427490589059  3.78033897219722 -3.23260580918092
 6 -8.66902588328833  4.06097746084609 -4.51991523822382
 7 -6.46582234953495 -0.13610879107911 -1.13378439883988
 6 -7.40907451415142 -0.05536644224422 -2.09009493209321
 6 -7.58651176777678 -1.36249140184018 -2.79117214181418
 6 -6.67044252795280 -2.19608338163816 -2.14317352725273
 6 -5.95991391489149 -1.47181121062106 -1.09271713641364
 6 -8.49919529422942 -1.67020680928093 -3.91476239563956
 6 -6.17513114021402 -3.56941604760476 -2.10442583648365
 8 -6.58003124372437 -4.57904287438744 -2.59241948764876
 6 -4.99205945944594 -3.63941570827083 -1.03008962976298
 6 -5.23961108870887 -4.62265746734673  0.01237838883888
 8 -5.65014919751975 -4.55778171157116  1.19459657995800
 8 -5.01844180738074 -5.84698858295830 -0.44210838223822
 6 -5.36932028122812 -6.89262285338534  0.32557009180918
 6  2.39145582718272 -5.08016427662766  0.72549053035304
 6  3.48832214231423 -4.10623212251225  1.05127641344134
 6  4.04912401610161 -3.18607842874287  0.19967234223422
 6  3.67458235553555 -3.07865105350535 -1.26207387618762
 6  5.21211541754175 -2.37110137833783  0.65411726262626
 6  6.59046465116512 -2.65668062106211  0.03872419831983
 6  7.71635076177618 -1.72629427522752  0.53599743434343
 6  8.97335594409441 -2.04757073907391  0.04469775657566
 6  9.60590767086709 -3.40058996149615  0.37876100110011
 6  10.06383181878188 -0.83429405030503  0.40832879627963
 6  11.34176733403340 -0.80525332043204 -0.36836214681468
 6  12.24389200980098  0.28253744424442  0.20300108830883
 6  13.60863025712571  0.38066775367537 -0.47998775597560
 6  14.58284645764576 -0.80508123812381 -0.23105979117912
 6  14.30553049124912  1.61266603880388 -0.12762040444044
 6  15.53677295819582  2.02667460276028 -1.01426853455346
 6  15.95817543724372  3.43950646064607 -0.67236832983298
 6  17.26696109080908  3.95675459095910 -1.50404145194519
 6  16.96857583968397  3.94010957365737 -3.00305262526253
 6  17.71698511771177  5.32144027002700 -1.05925688268827
 1 -2.62545805170517  1.27571443504350  3.78196580778078
 1 -6.58060894379438  5.64557075927593  0.83338310101010
 1 -8.68276347544754  1.40828509000900 -3.04682006290629
 1 -3.77525459065907 -3.09480259695970  2.01077681978198
 1 -1.87933901990199 -1.30673828202820  2.67966013201320
 1 -2.86898622382238 -2.48752533343334  4.31098104400440
 1 -3.48342494259426 -0.65739785748575  4.60221635753575
 1 -4.65175685148515 -2.03534145214521  3.87161038363836
 1 -2.24273143874387 -3.29119216421642 -0.14007174177418
 1 -1.59536023572357 -1.77326595399540  0.22378321962196
 1 -0.56124051415142 -3.07599757205721  2.35684022512251
 1 -1.37971745034503 -4.32683952025202  1.85060409710971
 1 -1.69185783788379  3.52504719141914  3.86253863496350
 1 -2.57343499749975  4.80248988808881  4.77397306020602
 1 -2.79784971747175  3.02616581068107  5.05436241304130
 1 -5.41668552785278  6.73399138163816  2.39295141094109
 1 -10.02355633813381  2.84977212911291 -3.22392354695470
 1 -9.99457694059406  4.52565009950995 -3.04712770537054
 1 -9.34017977887789  4.34551245124512 -5.25455176577658
 1 -7.94095806180618  4.81523346394640 -4.28092777457746
 1 -7.80580085498550  3.32340665456546 -4.79848396309631
 1 -8.21766834843485 -1.06095935363536 -4.77093706270627
 1 -8.48142777067707 -2.69527658795880 -4.50049939383938
 1 -9.61213446254625 -1.50741737633763 -3.65828011311131
 1 -3.94971674767477 -4.07368319131913 -1.41976690679068
 1  2.60782872667267 -6.09971726482648  1.03634202210221
 1  2.33685701230123 -5.22905143154315 -0.45071050615062
 1  3.74628061046105 -4.06060618291829  2.09504786888689
 1  2.59776722862286 -3.13599515441544 -1.38254090419042
 1  4.22917025502550 -2.09273397399740 -1.45978419591959
 1  4.16460896829683 -3.88660051635164 -1.82999445674567
 1  4.96911078007801 -1.27535307990799  0.27022741384138
 1  5.22466482488249 -2.24807912511251  1.77780166646665
 1  6.62363158315832 -3.76795109460946  0.33921324302430
 1  6.44319315881588 -2.52820503650365 -0.99154884108411
 1  7.31142194379438 -0.72125868016802  0.28377713101310
 1  7.92177108730873 -1.71785003350335  1.68903637603760
 1  8.94582048164817 -2.16879492019202 -1.15435365406541
 1  9.03047521292129 -4.28820768066807 -0.01785425562556
 1  10.48755178457846 -3.45281863656366  0.00759317741774
 1  9.60686743434343 -3.49225495409541  1.50586154915492
 1  9.42952401330133  0.08787719811981  0.12450162456246
 1  10.09443840244024 -0.93946226552655  1.50735167246725
 1  11.85437736883688 -1.84121144284428 -0.23004231203120
 1  11.12145808600860 -0.94194583008301 -1.48184902860286
 1  11.82402242034203  1.26447951975198  0.09688247784778
 1  12.33479423812381  0.33859514281428  1.36783595869587
 1  13.54360510281028  0.37228197099710 -1.63050925572557
 1  15.00248047524753 -0.88796181348135  0.81518661616162
 1  13.94416480298030 -1.69800297919792 -0.40717697179718
 1  15.51570142664266 -0.68909223692369 -0.86022842584258
 1  13.51081032663266  2.26732503170317 -0.07651752905291
 1  14.73108072027203  1.60533694819482  0.91771059835984
 1  16.39772849995000  1.27723318481848 -0.78341615661566
 1  15.30831562706271  2.07149540094009 -2.01133466436644
 1  15.19308077017702  4.14896810451045 -0.83807508750875
 1  16.29389902380238  3.51588754815482  0.42521498029803
 1  18.20418023482348  3.37781128962896 -1.34534892279228
 1  16.20249738653865  4.71095837473747 -3.47473175207521
 1  17.92865525542554  4.36476286948695 -3.47130456405641
 1  16.75721040634063  2.96428133933393 -3.38061861506151
 1  17.82498037203720  5.14964561756176  0.00509967566757
 1  18.80785839663966  5.43172939943994 -1.36383852495250
 1  17.05899846964697  6.20764517461746 -1.25543389548955
 1 -5.52147003160316 -7.95362646204620 -0.37357167316732
 1 -6.44205469676968 -6.59241862326233  0.95698554185419
 1 -4.57797001440144 -7.01567144334433  1.12330519891989
 8 -7.72144503980398  6.82795282668267 -0.42738616701670
 1 -8.95046843064306  6.18549596529653 -2.02567103460346

