%nproc=3
%Mem=2GB
# td=(NStates=1) iop(3/107=0140000000,3/108=0140000000) iop(3/107=0140000000,3/108=0140000000) CAM-B3LYP/6-31G(d,p) 

TD

0 1
12 -5.66377210841084  1.22716274397440  0.14512718151815
 6 -5.11516163796380 -2.23158712341234 -0.23575664076408
 6 -3.38571003090309  1.13892643414341  2.75993743194319
 6 -6.15853227552755  4.51233925702570  0.69015137633763
 6 -8.03820473847385  1.16501518391839 -2.49005309920992
 7 -4.40078716321632 -0.26748267136714  1.02007217421742
 6 -4.26623184358436 -1.58675985738574  0.74484820332033
 6 -3.22291369306931 -2.33433463206321  1.48588417701770
 6 -2.85928008340834 -1.30366103580358  2.60051683828383
 6 -3.57467426742674 -0.11844099669967  2.18588924752475
 6 -3.40345245324532 -1.83893058565857  3.98424628402840
 6 -1.98286312961296 -2.73619761296130  0.62214640074007
 6 -1.02147991089109 -3.64791987988799  1.47737161406141
 6  0.25194106150615 -3.97575244734473  0.61984014511451
 8  0.46247010091009 -3.40134982378238 -0.41838185358536
 8  1.03528521072107 -4.78440358515852  1.20267625612561
 7 -4.87895644664466  2.59030926762676  1.45357204380438
 6 -3.97934202140214  2.42250026602660  2.46357158295830
 6 -3.70092062926293  3.62484256675668  3.17201614601460
 6 -4.34449020472047  4.65517398289829  2.52403828802880
 6 -5.15873523592359  3.93671834833483  1.44733988588859
 6 -2.66702532743274  3.74954203790379  4.21845571607161
 6 -4.49896259625963  6.01720175437544  2.95983141994199
 8 -4.00296278357836  6.59284411461146  3.87281125362536
 7 -6.84189583918392  2.63898183068307 -0.82277494519452
 6 -6.97606980478048  3.97250765626563 -0.41733993709371
 6 -7.90231537173717  4.64700575737574 -1.31052386148615
 6 -8.37956098889889  3.71123025312531 -2.05252980538054
 6 -7.67212102360236  2.48330650475047 -1.77787155695570
 6 -8.29795207390739  5.99393076277628 -1.05119625422542
 6 -9.43612009040904  3.84594553285329 -3.13815636423642
 6 -8.81334031473147  3.92884424752475 -4.47904115081508
 7 -6.46997276457646 -0.15046022622262 -1.01653267366737
 6 -7.39283288998900  0.00200929532953 -2.04762068466847
 6 -7.49940305690569 -1.28540369306931 -2.73609663426343
 6 -6.63989947364737 -2.19944371767177 -2.08349755965597
 6 -6.04227215071507 -1.34844887438744 -1.08727659235924
 6 -8.43549892459246 -1.41368115671567 -3.89248016741674
 6 -6.23678730583058 -3.55235434143414 -2.12169756365637
 8 -6.42523576417642 -4.52527749784979 -2.77961820752075
 6 -5.10399065256526 -3.62065383208321 -0.91680830163016
 6 -5.38412554015401 -4.62012721432143  0.10984813581358
 8 -5.62977716031603 -4.49193512691269  1.24841196149615
 8 -5.16242620582058 -5.91157504160416 -0.44624879627963
 6 -5.44460780998100 -6.98762235333533  0.58066560136014
 6  2.32332901450145 -5.06552281248125  0.67555553685369
 6  3.33848715881588 -4.02469396869687  1.06036732253225
 6  4.02308141184118 -3.23516333723372  0.29189156415642
 6  3.80464536183618 -3.16123931233123 -1.22132980178018
 6  5.15412961896190 -2.39294356255626  0.80792264316432
 6  6.56026163086309 -2.71075602860286  0.06374670057006
 6  7.67076620332033 -1.82504415021502  0.68291212581258
 6  8.95003361186119 -2.00246622862286 -0.02183889708971
 6  9.58605568566857 -3.30177007950795  0.24166729172917
 6  10.00408584418442 -0.88254887578758  0.40807877127713
 6  11.40738389568957 -0.86920971607161 -0.17815312591259
 6  12.24473209380938  0.34364355485549  0.21611239943994
 6  13.51448084218422  0.49502918981898 -0.52681243844384
 6  14.51086925992599 -0.73228395839584 -0.25480216541654
 6  14.21215115331533  1.82461723392339 -0.19005664806481
 6  15.40879015991599  2.13812574787479 -0.93754086178618
 6  15.93075269496950  3.55067757775778 -0.68504959795980
 6  17.19380377507751  3.86120503600360 -1.50733178097810
 6  16.91688067016702  4.10157572027203 -3.05458777877788
 6  17.91548496769677  5.22715084108411 -0.92962391939194
 1 -2.57526303220322  1.32611947554755  3.35667327852785
 1 -6.25488637153715  5.40519672187219  0.78078784148415
 1 -8.72085728482848  1.06499076057606 -3.18431381228123
 1 -3.69365643084308 -3.15248836553655  1.90334607670767
 1 -1.67535862186219 -1.13051065926593  2.64674684068407
 1 -3.09506883208321 -2.98013459435944  4.16691663756376
 1 -3.10441704180418 -1.23027514521452  4.82541867776778
 1 -4.51829350515052 -1.93136105410541  3.90697391999200
 1 -2.45746291189119 -3.35247829282928 -0.19128686328633
 1 -1.45115581528153 -1.87620624802480  0.10000084138414
 1 -0.77339172927293 -3.14285425772577  2.28100264136414
 1 -1.70805028362836 -4.50580741704170  1.69803884058406
 1 -1.79004765686569  3.36262094879488  4.00231261236124
 1 -2.43614126812681  4.72521216031603  4.44753041594159
 1 -3.03662359485949  3.30355354945495  5.24220119691969
 1 -5.01116497579758  6.64955293779378  2.20855297109711
 1 -9.92402638513851  2.76465361726173 -3.31297245184519
 1 -10.16887437033703  4.84617215171517 -3.01334432703270
 1 -9.43095885678568  3.98460636063606 -5.36922323292329
 1 -8.28351231723172  5.06075801640164 -4.71422110391039
 1 -7.98000827572757  3.27834214811481 -4.68766288098810
 1 -8.17080366196620 -0.81776503420342 -4.69937990699070
 1 -8.14489411731173 -2.47526458675868 -4.17195653955396
 1 -9.59698294739474 -1.15808244284428 -3.44017830293029
 1 -4.19277105310531 -3.94021984498450 -1.16640157025703
 1  2.56247419121912 -6.09922721582158  0.78941732963296
 1  2.12181550815082 -5.06889541594160 -0.38295373047305
 1  3.61311729412941 -3.86601672397240  1.96381474557456
 1  2.58037548944894 -3.25848740364036 -1.49517216731673
 1  4.15766310431043 -2.12802750335034 -1.67348556605661
 1  4.40764327172717 -4.06851870817082 -1.68052951025102
 1  4.72655652465247 -1.43791933653365  0.71411180228023
 1  5.32265462386239 -2.54179849704970  1.91762564886489
 1  6.51781100110011 -3.85976027552755  0.03606292799280
 1  6.48595743524352 -2.44874709070907 -0.95824551075108
 1  7.41357215881588 -0.80692724702470  0.66497525082508
 1  7.71960087028703 -2.05504375287529  1.71606907930793
 1  8.63439933953395 -1.90629867056706 -1.11075929462946
 1  8.73050521592159 -3.95441430133013  0.20572810261026
 1  10.58548157755776 -3.43345670037004 -0.22332991489149
 1  10.11213796139614 -3.26577230583058  1.28502946594659
 1  9.60780184108411  0.08365677607761  0.14540371477148
 1  10.09720867946795 -0.82740105940594  1.56752769006901
 1  11.83977590869087 -1.91316863856386 -0.16101540934093
 1  11.10956689688969 -0.78097973347335 -1.25887673137314
 1  11.38566858495849  1.15277834963496  0.25819860946095
 1  12.45244600330033  0.20431171447145  1.31101027612761
 1  13.22671341364136  0.62060680348035 -1.48454465926593
 1  14.77797802500250 -0.85914893219322  0.76769186668667
 1  13.95898628512851 -1.54056723562356 -0.66020227432743
 1  15.24500435693569 -0.83054638233823 -0.85858826182618
 1  13.44827407300730  2.54933323252325 -0.26668654595460
 1  14.40065767796780  1.67519393389339  1.05896472377238
 1  16.31072980008001  1.47381284278428 -0.80961877687769
 1  15.03807860336034  1.93009126052605 -1.89186271717172
 1  15.19478094019402  4.26071927962796 -0.73628490849085
 1  16.26885651955195  3.68652461186119  0.38185064386439
 1  17.93258307510751  2.91663517201720 -1.46571095899590
 1  16.21578871567157  5.10211749064907 -3.09682396129613
 1  17.88699108900890  4.22091848504850 -3.51655908950895
 1  16.39888457375737  3.27907281848185 -3.58629918311831
 1  18.04923279727973  5.06146679967997  0.07093625932593
 1  18.76900451125113  5.48015424192419 -1.56850899199920
 1  17.08443101290129  6.05957036713671 -0.95569392149215
 1 -5.09867775237524 -7.84941604100410 -0.11512582858286
 1 -6.49253974527453 -7.06590597199720  0.75748559185919
 1 -4.46354857225723 -6.79520939713971  1.37129999839984
 8 -7.84067696299630  6.81727175857586 -0.38454188258826
 1 -9.12512589638964  6.19337675337534 -1.77425589308931

