%nproc=3
%Mem=2GB
# td=(NStates=1) iop(3/107=0140000000,3/108=0140000000) iop(3/107=0140000000,3/108=0140000000) CAM-B3LYP/6-31G(d,p) 

TD

0 1
12 -5.67403313451345  1.22924295199520  0.20424309310931
 6 -4.96811693349335 -2.12484644934493 -0.33935700080008
 6 -3.48346980688069  1.21964450595059  2.77856929512951
 6 -6.36437285958596  4.59162718581858  0.67940030123012
 6 -7.93846476447645  1.12999168156816 -2.36148024192419
 7 -4.31109819431943 -0.23075899899990  1.02941310831083
 6 -4.16444166456646 -1.56598778017802  0.69774349284929
 6 -3.14253565526553 -2.34614581318132  1.46464205280528
 6 -2.91509566496650 -1.29939060876088  2.75085187178718
 6 -3.67810461046105 -0.01201035363536  2.23571423002300
 6 -3.50729283728373 -1.72346903950395  4.06915477487749
 6 -1.86402124542454 -2.53342733593359  0.75845003110311
 6 -0.85587335023502 -3.54217930583058  1.48702257915792
 6  0.32573844124412 -3.91343621572157  0.55433359445945
 8  0.43658751265127 -3.41998168696870 -0.58057807320732
 8  1.12658434063406 -4.81325647044704  1.12626861536154
 7 -4.93011156215622  2.69187942464246  1.47475416201620
 6 -4.06616070327033  2.48507652365237  2.52600782658266
 6 -3.70248078527853  3.72814289678968  3.13326227062706
 6 -4.68872462816282  4.60340880638064  2.52484836903690
 6 -5.34255361776178  3.99272394889489  1.51799695159516
 6 -2.73436206110611  3.93430051375138  4.21379525002500
 6 -4.77703040304030  5.96979701390139  2.90733617041704
 8 -4.14146663396340  6.51464629482948  3.88479245174517
 7 -6.99001065066507  2.60929886238624 -0.71698436613661
 6 -7.11720391819182  3.95344575007501 -0.33852205530553
 6 -8.02058719891989  4.64747580438044 -1.26084889398940
 6 -8.52379541234123  3.58184731483148 -2.05769032143214
 6 -7.80310412191219  2.39482765686569 -1.73261703150315
 6 -8.45011729042904  5.99970133983398 -1.16268740334033
 6 -9.46578305670567  3.72590352865287 -3.19631217981798
 6 -8.80652963366337  4.07149851295129 -4.58164141084108
 7 -6.47332309960996 -0.14505968616862 -1.08728974937494
 6 -7.29265287198720 -0.08556946254625 -2.11153707630763
 6 -7.46474959155916 -1.40873602630263 -2.74744776937694
 6 -6.54643012671267 -2.18960273357336 -2.03434264416442
 6 -5.93254117761776 -1.39881391089109 -1.07203506820682
 6 -8.37017239193919 -1.64215400400040 -3.95377629702970
 6 -6.22147577467747 -3.59505861186119 -1.93331872577258
 8 -6.46035927652765 -4.52049701980198 -2.65258550425043
 6 -4.97817807130713 -3.50222198889889 -0.85516213701370
 6 -5.22947007460746 -4.61653685528553  0.22400955195520
 8 -5.59799398199820 -4.45097103050305  1.34433155345535
 8 -5.02526248944895 -5.83424730883088 -0.41037520892089
 6 -5.35192854205421 -6.92283587468747  0.45055259005901
 6  2.36233291489149 -5.10996725692569  0.47146512781278
 6  3.42604591469147 -4.23257475677568  1.05012629842984
 6  4.03888299199920 -3.29841966286629  0.15015739073907
 6  3.69056395369537 -3.06029921832183 -1.28435610441044
 6  5.10658486448645 -2.45059932813281  0.72288413931393
 6  6.40953655835584 -2.69197415041504  0.08560888678868
 6  7.68583771047105 -1.84334598039804  0.58335216981698
 6  9.00339894839484 -1.98697467946795 -0.05441215441544
 6  9.67809488958896 -3.37124702720272 -0.00368724372437
 6  9.93648908450845 -0.74704532543254  0.37066502990299
 6  11.22338549584958 -0.73089588468847 -0.33612892349235
 6  12.24020164076408  0.27061625212521  0.16474726292629
 6  13.56050544464446  0.47128681558156 -0.54942469966997
 6  14.45135330833083 -0.82048277827783 -0.30792747794779
 6  14.34657459565957  1.77149192139214 -0.08128577097710
 6  15.55893517441744  2.03066500180018 -0.97338444614461
 6  16.26348596829683  3.36611912191219 -0.58442953595360
 6  17.39177357205720  3.82966188168817 -1.36566761456146
 6  17.12513149524953  3.87090265296530 -2.93494581458146
 6  18.05564898409841  5.14614274027403 -0.81660261726173
 1 -2.81023652955295  1.19586645024502  3.56348395959596
 1 -6.45597648054805  5.73711991419142  0.56277604030403
 1 -8.64983018211821  1.22057631913191 -3.31170655155516
 1 -3.55936300150015 -3.08973208990899  1.86194193629363
 1 -1.71639272527253 -1.08205581378138  2.72416458245825
 1 -2.98080740594059 -2.55738231913191  4.39366931283128
 1 -3.67348394849485 -0.78096021372137  4.71991812771277
 1 -4.58716039183918 -2.05733365136514  3.99251247384738
 1 -2.03866103170317 -2.94513755875588 -0.19593732833283
 1 -1.32179287898790 -1.63364199159916  0.76391723302330
 1 -0.54191858195820 -2.99276924922492  2.19077361846185
 1 -1.37736721532153 -4.46294313061306  1.87098613531353
 1 -1.75169382148215  3.39693438013801  3.80421280238024
 1 -2.75294294829483  5.14305394449445  4.49003466636664
 1 -2.96548648114811  3.43180637473747  5.10917789458946
 1 -5.35141900120012  6.78318630113011  2.38435055085509
 1 -9.99446342884288  2.74856200810081 -3.31545269986999
 1 -10.01440892379238  4.41700923542354 -2.87470046264626
 1 -9.59002476337634  4.17831573157316 -5.38462477307731
 1 -8.02878684468447  5.05577751835184 -4.40444012581258
 1 -8.13903417831783  3.22460677457746 -4.73234734943494
 1 -8.14210079167917 -1.12427568526853 -4.88824879387939
 1 -8.44439406730673 -2.79609666996700 -4.16884622852285
 1 -9.46385963506351 -1.24455108970897 -3.71711599669967
 1 -4.06629840584058 -3.77451327432743 -1.32553748384839
 1  2.64480242404240 -6.05150244334433  0.67232562046205
 1  2.21572489908991 -4.96334486088609 -0.63793922902290
 1  3.59580556295629 -4.29260938323832  2.02123048714871
 1  2.66253370527053 -3.28218977387739 -1.63944659475948
 1  4.02078941694169 -2.03885858645865 -1.54326254375438
 1  4.21282378977898 -3.78723057935794 -1.81786324362436
 1  4.87745161416142 -1.20854639923992  0.73173356445645
 1  5.27443980238024 -2.40656497369737  1.70114400070007
 1  6.69429864986499 -3.84639893939394  0.40557987968797
 1  6.38265710521052 -2.43184540054005 -1.01662134833483
 1  7.68138894049405 -0.88809536383638  0.48995774907491
 1  7.80517942814281 -2.00953920242024  1.79318679107911
 1  8.75386128572857 -1.70632867356736 -1.03416163486349
 1  8.91837400280028 -4.06443530343034 -0.22545501570157
 1  10.60153318271827 -3.59898325302530 -0.75925350725073
 1  9.87359410701070 -3.62985871447145  1.06117708070807
 1  9.39560062096210  0.26371478187819  0.18224739913991
 1  10.08776773537354 -0.83628194749475  1.50002093939394
 1  11.60996292739274 -1.87989531123112 -0.15227453525353
 1  11.13954989518952 -0.64281591709171 -1.51404224792479
 1  11.77080709880988  1.24877794959496  0.11068385798580
 1  12.47294805350535  0.15490677397740  1.30528970407041
 1  13.29287002930293  0.57864260706071 -1.67276348114811
 1  14.45050527772777 -1.00963398069807  0.83461855935594
 1  14.07938832533253 -1.53966714561456 -0.81828808290829
 1  15.48024788128813 -0.62581590929093 -0.73432583558356
 1  13.42887213281328  2.46361466066607 -0.18070794809481
 1  14.45243285548555  1.57343375787579  1.02988181548155
 1  16.32144087118712  1.27198265976598 -1.08497631263126
 1  14.98251304680468  2.34635288668867 -1.99688321922192
 1  15.39901136323632  4.04251745944594 -0.72027330733073
 1  16.47065669956995  3.39879583898390  0.41844430323032
 1  18.19217903470347  2.86992050055006 -1.23766815471547
 1  16.21355849264926  4.55636291519152 -2.92535681458146
 1  17.84553694359436  4.37941433463346 -3.46241367496750
 1  16.68963364866487  2.83247815901590 -3.08630918411841
 1  18.19988786278628  5.27639829282928  0.22146131183118
 1  19.10725833663366  5.52902912941294 -1.39952209330933
 1  17.28244081388139  5.94801921202120 -0.89016736883688
 1 -5.26199408400840 -7.96385748514852 -0.24071838783878
 1 -6.24520501180118 -6.95881526292629  0.72066190949095
 1 -4.70258247564756 -6.83598347454746  1.27126999539954
 8 -8.05223811911191  6.85147517891789 -0.34053748214821
 1 -9.36007939173917  6.14501191689169 -1.84203267076708

