%nproc=3
%Mem=2GB
# td=(NStates=1) iop(3/107=0140000000,3/108=0140000000) iop(3/107=0140000000,3/108=0140000000) CAM-B3LYP/6-31G(d,p) 

TD

0 1
12 -5.70984671587159  1.20705073277328  0.25700836963696
 6 -5.16491661346135 -2.21152511721172 -0.30106317141714
 6 -3.29132059195920  1.15711825332533  2.61727316551655
 6 -6.10090651295130  4.56145416851685  0.62231459265927
 6 -7.97395831383138  1.13617229962996 -2.29760385428543
 7 -4.36916400090009 -0.31246716981698  1.03863403040304
 6 -4.30632585298530 -1.67467864926493  0.65596931543154
 6 -3.28270967266727 -2.34625582418242  1.42752834143414
 6 -2.83953810921092 -1.41641231093109  2.68885567216722
 6 -3.57982478247825 -0.07296644924492  2.16805746434643
 6 -3.43597570557056 -1.78494518711871  4.03902176157616
 6 -2.00081492479248 -2.76391038423842  0.66910109620962
 6 -0.91586934983498 -3.66365145304531  1.41456533343334
 6  0.23749961736174 -3.92147701980198  0.56223438453845
 8  0.34467832173217 -3.46567625642564 -0.60204021942194
 8  1.13410509270927 -4.68422356715672  1.16424241274127
 7 -4.88040659165917  2.67270750745074  1.44024071067107
 6 -3.93997808500850  2.47303531953195  2.43846907270727
 6 -3.63538407560756  3.63234331683168  3.11510045444544
 6 -4.42295805150515  4.54226269176918  2.55772165636564
 6 -5.18642800520052  3.92041671817182  1.47105225712571
 6 -2.59624824972497  3.71090817451745  4.25100897139714
 6 -4.52658535853585  6.04708474267427  2.85706114291429
 8 -3.85726821412141  6.60483531373137  3.65671964446445
 7 -6.85458710831083  2.69956788928893 -0.69761242894289
 6 -6.91399359715972  4.00714111961196 -0.35367357045705
 6 -7.90347548774877  4.59549060586059 -1.20171298039804
 6 -8.41577461026103  3.69476860696070 -2.04609916231623
 6 -7.79446325782578  2.45052322642264 -1.74944871467147
 6 -8.14968724742474  6.09174054375438 -1.31070220482048
 6 -9.40784726312631  3.97953889218922 -3.17950049864986
 6 -8.70990997169717  4.04478584168417 -4.47490073677368
 7 -6.46600236753675 -0.11240642084208 -0.99780080048005
 6 -7.36260986768677 -0.05054596019602 -2.05092101470147
 6 -7.60170328692869 -1.39381453415342 -2.62344536913691
 6 -6.72097758145815 -2.14748852215221 -1.99859906980698
 6 -6.04641256475648 -1.39444347384738 -0.99499736443644
 6 -8.58347372207221 -1.67606739533953 -3.72193311271127
 6 -6.27090071717172 -3.55665477147715 -2.05403079697970
 8 -6.65172841344134 -4.49008397849785 -2.66690693639364
 6 -5.18436869036904 -3.60170193689369 -0.85422204300430
 6 -5.44733186078608 -4.64568977057706  0.16727387838784
 8 -5.87658184078408 -4.42568850225023  1.26558367866787
 8 -5.21621158435844 -5.85859974407441 -0.31770594199420
 6 -5.37680102930293 -7.04211780288029  0.53574110891089
 6  2.36494317591759 -5.04966122632263  0.53967194849485
 6  3.42945625572557 -4.14643614291429  0.89809109490949
 6  4.12898200190019 -3.24475429632963  0.17784015901590
 6  3.88047294459446 -3.02684587298730 -1.37633530233023
 6  5.22098630463046 -2.42313658185819  0.67959981088109
 6  6.54798040274027 -2.75626057905791  0.07362768866887
 6  7.70385951265127 -1.85954760056006  0.60654448904890
 6  9.09184779327933 -2.11326730873087  0.03323661046105
 6  9.65868294839484 -3.48459836233623  0.15628875387539
 6  9.94432986858686 -1.02209283018302  0.56792475587559
 6  11.41850500780078 -0.90607340244024 -0.11721703230323
 6  12.18671629222922  0.28359755025503  0.31832262046205
 6  13.55172456655666  0.51638132503250 -0.49055881308131
 6  14.50780895389539 -0.67781851185119 -0.19787647284728
 6  14.24755469366937  1.84986975917592 -0.20302794519452
 6  15.30975025592559  2.23582551785179 -1.12399950765077
 6  15.90923054275427  3.66436894689469 -0.70616170917092
 6  17.15778017271727  4.06614553005301 -1.33621466926693
 6  17.11906088818882  4.12994855755576 -2.88839115911591
 6  17.67729114831483  5.28235636163616 -0.79141009800980
 1 -2.58059356525653  1.13573043664366  3.40436804800480
 1 -6.09201008390839  5.47528373057306  0.59833959665967
 1 -8.69358455755576  1.22706696819682 -3.20141552245225
 1 -3.73579064426443 -3.55454857155715  1.90972671477148
 1 -1.94181526752675 -1.32345995419542  2.56249841584158
 1 -3.04317364256426 -2.78941552245224  4.28235818171817
 1 -3.33896049614962 -1.01757387508751  4.82338847474747
 1 -4.46071774757476 -1.78857677567757  3.90817404000400
 1 -2.42494966056606 -3.23769681468147 -0.25143287788779
 1 -1.44300500020002 -1.81329995739574  0.15477631893189
 1 -0.39439382948295 -3.23634360666067  2.44189873097310
 1 -1.43013249184919 -4.47913474977498  1.84594363106311
 1 -1.50247889999000  3.49207389408941  3.88842122322232
 1 -2.58054570857086  4.80203984308431  4.59651531443144
 1 -2.96051598409841  2.99730292439244  5.08748572537254
 1 -5.37854171347135  6.48673665616562  2.32055417121712
 1 -10.03597758025803  3.02356950885089 -3.12359351395139
 1 -9.80358784168417  4.87492502700270 -3.06470946354636
 1 -9.53381914281428  4.25591349134914 -5.17841415201520
 1 -8.14339830583058  5.07927986858686 -4.43834351615162
 1 -8.16764703960396  3.21674598849885 -5.07177129182918
 1 -8.24360094169417 -1.07496075377538 -4.59144911391139
 1 -8.33081270917092 -2.76433349364936 -3.75311465536554
 1 -9.68469171827183 -1.37039367396740 -3.68010229532953
 1 -4.31537331333133 -4.07686350935094 -1.34179911001100
 1  2.61521946574657 -5.87681497459746  0.96233462136214
 1  2.28868219481948 -5.24475300170017 -0.55533096819682
 1  3.81715769816982 -4.39578970127013  2.03785214931493
 1  2.81787923982398 -3.16708826372637 -1.69826247634763
 1  4.16371370937094 -2.04529923052305 -1.71815003250325
 1  4.54871737913791 -3.73798565486549 -1.96047750505050
 1  4.99149301830183 -1.35105064966497  0.33102349344934
 1  5.11070342874287 -2.55764008120812  1.65487937423742
 1  6.78802802280228 -3.76172047154716  0.44656397809781
 1  6.84782362186218 -2.89216143214321 -1.10283997019702
 1  7.39838063966397 -0.88665521982198  0.52502125542554
 1  7.77474638483848 -2.06732498099810  1.55999347174717
 1  9.20553645324533 -1.90137817851785 -1.14608282698270
 1  8.89351151655165 -4.06287514741474 -0.38103057325733
 1  10.72102513191319 -3.61638499319932 -0.19241682358236
 1  9.51943869146915 -3.78861459005901  1.25641660466047
 1  9.40367142804280 -0.16429801940194  0.55837501190119
 1  9.99758871747175 -1.16107442674267  1.67142808010801
 1  11.90722265336534 -1.80190751245125  0.17096778897890
 1  11.23604954515451 -1.14713634913491 -1.21757260096010
 1  11.52617263536353  1.03500657245725  0.05963875347535
 1  12.68979973867387  0.25530681398140  1.30628980408041
 1  13.33005374767477  0.59712445524552 -1.65257146194619
 1  14.96350657785779 -0.78728174547455  0.83709880738074
 1  14.05289567606761 -1.68823200210021 -0.36757301140114
 1  15.43521337783778 -0.67391071877188 -0.89460186318632
 1  13.48442768836884  2.62193049224922 -0.10974085138514
 1  14.52923053525353  1.95513192769277  0.81737056435644
 1  16.17457618471847  1.49583504500450 -1.02463027802780
 1  14.80656545204520  2.34140239163916 -2.31678520942094
 1  14.83890535263526  4.36061926962696 -0.94555583558356
 1  15.80502013591359  3.86880283968397  0.26248870767077
 1  17.80485030183018  3.44193770227023 -1.23562795069507
 1  16.37074421122112  4.93384066296630 -3.24821910081008
 1  18.25257764766476  4.34154054725473 -3.18005543914391
 1  16.82845753105310  3.15884079527953 -3.43289384258426
 1  18.02825069906991  5.40934158715872  0.28585775147515
 1  18.60760837163716  5.51585781228123 -1.20785292639264
 1  17.00758332813281  6.15997040714072 -0.81175952805281
 1 -5.24600248484848 -7.98760986038604 -0.19146346234624
 1 -6.37508800010001 -7.20587996939694  0.81705154845485
 1 -4.45927814521452 -7.20654053025302  1.22845571397140
 8 -7.76647954325433  6.90051008240824 -0.50237366576658
 1 -8.83707709150915  6.33558097379738 -2.06225469296930

