%nproc=3
%Mem=2GB
# td=(NStates=1) iop(3/107=0140000000,3/108=0140000000) iop(3/107=0140000000,3/108=0140000000) CAM-B3LYP/6-31G(d,p) 

TD

0 1
12 -5.66966269746975  1.23103313101310  0.19081174997500
 6 -4.89298942074207 -2.19711367606761 -0.35611867696770
 6 -3.52657411731173  1.16290883238324  2.84255569376938
 6 -6.23149957225723  4.55410343344334  0.74992735393539
 6 -7.92473339133913  1.17743642604260 -2.42292638653865
 7 -4.41572865736574 -0.22549847294729  1.09176934393439
 6 -4.29127434783478 -1.57136831823182  0.58874259275928
 6 -3.19483088478848 -2.36342754135414  1.48319390799080
 6 -2.97973212861286 -1.35765643534353  2.58881566816682
 6 -3.70576737673767 -0.07773692629263  2.11835249384938
 6 -3.60291239923992 -1.85896258885889  3.98886674607461
 6 -2.09127397069707 -2.84172816601660  0.56645083118312
 6 -1.01402916581658 -3.45447053495350  1.43080695759576
 6  0.20413628102810 -3.87910278237824  0.74351251235124
 8  0.46841069496950 -3.35806549534954 -0.40262027742774
 8  1.04541622382238 -4.63424856965697  1.39880586908691
 7 -5.00755930693069  2.66367660436044  1.57298398499850
 6 -4.05470955815582  2.43310132613261  2.57381260706071
 6 -3.84310484768477  3.66879696219622  3.22805174957496
 6 -4.63951970767077  4.64738320382038  2.69639552375238
 6 -5.34312367476748  3.96066074257426  1.61002615451545
 6 -2.83193181808181  3.92483956765677  4.33999787028703
 6 -4.66018871887189  6.04710474467447  2.94556999379938
 8 -4.07012950025003  6.58695352555256  3.83799777227723
 7 -6.76817846744674  2.61911984448445 -0.72427509520952
 6 -6.96177837563756  3.87552795829583 -0.27114531763176
 6 -7.95314045424542  4.58208926572657 -1.19070187928793
 6 -8.45028806160616  3.61255038513851 -2.07667221962196
 6 -7.77142095359536  2.40027820192019 -1.69924369416942
 6 -8.42186446514652  5.95482685238524 -1.13907504210421
 6 -9.50426690509051  3.69639057735774 -3.16344889348935
 6 -8.88945792649265  4.04632599569957 -4.53813706040604
 7 -6.32001776907691 -0.16511169136914 -1.14273529392939
 6 -7.30147375407541 -0.00591149674967 -2.14361028362836
 6 -7.40864398099810 -1.24430958365837 -2.82554557915792
 6 -6.59960544424442 -2.20524429772977 -2.15704491439144
 6 -5.89047697119712 -1.45352938243824 -1.23860172487249
 6 -8.51397677237724 -1.62561234983498 -3.84372529192919
 6 -6.11519514661466 -3.54044315031503 -2.03253864776478
 8 -6.36330957155716 -4.52398736883688 -2.68241848754876
 6 -4.95201545504550 -3.50061182788279 -0.98493511431143
 6 -5.16616374397440 -4.63957915951595  0.15754290529053
 8 -5.60527471007101 -4.36376230963096  1.20442756305631
 8 -4.90526048924893 -5.78484236833683 -0.42675684708471
 6 -5.40032338153815 -6.95955954705471  0.31688922372237
 6  2.34139082068207 -5.03918017821782  0.71038902020202
 6  3.43507681778178 -4.15228672797280  1.00881216701670
 6  4.08314741844184 -3.19421924282428  0.10820319531953
 6  3.58318321562156 -3.05698888728873 -1.23880154895490
 6  5.23727793379338 -2.36751101930193  0.69643149404940
 6  6.54715031973197 -2.70109506250625  0.19209953585359
 6  7.59959908660866 -1.80044168996900  0.72465630023002
 6  8.96051465996600 -1.94439042104210 -0.02411912511251
 6  9.63507058715872 -3.35049495199520  0.28813193819382
 6  9.90708614421442 -0.83017363826383  0.36951491489149
 6  11.37919107640764 -0.87591038613861 -0.27978328892889
 6  12.29246686728673  0.26982617311731  0.14391517971797
 6  13.57204659875988  0.28200788768877 -0.56672642984298
 6  14.49233740674067 -0.92061279127913 -0.34454113931393
 6  14.28000793899390  1.64371914411441 -0.23668131053105
 6  15.43089237013701  2.14553648894890 -1.04836194389439
 6  16.07552717241724  3.46740925092509 -0.77423851685169
 6  17.36060045474547  3.88954787028703 -1.53937498529853
 6  17.10366934903491  4.26158172087209 -3.04467678767877
 6  17.93473689288929  5.02535066106611 -0.77614857185719
 1 -3.07065257115712  1.17161402500250  4.00255786698670
 1 -6.63347423032303  5.49491569376938  1.04110387308731
 1 -8.52435763486349  1.42389665116512 -3.12723810471047
 1 -3.69411647684768 -3.27732084878488  1.91652739483948
 1 -1.96147723372337 -0.97961556975698  2.75591775777578
 1 -2.88433775897590 -2.64829141004100  4.41531147704770
 1 -3.54553115321532 -0.95212733043304  4.48928506440644
 1 -4.63232490829083 -2.60587850585058  4.02318554115412
 1 -2.45836300190019 -3.32296534153415 -0.18842657725773
 1 -1.55628632833283 -1.90133876127613  0.09176001730173
 1 -0.47963235333533 -2.72405237753775  2.02714725582558
 1 -1.42305178377838 -4.31337817411741  2.24221325802580
 1 -1.82064071617162  3.49225391209121  4.04172655375538
 1 -2.84928258225823  4.91170080918092  4.54062972587259
 1 -2.92064199669967  3.26534972907291  5.29039601640164
 1 -5.24403826312631  6.71345932843284  2.49156127192719
 1 -10.07402138463846  2.82319947184718 -3.39141029562956
 1 -10.10849833273327  4.42882041654165 -2.93440643324332
 1 -9.65662142304230  3.89098699869987 -5.33152946354635
 1 -8.29325329132913  4.94268620922092 -4.68049773157316
 1 -8.01629190409041  3.09797411131113 -4.75699981468147
 1 -8.24413099469947 -0.94077733543354 -4.85310527952795
 1 -8.69118874677468 -2.64393145344534 -3.96385572947295
 1 -9.46052930203020 -1.22950958555856 -3.26667095219522
 1 -3.77020879687969 -3.82621844484448 -1.51908683878388
 1  2.46876482028203 -6.00435772887289  1.28962735063506
 1  2.12834616121612 -5.19388791519152 -0.33098853395340
 1  3.96836281868187 -4.04156427872787  2.10109847394739
 1  2.68497594949495 -3.66926848174817 -1.52488513861386
 1  3.54052139013901 -1.82143684428443 -1.29977819531953
 1  4.39576208360836 -3.34082593889389 -1.90299175647565
 1  5.02964683368337 -1.44259980458046  0.35376576767677
 1  5.30984334273427 -2.44285860306031  1.76883076937694
 1  6.82961218121812 -3.80150444994499  0.45968529022902
 1  6.60951979147915 -2.71434365036504 -0.96138582478248
 1  7.07043784538454 -0.75699225352535  0.80576933023302
 1  7.87793670387039 -1.94587283578358  1.73918139053905
 1  8.89187508710871 -1.96764480518052 -1.10097831653165
 1  9.07370953635364 -4.26381524142414  0.00867839763976
 1  10.66039906930693 -3.40796415111511 -0.07032461436144
 1  9.63330007760776 -3.39582531113111  1.29362032503250
 1  9.52961402230223  0.31721013141314  0.18569774417442
 1  10.14796375497550 -0.82723104240424  1.46284722202220
 1  11.78129006010601 -1.80111743344334  0.09354004620462
 1  11.16078201840184 -1.07656929242924 -1.39455029872987
 1  11.79781980008001  1.29365243704370  0.18732152175217
 1  12.34750550925093  0.01712299559956  1.27378655375538
 1  13.38861960426043  0.33422816561656 -1.77232343714371
 1  14.70676090329033 -1.04739775707571  0.63424852235224
 1  13.99224961146115 -1.83804698359836 -1.00707696179618
 1  15.38832868936894 -0.77749107680768 -0.62379478247825
 1  13.47647689328933  2.41222952215222 -0.19185906320632
 1  14.67034464666467  1.50628704320432  0.91177000430043
 1  16.35429415651565  1.48604406590659 -1.03293110811081
 1  15.21703649914991  2.01494974637464 -2.02711624252425
 1  15.31688315041504  4.16197940564056 -0.86945822582258
 1  16.38130776467647  3.64609056845685  0.12423488228823
 1  17.95346516331633  2.83704721322132 -1.67593198109811
 1  16.27624476127613  5.04940221912191 -3.18194247314732
 1  17.91238362826283  4.73288968216822 -3.54926235983598
 1  16.65725041034103  3.28371328252825 -3.52944349754975
 1  18.21145901990199  4.83783443644364  0.27517668336834
 1  19.02626023682368  5.19907613411341 -1.16705884698470
 1  17.20711328112811  5.85312972307231 -0.95025337743774
 1 -5.12667055165517 -7.83281438083808 -0.04447876387639
 1 -6.47508800010001 -6.84784416581658  0.54199404270427
 1 -4.91288350575057 -6.85425530173017  1.26201907030703
 8 -7.83455635093509  6.84243427482748 -0.52819624802480
 1 -9.26476986078608  6.06604402010201 -1.74897336483648

