%nproc=3
%Mem=2GB
# td=(NStates=1) iop(3/107=0140000000,3/108=0140000000) iop(3/107=0140000000,3/108=0140000000) CAM-B3LYP/6-31G(d,p) 

TD

0 1
12 -5.67176290749075  1.22054208190819  0.17726039483948
 6 -5.06761688348835 -2.21968593329333 -0.37990105520552
 6 -3.35615707560756  1.12435497699770  2.79489092729273
 6 -6.22102852515252  4.49190721382138  0.71941430263026
 6 -8.00802172017202  1.09668835123512 -2.38120221412141
 7 -4.40700778527853 -0.32347827092709  0.99111927892789
 6 -4.29209442984298 -1.67369855125513  0.74040775927593
 6 -3.35148655035504 -2.40210140874087  1.60740632923292
 6 -2.89144329972997 -1.32408307800780  2.71065785238524
 6 -3.61999879987999 -0.10229938253825  2.15948660726073
 6 -3.36179828782878 -1.79787648024802  3.98397625702570
 6 -2.07375221852185 -2.62163615681568  0.67679186528653
 6 -1.04893265616562 -3.54056914481448  1.39655353225323
 6  0.22707857525753 -3.82379725182518  0.66822498359836
 8  0.43483733763376 -3.45969565836584 -0.52494250965097
 8  1.06370805300530 -4.59059420422042  1.25322131063106
 7 -4.99099765076508  2.57855809250925  1.60683737033703
 6 -4.05066915411541  2.42456047204720  2.55482070787079
 6 -3.71463200040004  3.61614169666967  3.20594953935394
 6 -4.56163191889189  4.60933939943994  2.66554243844384
 6 -5.34318368076808  3.97772244874487  1.64267941984198
 6 -2.67068569346935  3.79699678337834  4.30592446294629
 6 -4.72490519051905  6.01628166236624  2.95971140794079
 8 -4.11250373767377  6.52369719991999  3.81868584108411
 7 -6.88839048864886  2.63283121562156 -0.76918958665867
 6 -6.93892609040904  3.87562796829683 -0.36194439753975
 6 -7.88765390559056  4.63571462826283 -1.29079188828883
 6 -8.44010704350435  3.59530866096610 -2.03768832123212
 6 -7.75838965046505  2.37213538763876 -1.69931370117012
 6 -8.28646092479248  6.09496086578658 -1.34669580418042
 6 -9.40817729612961  3.88738967726773 -3.11955450405040
 6 -8.85166414711471  4.03944530763076 -4.62833608030803
 7 -6.25891165846585 -0.15406058625863 -1.19895091549155
 6 -7.27672127882788 -0.07945885148515 -2.11112703530353
 6 -7.52765588218822 -1.27273242594259 -2.80284330893089
 6 -6.78198368206821 -2.19312308560856 -2.07570678057806
 6 -5.94545246874687 -1.47215124462446 -1.13542140684068
 6 -8.55299067376738 -1.62119190779078 -3.87076799619962
 6 -6.26455008210821 -3.58874798079808 -1.98800419431943
 8 -6.60805404600460 -4.57741271137114 -2.57742798849885
 6 -5.02214246774677 -3.51663343004300 -0.92636925772577
 6 -5.19327645524552 -4.58385358695870  0.13913106410641
 8 -5.71100528312831 -4.42123805720572  1.24015113541354
 8 -4.92725268846885 -5.81474535863586 -0.31114528592859
 6 -5.30674402360236 -6.90284387548755  0.57512504730473
 6  2.31193787538754 -5.05280154035403  0.57705568686869
 6  3.47109041914191 -4.08429992929293  0.89528081388139
 6  4.09850895459546 -3.17575739663966  0.11380375537554
 6  3.66603150045004 -3.08988217661766 -1.38373604240424
 6  5.11180538653865 -2.38889315751575  0.60891274217422
 6  6.51037664236424 -2.61590654365437 -0.12362203630363
 6  7.59877900460046 -1.75290693649365  0.47577141174117
 6  8.97845645414542 -1.97169315131513 -0.06941365456546
 6  9.60107718781878 -3.39035893839384  0.05015814081408
 6  9.93693912951295 -0.95170579147915  0.49230719411941
 6  11.37598075537554 -0.80929372447245 -0.18463377397740
 6  12.26122374297430  0.40523971447145  0.32097288548855
 6  13.60210960506051  0.43918360526053 -0.36662641984198
 6  14.46110428342834 -0.72794352435244 -0.02494918011801
 6  14.28675861406141  1.78108288048805  0.00204256185619
 6  15.49424870577058  2.03643557885789 -0.99462657035704
 6  16.15797541724172  3.46853936393639 -0.68215930893089
 6  17.41956635133513  3.87897681318132 -1.60073112091209
 6  17.14727370947095  4.02835839853985 -3.02203452345235
 6  18.01684510371037  5.17878600460046 -0.95842679967997
 1 -2.84754025992599  1.07614447804781  3.64956256745675
 1 -6.36877776067607  5.56519272147215  0.80372013471347
 1 -8.57341254035403  1.05216947844784 -3.13500888178818
 1 -3.65706277147715 -3.33373649034903  1.75788153025303
 1 -1.89328041404140 -1.32036964516452  2.62923508950895
 1 -2.86896622182218 -2.69992657355736  4.49436938283828
 1 -3.45614221432143 -1.12243436113611  4.69882601850185
 1 -4.47907958375838 -1.99317723572357  3.85519874247425
 1 -2.31647881348135 -2.94732777777778 -0.19442717731773
 1 -1.56290699039904 -1.74726335373537  0.53319416071607
 1 -0.86443083318332 -3.21630160246025  2.61965650675068
 1 -1.61175065366537 -4.55935277157716  1.52350138683868
 1 -1.63344199629963  3.65274996169617  4.00148252935294
 1 -2.86818447244724  4.90120976007601  4.84519018191819
 1 -3.01522145464547  3.11385457955796  5.20563754055406
 1 -5.51225508480848  6.54745272777278  2.33798591439144
 1 -10.10988497099710  3.12070922282228 -3.12389354395440
 1 -9.75838332123212  4.84776231073107 -2.93721671427143
 1 -9.55335109600960  3.70319821982198 -5.40999731033103
 1 -8.43159712571257  5.07002894349435 -4.60016969876988
 1 -7.97936821172117  3.24745905980598 -4.50739485418542
 1 -8.33849043064306 -0.85194845254525 -4.56438640764076
 1 -8.40021964986499 -2.67596465676568 -4.46108545244525
 1 -9.61159440854085 -1.51449808440844 -3.50696498159816
 1 -3.89685146114611 -3.87535335833583 -1.53994892499250
 1  2.44340228402840 -5.80955824892489  1.07477586548655
 1  2.00771409800980 -5.40767929432943 -0.43776921202120
 1  3.72945892829283 -4.27034715701570  1.94408277237724
 1  2.66624407630763 -3.39900145504550 -1.70493314341434
 1  3.71030836883688 -2.02068676927693 -1.46717493499350
 1  4.27873038043804 -3.62744460076008 -2.11737319461946
 1  4.64319818881888 -1.36887243184318  0.31504189528953
 1  5.30110246864686 -2.27592190939094  1.70710459675968
 1  6.71627084708471 -3.71753605310531 -0.11674235253525
 1  6.08172701220122 -2.42809502550255 -1.20298998519852
 1  7.16598740034003 -0.78431498579858  0.27500625392539
 1  7.85525443564356 -1.99602785128513  1.58689616201620
 1  8.97693359295930 -2.01845988668867 -1.23939215791579
 1  8.84981714711471 -4.06458531843184 -0.41198366856686
 1  10.48659168856886 -3.55945930063006 -0.34043162506251
 1  9.68461520912091 -3.78496422502250  1.14301526452645
 1  9.37953901480148  0.00986939733973  0.52771194559456
 1  9.97605656425642 -1.03100141944194  1.54405534283428
 1  11.96503843494349 -1.62995031673167 -0.09891919971997
 1  11.31760770097010 -0.73116475197520 -1.26713755745575
 1  11.86421643974397  1.40011308310831  0.02492528212821
 1  12.42706346504650  0.33286456975698  1.37204637973797
 1  13.35027576987699  0.45687042984298 -1.42660886568657
 1  14.82528275547555 -0.83062607990799  1.01825692319232
 1  14.16303669016902 -1.73006618551855 -0.39236549064907
 1  15.31105096159616 -0.70966429412941 -0.68677108010801
 1  13.81845109070907  2.71113941314131 -0.07247712501250
 1  14.57393500570057  1.58836525102510  1.05871469876988
 1  16.13327205430543  1.00753621512151 -1.17374518951895
 1  15.04857965346535  2.11459971137114 -2.07381091199120
 1  15.46420788288829  4.30086329402940 -0.89665094509451
 1  16.52681231513151  3.52627858725873  0.43698615741574
 1  18.18502831963196  3.01236474497450 -1.44385877377738
 1  16.56298343514352  4.85804308320832 -3.35510978987899
 1  18.23723611351135  4.01792818601860 -3.56667410101010
 1  16.67900258555855  3.17279219041904 -3.48230878407841
 1  17.95102297629763  5.17951860486049  0.26489565526553
 1  19.01294890569057  5.43403963046305 -1.06838897999800
 1  17.41498406820682  6.06517092719272 -1.25650400250025
 1 -4.91923980858086 -7.71877297669767  0.04476016001600
 1 -6.36694718601860 -7.01235061646165  0.72424226752675
 1 -4.64197641504150 -6.89492936913691  1.54503737213721
 8 -7.83216611191119  6.89074910631063 -0.46263969236924
 1 -8.98331171497150  6.44043145884589 -2.09329779727973

