%nproc=3
%Mem=2GB
# td=(NStates=1) iop(3/107=0140000000,3/108=0140000000) iop(3/107=0140000000,3/108=0140000000) CAM-B3LYP/6-31G(d,p) 

TD

0 1
12 -5.69869560076008  1.25333536123612  0.20510317911791
 6 -5.03075319711971 -2.12058602330233 -0.39329239433943
 6 -3.37576903680368  1.20772331383138  2.77642908110811
 6 -6.31190761306131  4.55014303740374  0.69519188038804
 6 -8.03174409240924  1.16462514491449 -2.36018011191119
 7 -4.45614269876988 -0.26762268536854  1.14062422942294
 6 -4.27356257665767 -1.50580176157616  0.67705142364236
 6 -3.25275667736774 -2.37427862646265  1.41457704630463
 6 -2.99673382878288 -1.30982165186519  2.56727351395139
 6 -3.66140294029403  0.02383323072307  2.12172283088309
 6 -3.52556466446645 -1.82303899649965  3.91238909830983
 6 -2.03585842914291 -2.66173016621662  0.56323050915092
 6 -1.05224298719872 -3.56634172207221  1.34154803170317
 6  0.21385725312531 -3.95518039013901  0.55076323742374
 8  0.53665751965197 -3.45079476827683 -0.48962897829783
 8  0.96466814901490 -4.75878102290229  1.27495348384838
 7 -4.94758330933093  2.60993122982298  1.45951263786379
 6 -3.92291637883788  2.48772678867887  2.40289551535154
 6 -3.62270280748075  3.66417650015002  3.08832777717772
 6 -4.47014276997700  4.64011247674767  2.44669055325533
 6 -5.30036939933993  3.95828050455045  1.45713086498650
 6 -2.83360198509851  3.84961204490449  4.31619549004901
 6 -4.61465416541654  6.04247428162816  2.84049948674868
 8 -4.12286477377738  6.64180901110111  3.79848382088209
 7 -6.91935358495850  2.57121505400540 -0.63775644334433
 6 -6.98317051485149  3.96159656515652 -0.35704390749075
 6 -7.97123226342634  4.63486454325433 -1.20045285438544
 6 -8.46542957575758  3.63031216131613 -2.03039759215922
 6 -7.83599741124112  2.36711488558856 -1.63964773457346
 6 -8.40770304900490  6.06505787548755 -1.15788692329233
 6 -9.52579905830583  3.77697863616362 -3.08407095569557
 6 -8.93204218491849  3.97882924602460 -4.51243449014901
 7 -6.43133890119012 -0.11729690989099 -1.07337835823582
 6 -7.46032963966397 -0.03534444004400 -2.06865278787879
 6 -7.56861997859786 -1.30875602830283 -2.72214523912391
 6 -6.72522800650065 -2.20780455375538 -1.97758696859686
 6 -6.01721964546455 -1.37009103860386 -1.06174403910391
 6 -8.50796617131713 -1.74569435803580 -3.74171509090909
 6 -6.18397202430243 -3.45800490649065 -2.07281267516752
 8 -6.46150939153915 -4.42020699079908 -2.76799704540454
 6 -4.97722797629763 -3.56285805250525 -0.91384800560056
 6 -5.32360948854885 -4.55683088468847  0.07320447144714
 8 -5.57265144774477 -4.36008194159416  1.24734185448545
 8 -4.98520848404840 -5.77645152925292 -0.35706987838784
 6 -5.28094144334433 -6.93210680178018  0.56193372817282
 6  2.28531521312131 -5.16092235243524  0.57700568186819
 6  3.41309461956196 -4.37289878917892  1.07447873367337
 6  4.13368247194719 -3.45302512341234  0.31191356635664
 6  3.87456235353535 -3.28078126652665 -1.22742041084108
 6  5.23157736373637 -2.51301556975698  0.80641249214921
 6  6.60553615831583 -2.81043599659966  0.16626695259526
 6  7.75216434313431 -1.86441808760876  0.67805163976398
 6  9.10099870837084 -2.03631961396140 -0.02012872607261
 6  9.64400148024802 -3.48678858135814  0.27902102710271
 6  10.01340677627763 -0.92082270317032  0.35176313971397
 6  11.35243840114011 -0.76238903400340 -0.37297260786079
 6  12.25219283988399  0.35525471597160  0.01725251345134
 6  13.61410080418042  0.56946663356336 -0.72802255945595
 6  14.51134930793079 -0.61528225822582 -0.35382206740674
 6  14.23953389158916  1.78101287348735 -0.17712535493549
 6  15.41667094799480  2.24274620992099 -1.02249935763576
 6  16.02844246394639  3.51257376737674 -0.66793788678868
 6  17.43023741844184  3.89715863136314 -1.33258430623062
 6  17.35442442454245  3.97076263896390 -2.84412673267327
 6  18.04261768096810  5.16276440244024 -0.74823578057806
 1 -2.39473497939794  1.21637850145014  3.45900351155115
 1 -6.37367825072507  5.55917211941194  0.84939470217022
 1 -8.59068426752675  1.13954821632163 -3.19171455235524
 1 -3.74915198039804 -3.25092820952095  1.78399414151415
 1 -1.90398148414842 -1.35523313151315  2.63038520452045
 1 -3.20075940114011 -2.78726530743074  4.18927887378738
 1 -3.49694629472947 -1.22686480418042  4.85022115801580
 1 -4.58643031883188 -2.01110902890289  3.92155537813781
 1 -2.45947311291129 -3.15591863686369 -0.22498023262326
 1 -1.36759745944594 -1.77794642204220  0.27394823612361
 1 -0.60197458755876 -3.06103607590759  2.26456099719972
 1 -1.29783926252625 -4.64415125142514  1.56418545524552
 1 -1.79982863496350  3.69463415011501  4.01043342444244
 1 -2.78519617361736  4.79725936503650  4.59418508140814
 1 -3.06677661016102  2.99818301240124  5.06201317811781
 1 -5.36808066736674  6.58129611211121  2.24240635643564
 1 -9.99709369186919  2.84094124602460 -3.17330848544854
 1 -10.21707919081908  4.50587812231223 -2.77086007860786
 1 -9.48560432133213  4.29797769776978 -5.47848415901590
 1 -8.27557152315232  4.95662760336034 -4.51842152395240
 1 -8.32190246514651  2.99019333323332 -4.78947306200620
 1 -8.18588517011701 -1.07536079377938 -4.79999996899690
 1 -8.33162279017902 -2.88768582888289 -3.79702904680468
 1 -9.73432668176818 -1.40155679027903 -3.55206949204920
 1 -3.87630940694070 -3.70055587858786 -1.41609653975398
 1  2.26342428622862 -6.27777507060706  0.90915930383038
 1  2.03527685428543 -4.91505003140314 -0.36344177927793
 1  3.58734471687169 -4.39843996629663  2.15151351545155
 1  2.66787423932393 -3.55935749064907 -1.43835648574858
 1  4.05609294729473 -2.14915961656166 -1.20771898939894
 1  4.56427893529353 -3.87263912021202 -1.86852831013101
 1  4.83017688668867 -1.46254179877988  0.65240563166317
 1  5.16602896129613 -2.67293161036104  1.81698558485849
 1  6.86900612061206 -3.80210450995099  0.48827814951495
 1  6.36954579407941 -2.54799701570157 -0.91430111631163
 1  7.47800860246025 -0.80141669596960  0.57655640894089
 1  7.74885379557956 -1.92071031953195  1.71749922232223
 1  8.87832373197320 -2.08321636233623 -1.29291751045104
 1  8.77098926432643 -4.18182704260426  0.02210974077408
 1  10.43664669406941 -3.77306066076608 -0.21623920582058
 1  9.84705145274527 -3.42847857645765  1.37159812281228
 1  9.41888294919492  0.05686409680968  0.44614378877888
 1  10.28842780138014 -1.20234855415542  1.42986392369237
 1  11.89257118821882 -1.81229855155516 -0.52223153095310
 1  11.21166710691069 -0.66659829532953 -1.58250909460946
 1  11.70620063816381  1.34623769556956  0.06966975657566
 1  12.49071983068307  0.07392867616762  0.92213138823882
 1  13.47089783208321  0.62864760756076 -1.82290849564956
 1  14.76331655885589 -0.62638565586559  0.58757385488549
 1  13.92406279277928 -1.71067424632463 -0.33338959305931
 1  15.48031788828883 -0.50105343304330 -0.76810921392139
 1  13.58517776337634  2.54580287948795 -0.10784066136614
 1  14.58086569876988  1.34021043554355  0.73599242654265
 1  16.28157688478848  1.46934239573957 -0.96850466546655
 1  15.14289908540854  2.18656690809081 -2.07382091299130
 1  15.40007146924692  4.45126833453345 -0.90047132713271
 1  16.00495012891289  3.87101306070607  0.49870232903290
 1  17.93275309210921  2.99975348384838 -1.03795818371837
 1  16.53072020882088  4.80756803570357 -3.04562884178418
 1  18.20953334323432  4.44660105330533 -3.47145457905791
 1  17.04873955925592  3.06385129632963 -3.37839839303930
 1  18.11923979797980  5.12006265926593  0.44493365906591
 1  18.98764637543754  5.42855908240824 -1.16477861896190
 1  17.22503507330733  6.13888829892989 -0.82102045414541
 1 -4.83740162476248 -7.71436253565357 -0.04134845084508
 1 -6.37638813011301 -6.93371275267527  0.88864870817082
 1 -4.59747196459646 -6.88025790199020  1.41160402880288
 8 -7.91585448074807  6.88755878727873 -0.37022045044504
 1 -9.12457584138414  6.43222063776378 -1.90950941844184

