%nproc=3
%Mem=2GB
# td=(NStates=1) iop(3/107=0140000000,3/108=0140000000) iop(3/107=0140000000,3/108=0140000000) CAM-B3LYP/6-31G(d,p) 

TD

0 1
12 -5.79774550575058  1.25589561726173  0.23912658145815
 6 -4.97602772457246 -2.14423838853885 -0.44680774587459
 6 -3.43795525542554  1.25156769826983  2.65702714091409
 6 -6.31228765106511  4.58904692779278  0.76229859105911
 6 -7.96297721572157  1.21369005140514 -2.40707480138014
 7 -4.44261134563456 -0.31493741684168  1.08713888088809
 6 -4.26039125952595 -1.60264144554455  0.65000871937194
 6 -3.37557895959596 -2.33617481608161  1.49937552615262
 6 -2.93887804320432 -1.35754642434243  2.63892067866787
 6 -3.56798359835984 -0.00313946654665  2.13942460106011
 6 -3.46202831083108 -1.70112680528053  3.94164202360236
 6 -2.11138598189819 -2.76545053825383  0.67169135523552
 6 -1.04661242414241 -3.53897898579858  1.53067694459446
 6  0.24085995339534 -3.87071194329433  0.72065022612261
 8  0.43534738863886 -3.37281697049705 -0.41533154855486
 8  1.08525020722072 -4.74134927972797  1.41654764326433
 7 -4.96932548354835  2.63536377307731  1.46131281788179
 6 -4.04107819501950  2.41599961596160  2.48187341314131
 6 -3.82043258045805  3.63188327082708  3.25170411481148
 6 -4.60155591129113  4.63249171467147  2.55908179237924
 6 -5.36601596399640  3.93225790229023  1.58489364126413
 6 -2.78388701360136  3.74891197489749  4.28304217471747
 6 -4.66962966296630  6.05196523072307  2.87720315711571
 8 -3.94024651195120  6.66633146334634  3.68391236373637
 7 -6.94617626722672  2.58045597809781 -0.62030469816982
 6 -6.98672086988699  3.91759216471647 -0.28592679577958
 6 -7.88679381958196  4.55100615741574 -1.25420822992299
 6 -8.42849588238824  3.61652078217822 -2.05680023242324
 6 -7.75689950145015  2.42055022912291 -1.71292506230623
 6 -8.31547382608261  6.03648501820182 -1.16096723132313
 6 -9.39030550895090  3.70606154445445 -3.10671321992199
 6 -8.75159414011401  3.93118448154815 -4.44582782948295
 7 -6.34079984728473 -0.10826600680068 -1.25028604900490
 6 -7.30288389508951 -0.05777668326833 -2.10642656525653
 6 -7.64813793039304 -1.33803895659566 -2.68917194179418
 6 -6.57395287898790 -2.17877165046505 -2.17941715161516
 6 -5.86786470997100 -1.34124815431543 -1.12446031073107
 6 -8.53004837953795 -1.68865865446545 -3.74008492789279
 6 -6.08860248734874 -3.54535364136414 -2.11578697259726
 8 -6.41218445904590 -4.56919188928893 -2.71672191789179
 6 -5.01265151865186 -3.63296506320632 -1.00317693849385
 6 -5.33929105670567 -4.65452065366537  0.03134028502850
 8 -5.80607479007901 -4.44409034243424  1.12338945924592
 8 -4.95524548774878 -5.85835972007201 -0.41876604800480
 6 -5.32488583778378 -6.96175976707671  0.44853238803880
 6  2.30902758435844 -5.09985624582458  0.75725370667067
 6  3.34878818891889 -4.01104260356036  1.03786507230723
 6  4.01805090879088 -3.19487930883088  0.23440581558156
 6  3.63601849914992 -3.05721891029103 -1.26580424922492
 6  5.17015122112211 -2.37782205040504  0.75703755465547
 6  6.49377498219822 -2.62521747474747  0.12687301320132
 6  7.67655678237824 -1.78793043884388  0.58806264086409
 6  9.10159876837684 -1.94181016301630 -0.07883459665967
 6  9.72141922202220 -3.33835373787379  0.17411053605361
 6  10.03722915851585 -0.91807242814281  0.40795875927593
 6  11.31184434173417 -0.90555335043504 -0.25090040064006
 6  12.30408802940294  0.31333052355236  0.12295308350835
 6  13.63856325042504  0.39385907280728 -0.66028578577858
 6  14.58231640464046 -0.82561329132913 -0.40945763096310
 6  14.34741467966797  1.72495726792679 -0.15914355675568
 6  15.49729901080108  2.06589852515252 -1.12255936363636
 6  16.18057767746775  3.39649215921592 -0.56559765276528
 6  17.39759415411541  3.87901681718172 -1.41190223802380
 6  17.11061004310431  4.18501406410641 -2.91722404240424
 6  17.95340876007601  5.13375150115012 -0.84180513751375
 1 -2.75218072397240  1.33363022662266  3.59596720792079
 1 -6.42101298419842  5.74645084728473  0.70218998169817
 1 -8.61725692479248  1.18367262876288 -3.26845222612261
 1 -3.83782084728473 -3.20771388808881  1.93109885198520
 1 -1.88645973197320 -1.35327293549355  2.73196536253625
 1 -3.02435176037604 -2.56617319821982  4.35246519241924
 1 -3.47161376147615 -1.02309442714271  4.61985812171217
 1 -4.46911858765877 -1.98933685168517  3.89921314391439
 1 -2.16740390599060 -3.36853989898990 -0.28870660526053
 1 -1.38515921562156 -2.01991061846185  0.06765760706071
 1 -0.93955834593459 -3.05360533283328  2.53615815691569
 1 -1.59948942754276 -4.56368320462046  1.61011004770477
 1 -1.79000765286529  3.37658234493449  4.07404978607861
 1 -2.67757541154115  4.93508314741474  4.51817748064807
 1 -3.09416934943494  3.25811900600060  5.27102407920792
 1 -5.44200806010601  6.68827681018102  2.18549066486649
 1 -10.30951493399340  3.03805095699570 -2.90783193779378
 1 -9.71718920182018  4.98208574307431 -2.71080407300730
 1 -9.49133489438944  3.63089098909891 -5.30068637923792
 1 -8.19944391039104  4.85836777737774 -4.45744542634263
 1 -7.74334460936094  3.31720603450345 -4.48784289898990
 1 -8.41987856945695 -0.96603986168617 -4.62657262626263
 1 -8.64399402730273 -2.77728478877888 -3.85050439433943
 1 -9.58676192529253 -1.20606724132413 -3.45733001810181
 1 -4.22421419741974 -4.02636845984599 -1.56405133523352
 1  2.69742768656866 -5.94023131623162  1.44151253915391
 1  2.11667499409941 -5.22470099649965 -0.34850028512851
 1  3.58687466986699 -3.99536965926593  2.15040340444044
 1  2.65681313321332 -3.21983353825383 -1.48677132723272
 1  3.92196953495350 -2.01650635123512 -1.63120133763376
 1  4.24418692609261 -3.68212006830683 -1.82995445274527
 1  4.70369423842384 -1.24074961956196  0.77441783288329
 1  5.16535889428943 -2.63534785198520  1.88370225652565
 1  6.31066028602860 -3.81600590009001  0.24453377507751
 1  6.27465630513051 -2.66428864486449 -0.98137782398240
 1  7.20883168476848 -0.61967852215221  0.50205895919592
 1  7.74435334553455 -1.94776302480248  1.72335980838084
 1  8.86127202680268 -1.80779882058206 -1.17878609730973
 1  8.71992415781578 -4.03712257215722  0.27807533733373
 1  10.52459548894889 -3.61079443414341 -0.59963754565457
 1  10.10112686028603 -3.29199492809281  1.25104606760676
 1  9.35822688358836 -0.00832242184218  0.19952912731273
 1  10.23558251685168 -1.08406672597260  1.42397333463346
 1  11.95707763886389 -1.88676599829983 -0.23720302810281
 1  11.09929586978698 -0.74514615011501 -1.27941878557856
 1  11.71046106420642  1.41025409720972  0.09059184878488
 1  12.42555331403140  0.31170245354535  1.26512568766877
 1  13.24121486378638  0.80770551335134 -1.59452565736574
 1  14.71780200740074 -0.74911792909291  0.61506660416042
 1  14.01535192169217 -1.76715989488949 -0.82289854395440
 1  15.42242209870987 -0.79133246094609 -1.08690109310931
 1  13.70079932553255  2.59376767596760 -0.28240811811181
 1  14.65700331253125  1.62392880738074  0.75886471377138
 1  16.28618734583458  1.21215667716772 -1.31157897289729
 1  15.04687948344835  2.22557080848085 -2.22810634153415
 1  15.36315777787779  4.12947615531553 -0.58306958695870
 1  16.42311194509451  3.18311427082708  0.45791825062506
 1  18.14316413321332  3.04576808530853 -1.14267865576558
 1  16.15403254005400  4.95320259915992 -2.86247052595260
 1  17.95098748864886  4.51505789898990 -3.50229766336634
 1  16.70347503280328  3.26279119031903 -3.47163771697170
 1  18.22970084408441  5.15012566556656  0.23449261496150
 1  18.92583019381938  5.46150237673767 -1.31332347344734
 1  17.30735330513051  5.96775118521852 -1.13717206930693
 1 -4.97537542214221 -7.94129522892289 -0.05193950995099
 1 -6.33998448974897 -6.86323570497050  0.93016285958596
 1 -4.45849806720672 -6.84249412561256  1.18742161056106
 8 -7.86640953625362  6.88911894329433 -0.31942537093709
 1 -9.24591797559756  6.35741315701570 -1.79331779927993

