%nproc=3
%Mem=2GB
# td=(NStates=1) iop(3/107=0140000000,3/108=0140000000) iop(3/107=0140000000,3/108=0140000000) CAM-B3LYP/6-31G(d,p) 

TD

0 1
12 -5.58698442964296  1.30048007570757  0.16653932273227
 6 -4.98450857265727 -2.23246721142114 -0.45032809790979
 6 -3.51140260016002  1.15604814631463  2.74005544374437
 6 -6.21784820712071  4.57379540264026  0.70556291749175
 6 -7.90618153615362  1.17246592899290 -2.43222731663166
 7 -4.30332741724172 -0.30143606670667  1.04350451745174
 6 -4.13783900430043 -1.59637081848185  0.64385810431043
 6 -3.16678808050805 -2.25037623622362  1.40319590819082
 6 -2.86507066246625 -1.30674134383438  2.55718250485049
 6 -3.51847864786479 -0.08043719631963  2.07394805340534
 6 -3.45822793079308 -1.68326501910191  3.91756961636164
 6 -1.94518936223622 -2.70033402660266  0.60356454255426
 6 -0.97813557645765 -3.57729281718172  1.37705158205821
 6  0.29987585498550 -3.84558943104310  0.55490365146515
 8  0.59446330023002 -3.37692738153815 -0.45849586498650
 8  0.98506018821882 -4.74204934973497  1.28002399089909
 7 -4.92126067706771  2.57251748844884  1.53256994359436
 6 -4.04909899709971  2.47197521352135  2.68014324012401
 6 -3.74702523972397  3.66232631513151  3.24382332673267
 6 -4.55056081178118  4.61719018451845  2.59115499969997
 6 -5.30324968736874  3.93945862236224  1.59663481538154
 6 -2.78756738163816  3.90134721842184  4.36432030253025
 6 -4.71368406840684  6.05289532373237  3.01124656145615
 8 -4.08653114041404  6.56585141534153  3.87809178167817
 7 -6.89664131373137  2.67035496799680 -0.66769943764376
 6 -6.99491168896890  3.97679808530853 -0.21817002010201
 6 -7.95980112031203  4.60143119991999 -1.20085289438944
 6 -8.43823685648565  3.67052618271827 -2.09114366676668
 6 -7.71316512801280  2.43266144024402 -1.76716048584858
 6 -8.40509278797880  6.00042141184118 -1.19638077267727
 6 -9.42411889028903  3.82357329562956 -3.21361390999100
 6 -8.65898487918792  3.91932329542954 -4.63050629732973
 7 -6.34835060236024 -0.05680086028603 -1.04819583998400
 6 -7.30961456815682  0.04000309470947 -2.10674659725973
 6 -7.49325244184418 -1.35080023272327 -2.80905392999300
 6 -6.58148363206321 -2.17843161646165 -2.07737694759476
 6 -5.87318524202420 -1.40069409890989 -1.12566043074307
 6 -8.43469884458446 -1.61643143174317 -3.87293821322132
 6 -6.21421504860486 -3.60805991199120 -1.94198959285929
 8 -6.50308354895490 -4.55131010111011 -2.57595784148415
 6 -4.97552780628063 -3.58303006970697 -0.90355697649765
 6 -5.27334446204620 -4.65086028762876  0.07184433543354
 8 -5.68287246984698 -4.38564449784978  1.19997711801180
 8 -5.00514047724772 -5.88986287038704 -0.39317348874887
 6 -5.38960230943094 -6.93847743884388  0.52491002580258
 6  2.30332701430143 -5.14384064426443  0.62746072737274
 6  3.38291160126013 -4.13004450375037  1.01302258805881
 6  4.00696980068007 -3.34443426432643  0.19372174717472
 6  3.78062295959596 -3.05518870727073 -1.30623829262926
 6  5.10718492449245 -2.49642391059106  0.86363821472147
 6  6.42925853055305 -2.73641859485949  0.26035636153615
 6  7.67131625832583 -1.80257190299030  0.64671850645064
 6  9.03214182268227 -1.94436041804180  0.03145643244324
 6  9.47573465356536 -3.46809671217122  0.04987811281128
 6  10.02234767036704 -0.91493211411141  0.51735969936994
 6  11.36203936123612 -0.87994078917892 -0.18219352995300
 6  12.31943956455646  0.26655584608461  0.19489027722772
 6  13.63614300840084  0.28638832573257 -0.65466522372237
 6  14.49755792879288 -0.91374210421042 -0.32033871907191
 6  14.16110604880488  1.66267103930393 -0.17493513591359
 6  15.44676395729573  2.16206814211421 -1.04869197689769
 6  15.82349196889689  3.54495700570057 -0.64525561856186
 6  17.17412180688069  3.97013592909291 -1.38742979077908
 6  16.97598658075808  4.07661322402240 -3.00068238823882
 6  17.76630004920492  5.30477860386039 -0.94756571357136
 1 -2.61879738563856  1.13347021062106  3.44369198039804
 1 -6.37077796069607  5.67502370457046  0.83144290699070
 1 -8.38475367446745  1.02759702120212 -3.44287966886689
 1 -3.43625069026903 -3.21957507420742  1.83381912401240
 1 -1.79568065406541 -0.91304891309131  2.80999316531653
 1 -2.96761608680868 -2.67666424732473  4.18694864076408
 1 -3.19243584368437 -1.08015013271327  4.72389852575258
 1 -4.59972164796480 -1.78195611361136  3.96684990759076
 1 -2.33282044764476 -3.33217626262626 -0.25273300790079
 1 -1.50602130183018 -1.85896452385239  0.11933277457746
 1 -0.43718810891089 -2.94506447874788  2.45368991009101
 1 -1.31148062666267 -4.58623545984598  1.66931596829683
 1 -1.85127377947795  3.47380206690669  4.12951533263326
 1 -2.71248890289029  4.92083172227223  4.68964462736274
 1 -3.05707564006401  3.25041823592359  5.26517349414942
 1 -5.34752861216122  6.56373435593559  2.17344946074607
 1 -10.09153313581358  2.90057720962096 -3.22519367396740
 1 -10.10259774267427  4.84992252675267 -3.15281827442744
 1 -9.45017077797780  3.99413731373137 -5.40276658725873
 1 -8.06120008600860  4.89092103270327 -4.59981966376638
 1 -7.95197547244725  2.97419173307331 -4.61693580828083
 1 -8.34428100970097 -1.03342660036004 -4.86408637763776
 1 -8.45939556745675 -2.66926398669867 -4.09112845674567
 1 -9.38593184228423 -1.39498613321332 -3.29622390749075
 1 -4.03596537253725 -4.09411523452345 -1.58054298439844
 1  2.46584452825283 -6.01884917801780  1.01669005690569
 1  1.96407973457346 -5.19064759115912 -0.44223965906591
 1  3.50620660306030 -4.02938306060606  2.15653401750175
 1  2.81761921382138 -3.37297885278528 -1.44792744284428
 1  3.70626796479648 -1.98019271987199 -1.55219343684369
 1  4.57131963936394 -3.52351420772077 -2.05056651395140
 1  4.74392826182618 -1.60067561216122  0.74087447854786
 1  4.91435379377938 -2.58015233243324  2.05655954225423
 1  6.54883410341034 -3.77651195069507  0.20088941064106
 1  6.25829466896690 -2.51922413841384 -0.76261594779478
 1  7.25429623122312 -0.74406096039604  0.42864161746175
 1  7.79826873707371 -1.79089733823382  1.68048552095210
 1  8.91336723632363 -1.79089713041304 -0.98777699639964
 1  8.78264042944294 -4.15666452635264 -0.38819128932893
 1  10.44198722812281 -3.59332268696870 -0.34402198409841
 1  9.47857460506051 -3.76581230983098  1.27025798879888
 1  9.59943100400040  0.19057746814682  0.35307448184818
 1  10.26085504410441 -0.81126944624462  1.65694663196320
 1  11.85002693379338 -1.99227654935494  0.05716640884088
 1  11.06391233143314 -1.02662429792979 -1.32299314301430
 1  11.69670968906891  0.98058112991299 -0.11053826422642
 1  12.49675043374337  0.39668095139514  1.15889506460646
 1  13.51059180148015  0.62696743954395 -1.68888509330933
 1  14.92562278947895 -0.81762477977798  0.70901599909991
 1  14.10224061056106 -1.84069724862486 -0.73465972007201
 1  15.24824468096810 -0.78467179487949 -1.16691909490949
 1  13.38339758535854  2.45836413561356 -0.28048792609261
 1  14.31527914011401  1.66967338183818  0.91630045734573
 1  16.35152387948795  1.47680314181418 -1.03777159215922
 1  15.06897169266927  1.96104435583558 -2.03523705460546
 1  15.10629209130913  4.07858106580658 -0.89176045604561
 1  16.04467410131013  3.62965892529253  0.37595005380538
 1  17.96619643644365  3.13638714721472 -1.28706309420942
 1  16.22639977677768  4.90562784168417 -3.12401668056806
 1  17.84349673957396  4.45608200140014 -3.45065249884989
 1  16.55193987928793  3.25515042624262 -3.39871042424242
 1  18.09873774777478  5.36617727072707  0.07442660836084
 1  18.72959056985698  5.36746297279728 -1.48722086318632
 1  17.05040761056106  6.09122353245325 -1.35668402050205
 1 -5.30319820442044 -7.84199529892989 -0.02767708370837
 1 -6.36351684298430 -6.79659904130413  0.95957580088009
 1 -4.60042225962596 -7.06303617981798  1.38585145354535
 8 -7.94741763706371  6.92011204260426 -0.47220064846485
 1 -9.20224360816082  6.39417683338334 -2.03152161966197

