%nproc=3
%Mem=2GB
# td=(NStates=1) iop(3/107=0140000000,3/108=0140000000) iop(3/107=0140000000,3/108=0140000000) CAM-B3LYP/6-31G(d,p) 

TD

0 1
12 -5.60682641384138  1.23270329802980  0.18223089188919
 6 -5.12452257405741 -2.21696566126613 -0.28825189028903
 6 -3.38724018391839  1.23139568106811  2.61250268846885
 6 -6.26352277457746  4.52121014411441  0.70440280148015
 6 -8.11356227422742  1.11723040544054 -2.33363745764576
 7 -4.50169725422542 -0.30119604270427  1.09194936193619
 6 -4.28454367476748 -1.58680986238624  0.65028874737474
 6 -3.21585298699870 -2.34601580018002  1.39965555415542
 6 -2.96829098449845 -1.24955562526253  2.59072585918592
 6 -3.64157095709571 -0.05056420902090  2.12927358595860
 6 -3.44202631063106 -1.83338003060306  3.97794565396540
 6 -1.88556339963996 -2.64813880708071  0.61013519961996
 6 -0.83523128602860 -3.40448553645365  1.45455933283328
 6  0.35421128852885 -3.80329520162016  0.54428258935894
 8  0.45573942784278 -3.36890657945795 -0.52721273667367
 8  1.10139182138214 -4.71025617041704  1.20729671817182
 7 -4.94121267226723  2.68730896759676  1.34241092769277
 6 -3.98824291149115  2.40493850985099  2.35142036783678
 6 -3.73024356155616  3.59536961946195  3.12756170057006
 6 -4.46123187888789  4.64365283078308  2.58733461766177
 6 -5.31290065246525  4.04767944444444  1.45289044094409
 6 -2.71175980088009  3.65998308200820  4.13448731923192
 6 -4.54623732373237  6.08865890009001  2.84655009180918
 8 -3.86596908420842  6.61445627582758  3.73312728522852
 7 -6.96474812441244  2.55168310081008 -0.68031069876988
 6 -6.95115731353135  3.90508091359136 -0.38390659375938
 6 -7.99176431663166  4.63128418521852 -1.19155196429643
 6 -8.42105513831383  3.64986411651165 -2.03652820522052
 6 -7.83647745924593  2.38884705880588 -1.69955372517252
 6 -8.46225850455046  6.08176954665467 -1.04338547314731
 6 -9.52622910131013  3.79042998129813 -3.07648019661966
 6 -8.90811979267927  4.03874523762376 -4.49102234893489
 7 -6.47776354365436 -0.18260344054405 -1.01355237563756
 6 -7.44324793149315 -0.10945185078508 -1.99404532713271
 6 -7.62233535013501 -1.42423757645765 -2.63641666626663
 6 -6.77100258395840 -2.22550632393239 -1.97054626452645
 6 -6.08782670617062 -1.45092912241224 -1.02797066176618
 6 -8.50622599729973 -1.79376916551655 -3.75670659005901
 6 -6.16603023012301 -3.56272537853785 -2.04199959385939
 8 -6.47808104870487 -4.59082405250525 -2.71151139683968
 6 -5.00459071257126 -3.64118588528853 -0.85803242404240
 6 -5.35803293089309 -4.62842804440444  0.08018516951695
 8 -5.83060724332433 -4.45294122752275  1.19044616491649
 8 -5.17161712491249 -5.94991887598760 -0.41158532993299
 6 -5.43097644684468 -6.92930652175217  0.48709624442444
 6  2.38758544014401 -5.00786704690469  0.56141412271227
 6  3.42236554665467 -4.04296579587959  0.92090337613761
 6  4.14705380908091 -3.26583640454045  0.16544891989199
 6  3.80362525982598 -3.09122231063106 -1.31631930073007
 6  5.24073827982798 -2.29021328952895  0.76169802070207
 6  6.60153575827583 -2.54305925892589  0.10691101700170
 6  7.73219234593459 -1.66350799659966  0.74889872447245
 6  9.00844945344535 -1.89763574557456 -0.07778449164917
 6  9.45624270437044 -3.32725262776278  0.16693981898190
 6  9.98619405500550 -0.87600822172217  0.46041400480048
 6  11.35561871917192 -0.81016381148115 -0.26533184378438
 6  12.17797541814181  0.31046023652365  0.10069085728573
 6  13.56764615871587  0.48515820272027 -0.58512827002700
 6  14.49314748774878 -0.74165489548955 -0.40695738093809
 6  14.25722566076608  1.71908668086809 -0.08564620702070
 6  15.50663994489449  2.08043997929793 -0.87427453515352
 6  16.11120073977398  3.54094660466047 -0.59330042304230
 6  17.45838023272327  3.86351526702670 -1.33575462326233
 6  17.39465844794480  3.87969353205321 -2.86390871087109
 6  18.13494691389139  5.10088821482148 -0.74672562956296
 1 -2.57237274317432  1.30054691829183  3.29982759395940
 1 -6.44969585248525  5.59900610281028  0.70725048774878
 1 -9.03120831993199  1.15658992049205 -3.03652903380338
 1 -3.50749781498150 -3.40797391409141  1.92925866796680
 1 -1.81925301130113 -1.17720532873287  2.69242140814081
 1 -3.00558988418842 -2.70756733763376  4.17341728762876
 1 -3.35317191729173 -1.11110322802280  4.66456259215922
 1 -4.55602727852785 -1.91914983298330  3.87928115071507
 1 -2.02614978057806 -3.13289633463346 -0.37482521712171
 1 -1.40688138783878 -1.75038366576658  0.06747758905891
 1 -0.26794118421842 -2.69881985428543  2.18552309340934
 1 -1.43485296389639 -4.27381421772177  1.82098113481348
 1 -1.82874152625263  3.30225491219122  3.76942932403240
 1 -2.44510216421642  4.71255089418942  4.43675933883388
 1 -2.97220715321532  3.36433962806281  5.40260723752375
 1 -5.12761662096210  6.64918290079008  2.10850296609661
 1 -10.13128711121112  3.00419757165717 -3.13246440104010
 1 -10.17782526542654  4.62019955445545 -2.92754574717472
 1 -9.67101286218622  4.04534243424342 -5.37055336593659
 1 -8.44504847084708  4.99434137473747 -4.69419910171017
 1 -8.08785906080608  3.20710502440244 -4.81861597629763
 1 -8.30593717531753 -1.15277853555356 -4.60092006100610
 1 -8.38603823172317 -2.95216227652765 -3.92250159405941
 1 -9.59914316341634 -1.60707734233423 -3.47937222232223
 1 -4.06590836683668 -3.94752057505751 -1.43223815391539
 1  2.50056800060006 -6.11562885598560  1.00822921082108
 1  2.06493982058206 -4.95648417481748 -0.52939837493749
 1  3.60115609800980 -3.95134525682568  2.09093745784578
 1  2.51249870177018 -3.26070762566257 -1.38287093719372
 1  3.91893923192319 -2.10461516211621 -1.65372358985899
 1  4.38462096949695 -3.73493534983498 -1.90194165146515
 1  4.61952582158216 -1.20444598919892  0.39117950905091
 1  5.35040739913991 -2.29254357155716  1.92649653595360
 1  6.66189540954095 -3.72176647614761  0.21426074777478
 1  6.73568240774077 -2.35175739173917 -0.98122780898090
 1  7.62647344894490 -0.46523307760776  0.76686543984398
 1  7.81297020722072 -1.83986223472347  1.83837130953095
 1  8.85057095669567 -1.61333937463746 -1.03284150285029
 1  8.81875404080408 -4.15871473137314 -0.34461693189319
 1  10.48048107750775 -3.53989734443444 -0.21752933483348
 1  9.43384013161316 -3.71710743934393  1.26180714371437
 1  9.46228728962896  0.02302071247125  0.43762293669367
 1  10.19540849944994 -0.94758307760776  1.53403434073407
 1  11.76570850195020 -1.71034835653565  0.02728342054205
 1  11.21596753695370 -0.89376101160116 -1.34487533123312
 1  11.60034005210521  1.28230130193019  0.01828461806181
 1  12.37250800950095  0.33080436373637  1.26047522262226
 1  13.54101484378438  0.61312605540554 -1.70401660646065
 1  14.70601082828283 -1.13675669296930  0.56399149664966
 1  14.26311669816982 -1.68911209010901 -1.10329658375838
 1  15.37569742624262 -0.55025835353535 -0.89289169216922
 1  13.31699094469447  2.36410470967097 -0.11792166946695
 1  14.37490510271027  1.49933634813481  1.03515234253425
 1  16.39308803590359  1.39872533403340 -0.57951576657666
 1  15.34310910641064  1.86486473787379 -2.00403393429343
 1  15.42583404550455  4.32439564726473 -1.05301658165817
 1  16.12908254215422  3.60159611901190  0.56225868466847
 1  18.07725754255426  3.09506301480148 -1.13294768266827
 1  16.71995913271327  4.53877115601560 -3.30885516441644
 1  18.31806419631963  4.08819521272127 -3.27645507910791
 1  16.89323400870087  2.90439535073507 -3.31475202840284
 1  18.27500537453745  4.98679933293329  0.40272943864386
 1  18.98535614641464  5.21989821632163 -1.52878501960196
 1  17.47258982878288  5.95269968006801 -0.97562591469147
 1 -4.98911679627963 -7.85700680008001  0.00245592959296
 1 -6.73416390769077 -7.33302268366837  0.58735857915792
 1 -5.10041225862586 -6.71920179637964  1.45851872027203
 8 -7.92236513181318  6.82791282268227 -0.27553098149815
 1 -9.13897728152815  6.34321173687369 -1.68281674917492

