%nproc=3
%Mem=2GB
# td=(NStates=1) iop(3/107=0140000000,3/108=0140000000) iop(3/107=0140000000,3/108=0140000000) CAM-B3LYP/6-31G(d,p) 

TD

0 1
12 -5.51538726992699  1.21421144884488  0.14285695449545
 6 -4.99607972977298 -2.16940090479048 -0.45625869096910
 6 -3.39107056695670  1.18150069156916  2.70961239943994
 6 -6.12695911821182  4.56860488358836  0.59229159035904
 6 -8.02790370837084  1.21460014241424 -2.40502459635964
 7 -4.49854693919392 -0.37399332243224  1.03285345234523
 6 -4.27190241064106 -1.66136731813181  0.68645236373637
 6 -3.20677207890789 -2.31855305390539  1.56471205980598
 6 -2.93000715611561 -1.29926059575958  2.55570235683568
 6 -3.57722452245225 -0.04775392799280  2.09851050965097
 6 -3.42931503950395 -1.71382807540754  3.96530438983898
 6 -1.97737258055806 -2.61957595079508  0.69626381248125
 6 -0.96617438033803 -3.56846193409341  1.36076995389539
 6  0.18077394479448 -3.99888476057606  0.56828498959896
 8  0.37628148204820 -3.52131181998200 -0.53475349074907
 8  1.00329201140114 -4.78796394119412  1.22391838033803
 7 -4.89967851885188  2.61393162986299  1.41157784438444
 6 -4.02620670787079  2.46424444044404  2.44176940274027
 6 -3.69820035723572  3.53600368286829  3.26832577697770
 6 -4.46927268296830  4.57929639513951  2.56444232843284
 6 -5.17934729712971  3.88191286778678  1.49044419631963
 6 -2.81452007690769  3.70938802250225  4.33266713721372
 6 -4.51590429042904  6.00682071627163  2.75704114091409
 8 -3.81139362666267  6.41445627582758  3.71898587108711
 7 -6.79005065466547  2.64090202270227 -0.77235990369037
 6 -6.81448364616462  3.94542494799480 -0.46715491859186
 6 -7.85058019821982  4.67268832563256 -1.22678548764876
 6 -8.43869690249025  3.74918404850485 -2.05181973437344
 6 -7.76931074257426  2.43569174327433 -1.72949671947195
 6 -8.11098337703771  6.10522189188919 -1.21853298789879
 6 -9.55153163156316  3.87764870317032 -3.13616616521652
 6 -8.91817079777978  3.98213957705771 -4.57579082578258
 7 -6.31345711301130 -0.10382556275628 -1.12505352575258
 6 -7.30279388608861 -0.01101200680068 -2.14520044264426
 6 -7.62907602420242 -1.35625077777778 -2.69824284888489
 6 -6.71494697839784 -2.16450022332233 -1.97806701660166
 6 -5.93092101560156 -1.36552058155816 -1.10244810951095
 6 -8.57569294399440 -1.60150993959396 -3.65055597499750
 6 -6.29374300140014 -3.58989809580958 -1.88507390129013
 8 -6.59562280288029 -4.57678264836484 -2.51279152485249
 6 -4.95936619011901 -3.55883765046505 -0.85447206800680
 6 -5.32190931853185 -4.60744594619462  0.21877902890289
 8 -5.78538272087209 -4.34702063546355  1.25919303960396
 8 -5.15958592179218 -5.89086297039704 -0.23662783418342
 6 -5.34336768596860 -6.97594118521852  0.74430196499650
 6  2.23797047864786 -5.15662192239224  0.54343232453245
 6  3.40166347644764 -4.26697819711971  0.94605589138914
 6  3.97476658035804 -3.27831765266527  0.19329170417042
 6  3.61839673697370 -3.05782897129713 -1.30927859665967
 6  5.11084529052905 -2.45262953115312  0.74385623652365
 6  6.56581218591859 -2.79151410441044  0.08038836473647
 6  7.59429855655566 -1.93356500230023  0.60943477807781
 6  9.01316992549255 -2.06729271127113 -0.09961667486749
 6  9.69442652275228 -3.39500940344034  0.08455158015802
 6  9.95791122672267 -0.94608522942294  0.41059902330233
 6  11.28347150445044 -0.85545834093409 -0.32893820442044
 6  12.15362298289829  0.29034822532253  0.09438022622262
 6  13.50097949204920  0.53814350125013 -0.58089784698470
 6  14.42723089608961 -0.77401813181318 -0.36065275047505
 6  14.30370030823082  1.76875164736474 -0.16471411381138
 6  15.47724700560056  2.22908484378438 -1.01747885558556
 6  15.92815243494349  3.65878838883888 -0.62687378037804
 6  17.26217061176117  4.13804271977198 -1.28061910971097
 6  17.12425140724072  4.21360692339234 -2.80348266826683
 6  17.85133855305530  5.37768589458946 -0.62762371937194
 1 -2.64633013891389  1.32100896449645  3.56040365156516
 1 -6.18673955685569  5.62722892509251  0.49413917661766
 1 -8.77823302240224  1.09566382788279 -3.20989637053705
 1 -3.62846991219122 -3.25658877557756  1.83850959305931
 1 -1.86897798379838 -1.23817142534253  2.71653381938194
 1 -2.65822514771477 -2.44715129602960  4.58719866576658
 1 -3.39512611271127 -0.88945106280628  4.68324446034603
 1 -4.42464414021402 -2.02586050405040  3.87813103570357
 1 -2.33777094269427 -3.22985603060306 -0.24052178677868
 1 -1.46803750345034 -1.74715334273427  0.32315315661566
 1 -0.66026041614161 -3.16066603890389  2.18485302640264
 1 -1.56646612521252 -4.44165100140014  1.69912894959496
 1 -1.65880453255326  3.59495418211821  4.27973035413541
 1 -3.22144979897990  4.70479011811181  4.94344000690069
 1 -3.31424135663566  2.94129732383238  5.02883986078608
 1 -5.12880673997400  6.65602358485849  2.23761587738774
 1 -10.27782176467647  3.07221437333733 -3.30304145874587
 1 -10.02592007490749  4.94849238373837 -2.84714770737074
 1 -9.51899766066607  4.27414531453145 -5.35245155575558
 1 -8.02203616961696  4.86768870947095 -4.61438111991199
 1 -8.17658793369337  3.12416673057306 -4.87014112881288
 1 -8.30687726932693 -1.10744400210021 -4.71302127112711
 1 -8.55246487438744 -2.65532259255926 -3.82250159405941
 1 -9.64100734983498 -1.30135677027703 -3.46812109720972
 1 -4.14071584758476 -4.08291411441144 -1.53344827492749
 1  2.48332627642764 -6.30706799989999  1.14263265116512
 1  2.17094042064206 -5.27156568296830 -0.44228966406641
 1  3.62003798619862 -4.51383150545054  1.94202256635664
 1  2.60132758465847 -3.16429798469847 -1.35278792889289
 1  3.58871620962096 -2.07402210281028 -1.44458267576758
 1  4.44651715911591 -3.63474533083308 -1.82568402570257
 1  4.87452132113211 -1.44473001760176  0.63367375847585
 1  5.02921527992799 -2.77942225942594  1.75605949224923
 1  6.74614383438344 -4.02942724222422  0.23657297899790
 1  6.39109794929493 -2.55438765476548 -0.99313900010001
 1  7.33099390099010 -0.97139369366937  0.59791854515452
 1  7.70865977617762 -2.05457370587059  1.57343481588159
 1  8.89128502810281 -2.02219025972597 -1.18376659535954
 1  9.10829299469947 -4.30355921582158 -0.00261273147315
 1  10.48453148254825 -3.49736309100910 -0.78009559145915
 1  10.14108085568557 -3.60153588218822  0.99803076607661
 1  9.36738779967997  0.02211062146215  0.22066124052405
 1  10.14301325992599 -1.27412573187319  1.53344428172817
 1  11.83888581968197 -1.90487780948095 -0.22976228402840
 1  11.17270321052105 -0.61905354085409 -1.38376922062206
 1  11.63098311641164  1.18011108290829 -0.01093830423042
 1  12.43845460416042  0.28659994329433  1.06464563966397
 1  13.29237998029803  0.73511825462546 -1.57246345114511
 1  14.39658988618862 -1.16432945024502  0.83915901340134
 1  14.28025841234123 -1.74118729762976 -1.07554380848085
 1  15.52545240174017 -0.43767709540954 -0.65246764976498
 1  13.79733897949795  2.71174947414741 -0.09072895019502
 1  14.54169178137814  1.51763817831783  0.91997082438244
 1  16.29080780788079  1.36099156065607 -0.94594240924092
 1  15.22029682518252  2.10681893329333 -1.98340187108711
 1  15.14490595269527  4.39781298899890 -0.72079335933593
 1  16.34719435333533  3.69504546394639  0.46071853065307
 1  18.06553637043704  3.30825433393339 -1.00486487438744
 1  16.38547568436844  4.83850112901290 -2.95584986388639
 1  17.92681507140714  4.60532692589259 -3.36734416801680
 1  16.76752143744374  3.35206011721172 -3.42256280948095
 1  17.90351822582258  5.38822947594759  0.39051821752175
 1  18.93868147894790  5.83236946344634 -1.26721886298630
 1  17.17501007080708  6.45823023312331 -0.72606095819582
 1 -5.04654253885389 -8.03168426782678  0.27103278727873
 1 -6.38027851915191 -6.82401178257826  1.01831167446745
 1 -4.74931714911491 -6.91734161036104  1.61404427282728
 8 -7.68993188848885  6.88567859925993 -0.40968439683968
 1 -8.72054543834384  6.44185160086009 -2.13401186868687

