%nproc=3
%Mem=2GB
# td=(NStates=1) iop(3/107=0140000000,3/108=0140000000) iop(3/107=0140000000,3/108=0140000000) CAM-B3LYP/6-31G(d,p) 

TD

0 1
12 -5.60323605480548  1.22755278297830  0.09148181698170
 6 -4.95006512831283 -2.08280224492449 -0.44844790989099
 6 -3.39019047894790  1.18289083058306  2.74415585378538
 6 -6.19953637593759  4.60198822192219  0.64956731793179
 6 -8.11395231323132  1.08935761816182 -2.43358745264526
 7 -4.35181226572657 -0.25460138323832  0.93409357635764
 6 -4.19975519591959 -1.59162034343434  0.60134385288529
 6 -3.23881528322832 -2.38704990359036  1.45626121472147
 6 -2.94684884028403 -1.33917458715872  2.58045483208321
 6 -3.50119691969197 -0.03052220482048  2.03682434103410
 6 -3.52281438943894 -1.75519221182118  3.84351221062106
 6 -2.02327717101710 -2.85373936713671  0.60604479057906
 6 -1.04574233713371 -3.57835292319232  1.45116899379938
 6  0.21317718511851 -3.90420529262926  0.58448660976098
 8  0.48181203510351 -3.43530321912191 -0.52797281268127
 8  1.02906458865887 -4.66765190999100  1.21872786128613
 7 -4.86353490449045  2.68638887558756  1.47400408700870
 6 -3.89858394559456  2.44612262826283  2.43201842764276
 6 -3.72428296549655  3.61778186068607  3.16050499489949
 6 -4.58241399709971  4.63531199669967  2.72680856505651
 6 -5.34997435983598  3.92587726422642  1.56589174107411
 6 -2.58324694959496  3.84256133983398  4.15410928142814
 6 -4.64277697769777  6.13534356855686  2.94176961376138
 8 -3.82855534283428  6.65881071127113  3.69062303480348
 7 -6.80834248384838  2.63274120662066 -0.71122379007901
 6 -6.92206440424042  3.94949535503550 -0.34509271237124
 6 -7.90741588178818  4.57907896469647 -1.16971978107811
 6 -8.48491152395239  3.56467559765977 -2.04076862926293
 6 -7.73758757025703  2.35423359745975 -1.70436420622062
 6 -8.23226550525053  5.97630900060006 -1.09251038563856
 6 -9.43564004240424  3.80741167946795 -3.10356290489049
 6 -8.88148712941294  3.93769513261326 -4.49810305700570
 7 -6.30996676397640 -0.13082826302630 -1.15542656305631
 6 -7.37951155785579 -0.11878278387839 -2.09424534713471
 6 -7.49992310891089 -1.36755190789079 -2.69445246984698
 6 -6.71001648534854 -2.20597437073707 -1.99126833673367
 6 -5.93589151265127 -1.41153518301830 -1.07383524822482
 6 -8.58276365106511 -1.61148093669367 -3.71932285168517
 6 -6.16442006910691 -3.56438554455446 -1.89467486138614
 8 -6.68180142074207 -4.55776074617462 -2.58291853755376
 6 -5.01019127262726 -3.58334010071007 -0.91883850465047
 6 -5.34656178377838 -4.66467166876688  0.15088223922392
 8 -5.75751993459346 -4.47868380178018  1.25322244254425
 8 -5.14142410561056 -5.82362624672467 -0.37213138453845
 6 -5.50993434263426 -6.92091568266827  0.54036157095710
 6  2.35174185578558 -5.06037229742974  0.56821480278028
 6  3.41756506660666 -4.08929042834283  0.91305259105911
 6  4.03874297799780 -3.20811063196320  0.13459583458346
 6  3.68681357865787 -3.13102629102910 -1.42004967376738
 6  5.12355656165617 -2.39264353255326  0.71741359225923
 6  6.56058166286629 -2.64705965896590  0.04982530843084
 6  7.61302042874287 -1.76157780358036  0.62948678327833
 6  9.00293890239024 -1.93086906890689 -0.02748946214621
 6  9.60356743684368 -3.36032593509351  0.10720384538454
 6  10.01959739533953 -0.85320594149415  0.61817978137814
 6  11.32208536583658 -0.90162295739574 -0.20637594819482
 6  12.22797041764176  0.25535472597260  0.22341312951295
 6  13.61528092219222  0.38387807470747 -0.55281503870387
 6  14.46724489748975 -0.76694742474247 -0.27258394359436
 6  14.26191612981298  1.74759953215322 -0.11685932833283
 6  15.49859914081408  2.11913384868487 -1.00999810751075
 6  16.03979359905991  3.53473598359836 -0.44267536053605
 6  17.30072446714671  3.96144506000600 -1.39986103390339
 6  16.98283726582659  4.05092065476548 -2.93649596959696
 6  17.85724914411441  5.29609773577358 -0.86248720572057
 1 -2.47657316321632  1.07427429102910  3.46881449264927
 1 -6.41390227312731  5.69163536573657  0.76897666036604
 1 -8.79348454755475  1.00741500300030 -3.11639702060206
 1 -3.84515158035804 -3.38147126382638  1.89869561166117
 1 -1.81917300330033 -1.10838844704470  2.79169133513351
 1 -3.19334866006601 -2.76159274017402  4.30453039893989
 1 -3.45817241734173 -0.94470658835884  4.79785592149215
 1 -4.59969164496450 -1.68512643064306  3.70866408900890
 1 -2.41547871347135 -3.53261630663066 -0.20608834343434
 1 -1.53455415511551 -1.81515014241424  0.28081892319232
 1 -0.59850424052405 -3.10116008830883  2.37542208330833
 1 -1.49984946354635 -4.56281311761176  1.76921595829583
 1 -1.47698635073507  3.59475416211621  3.81319370047005
 1 -2.59454710871087  4.88330796989699  4.37708337123712
 1 -2.81634156665667  3.44296749084909  5.20296727352735
 1 -5.36927078637864  6.62452043454345  2.30610272607261
 1 -10.24457844034403  2.93928108000800 -3.04841599619962
 1 -9.89628711161116  4.61455899039904 -2.84020701330133
 1 -9.84793055395540  4.01389928992899 -5.09856616721672
 1 -8.16274024002400  4.77957989858986 -4.46785646744674
 1 -8.36933720862086  3.01017533143314 -4.68606272097210
 1 -8.29028561016102 -1.10055331303130 -4.67092706170617
 1 -8.36704633253325 -2.73839089938994 -3.69585892979298
 1 -9.64917816691669 -1.24881151575158 -3.14675896099610
 1 -4.15129690569057 -3.98849467246725 -1.46134106420642
 1  2.74823276707671 -5.94719201230123  0.95686407430743
 1  2.07803112971297 -5.18283681008101 -0.45987142224222
 1  3.61268725112511 -4.19911003330333  2.11707007110711
 1  2.55117256915692 -3.59342089698970 -1.68329097919792
 1  3.73403074107411 -1.88248294889489 -1.67085530303030
 1  4.37608011541154 -3.69575143144315 -1.98045950325033
 1  4.93413728272827 -1.43771931653165  0.47735812691269
 1  5.27317967636764 -2.66228054525453  1.71823570987099
 1  6.68005722572257 -3.69886418591859  0.03078239993999
 1  6.43505234473447 -2.48363057905791 -0.97807749394940
 1  7.20657145874588 -0.61482803710371  0.51695044834483
 1  7.72775168536854 -1.92757100560056  1.82923039543954
 1  8.80768666826683 -1.70432847354735 -1.17906612531253
 1  8.93045521092109 -4.20760962086209 -0.10347281748175
 1  10.61720474987499 -3.36132948764876 -0.47469505140514
 1  9.87395414301430 -3.55740146874687  1.25171613461346
 1  9.51643270417042 -0.04859644924492  0.46839601400140
 1  10.11920087868787 -0.85724404370437  1.79251018831883
 1  11.80875280638064 -1.83918123982398  0.14128482068207
 1  11.38282422262226 -0.99933156865687 -1.29254009770977
 1  11.58455847394739  1.06050912271227 -0.02445965636564
 1  12.53229398809881  0.18821010431043  1.35841501660166
 1  13.30038078037804  0.57697244004400 -1.71511771657166
 1  14.81701192839284 -0.95147816511651  0.70292539003900
 1  14.21208159465947 -1.73037621652165 -0.65636189028903
 1  15.48924878137814 -0.63116644434443 -0.85080748374837
 1  13.59731897749775  2.65343364256426 -0.15307518481848
 1  14.56598421062106  1.73222963746375  0.96744557185719
 1  16.14809353645364  1.53453891539154 -0.82310012501250
 1  15.37149194469447  2.17950620202020 -2.02517604850485
 1  15.38183964606461  4.36598980668067 -0.53142442244224
 1  16.56622625652565  3.52298825822582  0.51572403120312
 1  18.08594841164117  3.31149465796580 -1.30866525442544
 1  16.28137527432743  4.65527280618062 -3.05640991989199
 1  17.93519590949095  4.14986137933793 -3.47966540014001
 1  16.70532521782178  2.83273818501850 -3.23928448164816
 1  18.25655352935294  5.31807246024603  0.12612177787779
 1  18.73088069886989  5.70872709920992 -1.56877901900190
 1  17.16338890869087  6.07515192529253 -0.91974032613261
 1 -5.00945883048305 -7.96634773417342  0.10772645664566
 1 -6.57132762406241 -7.01690107150715  0.58866871017102
 1 -5.09566178357836 -6.75580545674567  1.51291415981598
 8 -7.81620451575157  6.84730476187619 -0.30150357875788
 1 -8.92341572537254  6.30387780348035 -1.95785425292529

