%nproc=3
%Mem=2GB
# td=(NStates=1) iop(3/107=0140000000,3/108=0140000000) iop(3/107=0140000000,3/108=0140000000) CAM-B3LYP/6-31G(d,p) 

TD

0 1
12 -5.70377610881088  1.26314634233423  0.19461213001300
 6 -5.07994811661166 -2.11974593929393 -0.34559762486249
 6 -3.52429388928893  1.12308484998500  2.78907034523452
 6 -6.13279970227023  4.60803882698270  0.58097045824582
 6 -8.00641155915592  1.14129281168117 -2.35272936683668
 7 -4.35964304880488 -0.21397732083208  0.94578474547455
 6 -4.22513773417342 -1.53394457585759  0.58711242974297
 6 -3.17611901360136 -2.20827202580258  1.39681527012701
 6 -2.82758691409141 -1.28906957665767  2.55143192979298
 6 -3.63831063106311 -0.05905505810581  2.16111677027703
 6 -3.49713182118212 -1.73276996959696  3.90500836023602
 6 -1.87195203850385 -2.70388438163816  0.60117430353035
 6 -0.89686744964496 -3.51353644154415  1.33665754265427
 6  0.20838670607061 -3.92143701580158  0.57147530863086
 8  0.39233308720872 -3.54477416621662 -0.54106412181218
 8  1.05813749594960 -4.69886503130313  1.18986497499750
 7 -4.99153770477048  2.59038927562756  1.55244193079308
 6 -4.13274736193619  2.39920793679368  2.49911513731373
 6 -3.68136867406741  3.59588967146715  3.16480542494249
 6 -4.39534529022902  4.69646811231123  2.51874775897590
 6 -5.23978334073407  3.98793346984698  1.43273842574257
 6 -2.82181080598060  3.78853593729373  4.28265213571357
 6 -4.60911361136114  6.03841387558756  2.90482591939194
 8 -3.87213970127013  6.59125395559556  3.72942691519152
 7 -6.87158880848085  2.69190712321232 -0.74576724442444
 6 -6.90432263006301  4.03101350685068 -0.43029123222322
 6 -7.97740288048805  4.65347640444044 -1.21364417351735
 6 -8.47874090689069  3.75355448554855 -2.06902145454545
 6 -7.80353416491649  2.49662783688369 -1.69942371217122
 6 -8.36512879157916  6.06279764946495 -1.12735386998700
 6 -9.40979745814582  3.83666460476048 -3.18920146874687
 6 -8.86098507920792  3.76418778187819 -4.61442468916892
 7 -6.43081884918492 -0.08438361856186 -1.10214123452345
 6 -7.37144075077508 -0.06428733433343 -2.02919884248425
 6 -7.65840895749575 -1.31153630633063 -2.64782780738074
 6 -6.76092157585759 -2.14994876817682 -1.93277248714871
 6 -6.07176510001000 -1.39294332383238 -1.06575444014401
 6 -8.64418979367937 -1.66692648124812 -3.70303122252225
 6 -6.29985361246125 -3.53585269126913 -2.01676707060706
 8 -6.52796603720372 -4.52036700680068 -2.71200144584458
 6 -5.07491774527453 -3.50825259195920 -0.91647826862686
 6 -5.31186831443144 -4.57962316391639  0.23574072507251
 8 -5.69311349394939 -4.46517245064506  1.33368048834883
 8 -5.00313027622762 -5.79958384248425 -0.30550472187219
 6 -5.06615996519652 -6.93030662176218  0.56261379617962
 6  2.31567824942494 -5.05048130833083  0.72787076837684
 6  3.47487079717972 -4.11833333263326  1.09911119691969
 6  4.05425452915292 -3.28651847274727  0.22800517551755
 6  3.79595449274927 -3.21128431683168 -1.22867053585359
 6  5.30470467646765 -2.51984625282528  0.74417626852685
 6  6.68665427012701 -2.94099905290529  0.15273559945995
 6  7.72595172187219 -2.04210585638564  0.57732156675668
 6  9.05340394889489 -2.14201018301830 -0.13735044824482
 6  9.59270635073507 -3.60951085358536 -0.09124599959996
 6  10.03521895749575 -1.02969359025903  0.39615757915792
 6  11.40054321162116 -0.91468426352635 -0.36335164576458
 6  12.24756237683768  0.33894308480848  0.06466725492549
 6  13.60631002510251  0.48213790069007 -0.57644740194019
 6  14.48932710571057 -0.78431916191619 -0.35396208140814
 6  14.20055999419942  1.85792056425643 -0.26937457985799
 6  15.49306858775878  2.12320425572557 -0.89301640934093
 6  15.93563318301830  3.57329983998400 -0.60141123412341
 6  17.24754914961496  4.03116203170317 -1.24156520432043
 6  17.12143112521252  4.20048561126113 -2.72812513251325
 6  17.83156657585759  5.30851897789779 -0.71376233323332
 1 -2.77013251915191  1.22347921152115  3.57841545274527
 1 -6.18184906780678  5.73383958615862  0.66329609230923
 1 -8.97154235333533  1.13921818331833 -2.90313569446945
 1 -3.79469653485349 -2.96616973367337  1.91653739583958
 1 -1.72085317131713 -1.08200580878088  2.64320648664867
 1 -3.06829615481548 -2.74713129402940  4.41043098899890
 1 -3.44223082318232 -1.07281939963996  4.73654979087909
 1 -4.64418609440944 -1.97903582158216  3.74815803840384
 1 -2.18591575717572 -2.98708175317532 -0.35138287288729
 1 -1.24262496219622 -1.83106173357336  0.42018285958596
 1 -0.65029942004200 -3.32714268656866  2.37427196829683
 1 -1.44834431303130 -4.56431326762676  1.58341737843784
 1 -1.81467011911191  3.59855454215422  4.29631201230123
 1 -2.84934258825883  4.87601724082408  4.66736239913991
 1 -3.07148708120812  2.97608080218022  4.97526450325033
 1 -5.57319117841784  6.45898388088809  2.53086520232023
 1 -10.09435341784178  2.99049620152015 -2.95996715131513
 1 -9.90354783768377  4.79532706720672 -3.13500649324932
 1 -9.60137589848985  3.71628952895289 -5.35604191479148
 1 -8.11109507550755  4.58576051665167 -5.01084076587659
 1 -8.30965124002400  2.77534184808481 -4.66712082678268
 1 -8.23903048464846 -1.13198645634563 -4.65371534053405
 1 -8.61975160306030 -2.72109917021702 -4.11506084998500
 1 -9.61105435453545 -1.33384001860186 -3.28982326742674
 1 -4.19042081808181 -3.81784760776078 -1.51901683178318
 1  2.61883982778278 -6.01538883198320  1.04825321322132
 1  2.32045537213721 -5.18987751415142 -0.38186362146215
 1  3.76942292469247 -4.06457657995800  2.13359172327233
 1  2.95237268916892 -3.55213676857686 -1.46452910301030
 1  3.93742108010801 -2.21273597419742 -1.60424864236424
 1  4.69845235263526 -3.84862671897190 -1.64156561386139
 1  5.32452632163216 -1.39691523612361  0.47773816491649
 1  5.30540289868987 -2.49863418061806  1.79369325562556
 1  6.83214243424342 -3.90010430993099  0.12151147284729
 1  6.33895273477348 -2.52929514551455 -0.93571325752575
 1  7.44032483408341 -0.83988054235424  0.43243199649965
 1  7.92631154135413 -2.03840208870887  1.66651412381238
 1  8.81047694729473 -2.18809685038504 -1.15020323902390
 1  8.97738990439044 -4.39203806370637 -0.50521299149915
 1  10.69736276567657 -3.82686604130413 -0.37385496739674
 1  9.59339608720872 -3.60661639023902  1.17302826582658
 1  9.73360442134213  0.02899130953095  0.26719589398940
 1  10.34338329692969 -1.27747606690669  1.47136807410741
 1  11.91550348144815 -1.95598291999200 -0.23353266106611
 1  11.24312025222522 -1.11099273477348 -1.33893473717372
 1  11.73927394549455  1.20233330513051 -0.20248745914591
 1  12.42215297399740  0.21381266456646  1.35825500060006
 1  13.30917165946595  0.56257099989999 -1.67125333013301
 1  14.72809303650365 -0.74544756205621  0.68460355785579
 1  13.79055944244424 -1.64324750365036 -0.59230548464846
 1  15.52686254275427 -0.85923925162516 -0.94556695969597
 1  13.52235148074807  2.54428272747275 -0.52310218751875
 1  14.35707331953195  1.88135454995500  0.98262709000900
 1  16.30444917201720  1.53346880838084 -0.61477929292929
 1  15.38251304680468  1.96222447384738 -2.04279781068107
 1  15.07932939503950  4.26091929962996 -1.10527180718072
 1  15.77506714061406  3.94970092949295  0.55039749854985
 1  18.07773759055906  3.18453196169617 -0.98772316021602
 1  16.40927806460646  5.07841512041204 -2.89780405930593
 1  18.11418380828083  4.28179457265727 -2.99774720832083
 1  16.65119980528053  3.24274918611861 -3.26188674187419
 1  18.23685155915592  5.17139779277928  0.35401456715672
 1  18.93724133493349  5.49741596809681 -1.31037317841784
 1  16.99000156995699  6.10993540364036 -0.91157951005100
 1 -5.01067895249525 -7.75792689208921 -0.03409772577258
 1 -5.91919241054105 -6.94451383278328  1.26772661596160
 1 -4.31952416981698 -7.01777165336534  1.43215608400840
 8 -8.01718461376138  6.91521155255526 -0.36656008440844
 1 -8.97123050685068  6.29798721442144 -2.07977644514451

