%nproc=3
%Mem=2GB
# td=(NStates=1) iop(3/107=0140000000,3/108=0140000000) iop(3/107=0140000000,3/108=0140000000) CAM-B3LYP/6-31G(d,p) 

TD

0 1
12 -5.66932266346635  1.19196922462246  0.16656932573257
 6 -5.08699882168217 -2.17975193989399 -0.36345941104110
 6 -3.42495395529553  1.13681622312231  2.91442288048805
 6 -6.26307272957296  4.55328335143514  0.61825418661866
 6 -7.99194011201120  1.19757844024402 -2.35043913781378
 7 -4.45431251575158 -0.34914083718372  1.13058322532253
 6 -4.24138935933593 -1.55963714511451  0.59247296579658
 6 -3.23072447414741 -2.31952315091509  1.50400598919892
 6 -2.94114827022702 -1.27804847454745  2.67280406700670
 6 -3.69206600660066 -0.07657681028103  2.17760841944194
 6 -3.42259436743674 -1.64974166676668  3.98768662806281
 6 -1.91378622192219 -2.64232822602260  0.64365855195520
 6 -0.90863862676268 -3.54798988688869  1.29188306520652
 6  0.26647251465147 -3.84850972307231  0.46615477657766
 8  0.54875872977298 -3.39884957375738 -0.58745876127613
 8  1.03220490269027 -4.70327547234723  1.13557954645465
 7 -4.95167371837184  2.67400763746375  1.48982566916692
 6 -4.01665575277528  2.35366338233823  2.51722694849485
 6 -3.71583212041204  3.62074215671567  3.18600754515452
 6 -4.59898565426543  4.52485095059506  2.52581846604660
 6 -5.28444780718072  3.98506318281828  1.52321747364736
 6 -2.71219984488449  3.79047613131313  4.28926279677968
 6 -4.56249894989499  6.06558659285929  2.75838127492749
 8 -3.83872635993599  6.53593842404240  3.60509448194819
 7 -6.78699034863486  2.61135906840684 -0.70086275397540
 6 -6.91327352515252  3.91551195669567 -0.41811001410141
 6 -7.87993313351335  4.65354641144114 -1.23869667876788
 6 -8.47342037483748  3.63326245634563 -2.06089064146415
 6 -7.75256906840684  2.31813998809881 -1.68098186798680
 6 -8.25140741944194  6.09303067276728 -1.17675881048105
 6 -9.60559703810381  3.73834477277728 -3.06756930553055
 6 -9.07342632333233  4.04354571767177 -4.53794704140414
 7 -6.45563133043304 -0.07154233443344 -1.09373039343934
 6 -7.45991959865987  0.01079017341734 -2.00689661226123
 6 -7.64796791339134 -1.27363251595160 -2.62596562116212
 6 -6.77270275397540 -2.17933170647065 -2.14448365826583
 6 -6.08314623812381 -1.42661669116912 -1.14004186888689
 6 -8.52931830653065 -1.61176096469647 -3.86085700510051
 6 -6.34289791689169 -3.54859396539654 -1.97679307320732
 8 -6.80402364296430 -4.54786975707571 -2.54736498219822
 6 -5.11311156465647 -3.58608037473747 -0.86019264006401
 6 -5.32135926352635 -4.69328453005301  0.12039919091909
 8 -5.73458764136414 -4.55861179457946  1.29408652895290
 8 -4.99080904410441 -5.89361324542454 -0.29436360776078
 6 -5.30093344254425 -7.00692428352835  0.60046758155816
 6  2.34411109270927 -5.03631989218922  0.65204318561856
 6  3.47587089718972 -4.06141764106411  0.95254654045405
 6  4.08230733443344 -3.18736855775578  0.09703207820782
 6  3.79723462076208 -3.14368755715572 -1.37798546734673
 6  5.14001820782078 -2.48293256145615  0.62748459935994
 6  6.52322792749275 -2.73847880088009 -0.08921859595960
 6  7.63080220692069 -1.92777442324232  0.49899373397340
 6  9.09273788228823 -2.08472445444544 -0.06732344554455
 6  9.70396747684768 -3.49585948844884  0.42751587658766
 6  9.95298073367337 -0.92998361926193  0.49125708910891
 6  11.43586674397440 -0.92101489658966 -0.24422973357336
 6  12.25681330193019  0.35534472497250  0.20644143234323
 6  13.56728612271227  0.52132181908191 -0.56162591979198
 6  14.43710188318832 -0.68757948794879 -0.37683436863686
 6  14.25437537573757  1.83832860506051 -0.09111675407541
 6  15.57789707060706  2.18726066136614 -0.85682278997900
 6  16.13772339203920  3.56210872087209 -0.57982907590759
 6  17.47079147384738  3.93693260876088 -1.34875592339234
 6  17.29766874897490  3.94339990269027 -2.85819813981398
 6  17.98131155035503  5.32502062806281 -0.78388934593459
 1 -2.85729123502350  1.11882874647465  3.71445905710571
 1 -6.43769465236524  5.51652785498550  0.84830459315932
 1 -8.82430762986299  0.99323358485849 -3.08771415231523
 1 -3.81609867506751 -3.27559067576758  2.07744348644865
 1 -1.72145323132313 -1.02675028322832  2.78720088608861
 1 -2.97974729992999 -2.59706628752875  4.36699664556456
 1 -3.12220882098210 -0.67659977767777  4.68693482938294
 1 -4.59428110391039 -1.85035295329533  3.97193041564156
 1 -2.22628979457946 -3.03930697569757 -0.42774050865087
 1 -1.40498119781978 -1.59516814421442  0.35989683098310
 1 -0.58011240134013 -3.21641161346135  2.45529007010701
 1 -1.38258773737374 -4.64788162446245  1.54198323502350
 1 -1.58196684878488  3.57270195689569  3.91859424052405
 1 -2.77344499849985  4.83046268536854  4.53892955585559
 1 -3.03604353685369  3.14288748284828  5.09337631443144
 1 -5.21508536783678  6.69284726722672  2.39002111791179
 1 -10.21520550305030  2.76893404530453 -2.96880803540354
 1 -10.29602708560856  4.42510004450445 -2.76428942154216
 1 -10.02194795569557  4.09382728272827 -5.08860517111711
 1 -8.57068103410341  5.08744068466847 -4.69731941374137
 1 -8.45973624852485  3.32630694459446 -5.03883799849985
 1 -8.30359694129413 -1.01572483018302 -4.54163413241324
 1 -8.26782641054105 -2.60966802710271 -4.31438078197820
 1 -9.61584483358336 -1.55364199879988 -3.49332361746175
 1 -4.29750152615262 -3.91839766276628 -1.44731966206621
 1  2.46641458525853 -6.08800609370937  0.77768615651565
 1  2.40946427302730 -5.07651617801780 -0.43548898399840
 1  3.73009899229923 -4.09852997529753  1.91966033013301
 1  2.75660311221122 -3.45501705660566 -1.59237188728873
 1  3.84567190519052 -2.14474917551755 -1.77806602410241
 1  4.52935544294430 -3.77352920922092 -1.98153961126113
 1  5.04208807780778 -1.39845539013901  0.14237462856286
 1  5.17713007140714 -2.41150546774677  1.68078196449645
 1  6.70896011601160 -3.80593489298930  0.19024834653465
 1  6.32080091959196 -2.74840705670567 -1.11925161136114
 1  7.49743054465447 -0.94229078337834  0.54032278557856
 1  7.58652756295630 -2.02111035953595  1.52461993439344
 1  8.98174407400740 -1.99892793349335 -1.11812003070307
 1  8.94788695409541 -4.13047190709071 -0.06448891909191
 1  10.50186321572157 -3.68467182188219 -0.30606818871887
 1  9.91177792539254 -3.70188591719172  1.51310227322732
 1  9.61098215911591  0.11688009840984  0.21816099049905
 1  10.04907386598660 -0.93014133343334  1.56168710601060
 1  11.94389632073207 -1.85012233393339  0.16533722592259
 1  11.18269420962096 -0.81812344784478 -1.28148899259926
 1  11.65520553865387  1.45962903470347  0.01922471207121
 1  12.39833059175918  0.17174845814581  1.37373654875488
 1  13.32326306860686  0.72118686148615 -1.64615081988199
 1  14.72150237743774 -0.82824584188419  0.60431552905291
 1  14.10491087758776 -1.50596377527753 -0.80416667076708
 1  15.40885074157416 -0.48725205290529 -0.96710911391139
 1  13.63754299989999  2.54524282348235 -0.26780665796580
 1  14.59178679087909  1.56539295379538  1.10892972027203
 1  16.43265199229923  1.46510197169717 -0.73643145814581
 1  15.38287308280828  2.10659891129113 -1.94140767166717
 1  15.58778024012401  4.45690889858986 -0.78439971997200
 1  16.27973760766076  3.67685364476448  0.53245570437044
 1  18.21625144194419  3.26031954045405 -1.05177956585659
 1  16.38326546334633  4.61123840274027 -3.25787006590659
 1  18.15401779167917  4.44938133133313 -3.20830826442644
 1  17.22989767506751  2.87783269446945 -3.32929348254825
 1  18.22941081508151  5.30417107010701  0.33406257195720
 1  19.01858946974697  5.41736796329633 -1.41348348944894
 1  17.41711428122812  6.11632604270427 -1.06647499959996
 1 -4.98443632823282 -7.96776787618762  0.01955763976398
 1 -6.28937942924292 -6.99480886228623  0.87660750405040
 1 -4.73280549794980 -6.72195207140714  1.37569043744374
 8 -7.83795669096910  6.92314234563456 -0.40733416181618
 1 -8.93698708250825  6.36778419411941 -1.86035450295029

