%nproc=3
%Mem=2GB
# td=(NStates=1) iop(3/107=0140000000,3/108=0140000000) iop(3/107=0140000000,3/108=0140000000) CAM-B3LYP/6-31G(d,p) 

TD

0 1
12 -5.66242197339734  1.21713174087409  0.19805247404740
 6 -5.02077219901990 -2.13260722542254 -0.38057112221222
 6 -3.35757721762176  1.10720326182618  2.87376881508151
 6 -6.21219764206421  4.52886090919092  0.67935029622962
 6 -7.93576449444944  1.20392907530753 -2.28026212011201
 7 -4.38492557705771 -0.21939786288629  1.03471363836384
 6 -4.23526874727473 -1.53659484088409  0.71811553005301
 6 -3.15285668736874 -2.26724792339234  1.52545813441344
 6 -2.97881203660366 -1.28875954565457  2.57804459105911
 6 -3.47971477147715 -0.01220037263726  2.10344100270027
 6 -3.45117722572257 -1.66547323992399  4.00056791619162
 6 -1.90095493879388 -2.64852884608461  0.63812799889989
 6 -0.88115587848785 -3.56185127302730  1.39817369426943
 6  0.27430329772977 -3.94068894099410  0.56746490759076
 8  0.49897375127513 -3.45522521132113 -0.52037205260526
 8  1.11043272547255 -4.81748689348935  1.19304529302930
 7 -4.98359691069107  2.62879311601160  1.53903058965897
 6 -3.89867395459546  2.48041605760576  2.54869009480948
 6 -3.75079561676168  3.68797888038804  3.17438638303830
 6 -4.53198895459546  4.67569603510351  2.51684756895690
 6 -5.37184654705471  3.86671134763476  1.59634478637864
 6 -2.80993961886189  3.84592167586759  4.35160903140314
 6 -4.64317701770177  6.09091912611261  2.84414985178518
 8 -3.86433892119212  6.59997482768277  3.62007598009801
 7 -6.96004765436544  2.57033496599660 -0.60231289898990
 6 -7.03040523832383  3.91420182568257 -0.27966616971697
 6 -7.98228336853685  4.60439149594959 -1.16833964306431
 6 -8.46658969176918  3.61953108320832 -2.09156370877088
 6 -7.85299911141114  2.33149132323232 -1.67407117691769
 6 -8.22758503720372  5.97746911661166 -1.10196133073307
 6 -9.33199967836784  3.81605254355436 -3.25462801140114
 6 -8.68741772247225  3.84164552765277 -4.69122236893689
 7 -6.28400416771677 -0.05867104730473 -1.16857787818782
 6 -7.29112271897190  0.05667476187619 -2.10220614321432
 6 -7.48914203080308 -1.31114626732673 -2.74793781838184
 6 -6.57932341604160 -2.16792056535654 -2.06558576847685
 6 -5.93413133663366 -1.39748377787779 -1.13211107580758
 6 -8.48083345804580 -1.67143693229323 -3.83449436883688
 6 -6.19744337143714 -3.61185029102910 -2.00302569646965
 8 -6.58498173877388 -4.58919388948895 -2.61012125782578
 6 -5.06574682818282 -3.57731949864987 -0.88358497929793
 6 -5.22177930553055 -4.62768797039704  0.19092624362436
 8 -5.71834601720172 -4.35464139753975  1.24951207150715
 8 -5.03214317751775 -5.81782566666667 -0.29649382078208
 6 -5.42522587178718 -6.92092568366837  0.50708824362436
 6  2.32356903850385 -5.14562082228223  0.51113909520952
 6  3.36072938303830 -4.16024752405241  0.90292157795780
 6  3.96770587428743 -3.35579540044004  0.06075845084508
 6  3.68735363266327 -3.23778696709671 -1.34290195899590
 6  5.04792899889989 -2.46728099629963  0.61978382928293
 6  6.48913451815181 -2.64578953195320  0.14615494139414
 6  7.66017514421442 -1.85574722052205  0.78482231683168
 6  8.98850745924593 -1.97025300730073 -0.05329204240424
 6  9.60632771287129 -3.47724762726273  0.08933205820582
 6  9.94951038663866 -0.92917353825383  0.54899286268627
 6  11.24532769006901 -0.80576337143714 -0.19329464006401
 6  12.16854447504750  0.39239843034303  0.15625641384138
 6  13.42030142424242  0.55181486838684 -0.68350810801080
 6  14.24769294229423 -0.70913164316432 -0.42379906510651
 6  14.13837377557756  1.84595936813681 -0.17284492689269
 6  15.38175745664566  2.19657159245925 -1.02443955165517
 6  16.03498311801180  3.55714822482248 -0.57652874587459
 6  17.38334272897290  3.87956687218722 -1.34216526432643
 6  17.12434141624163  3.97608317101710 -2.91603392339234
 6  17.91594501370137  5.19639776577658 -0.73720467746775
 1 -2.67123262916292  0.92836970057006  3.81044865606561
 1 -6.54334521742174  5.51476767896790  0.84326408910891
 1 -8.45063026212621  1.07529179067907 -3.21251663256326
 1 -3.61595866106611 -3.20571368806881  1.80000574267427
 1 -1.74778586458646 -1.20292790099010  2.65920808680868
 1 -2.75042436763676 -2.65909249014901  4.27760770667067
 1 -3.17085368546855 -0.96859897759776  4.80269640554055
 1 -4.50328200400040 -2.01953987198720  3.80425364796480
 1 -2.33243040864086 -3.16403944894489 -0.18339607420742
 1 -1.37741844154415 -1.77192581998200  0.31794263556356
 1 -0.65973036313631 -3.14060403270327  2.46543108420842
 1 -1.50949042764276 -4.46155299159916  1.55582461916192
 1 -1.85020367246725  3.64618930563056  4.05439782088209
 1 -2.80097775177518  5.00751039013901  4.44649031193119
 1 -3.09462939543954  3.36887008110811  5.30324730153015
 1 -5.54304816411641  6.57574555705571  2.42731484728473
 1 -10.20078406090609  3.05369252115211 -3.31528268286829
 1 -10.01489897279728  4.86860439493949 -3.03657665026503
 1 -9.33840960186019  3.75881378137814 -5.24392070267027
 1 -8.19194316031603  4.77298923952395 -4.79452913471347
 1 -8.01755203010301  2.69050336423642 -4.70397451215122
 1 -8.68293487508751 -0.87965122282228 -4.67055702470247
 1 -8.39615924382438 -2.66359341964196 -4.13820316421642
 1 -9.50500374947495 -1.55315194979498 -3.30784506960696
 1 -4.05956773277328 -3.68614443744374 -1.44923985408541
 1  2.58868681248125 -5.96885417851785  0.90933932183218
 1  2.31610493709371 -5.30413894029403 -0.65307074217422
 1  3.53265924832483 -4.50974109640964  1.89836820092009
 1  2.78084553645365 -3.63628518341834 -1.49504215431543
 1  3.98440577857786 -2.25853055365537 -1.83555177267727
 1  4.10530303770377 -3.93100495679568 -1.77612907020702
 1  4.81834570357036 -1.40421596619662  0.08641903300330
 1  4.90941329972997 -2.34155847304730  1.77943182948295
 1  6.68421764176418 -3.68497279677968  0.34220354205421
 1  6.53699253875387 -2.43975619161916 -0.88089777597760
 1  7.45544634623462 -0.85523207750775  0.63078183148315
 1  7.59599851005100 -2.04249249774978  1.86022349474947
 1  8.71475737533753 -1.76397443814381 -1.10647886658666
 1  8.84710687608761 -4.15452431233123 -0.51545401560156
 1  10.60179320872087 -3.32980633533353 -0.32389997189719
 1  9.58122487008701 -3.76798252685269  1.17627859085909
 1  9.41261232213221  0.01944035443544  0.74210338473847
 1  10.18761772037204 -1.13435175447545  1.46711764906491
 1  11.89530146124613 -1.68837615931593 -0.40479978777878
 1  11.04538047824783 -0.59710134563456 -1.18334917861786
 1  11.49155917401740  1.25787885968597  0.02526531613161
 1  12.36795755445545  0.17836912021202  1.31608078317832
 1  13.22948369066907  0.62648739153915 -1.80710691549155
 1  14.53069329652965 -0.91031404870487  0.61525662316232
 1  13.71650203670367 -1.43954713361336 -0.94206046014601
 1  15.15409526602660 -0.59881320902090 -1.03382578557856
 1  13.50903014861486  2.63112141134113 -0.40444032133213
 1  14.48036564876488  1.79513592809281  0.85601442874287
 1  16.25176390349035  1.57559302080208 -0.70369818481848
 1  15.24266906240624  2.25658390979098 -2.03915744664466
 1  15.21909337143714  4.39978318601860 -0.69332061206121
 1  16.19120875477548  3.70137609700970  0.46825928472847
 1  18.16607642444244  3.10879438793879 -0.90228461636164
 1  16.36333347014702  4.73596087498750 -3.04931921082108
 1  18.08441083098310  4.29309570277028 -3.42713014661466
 1  16.70642532783278  2.98384329552955 -3.17559811301130
 1  18.00913878787879  5.01021167416742  0.24416358205821
 1  18.89403701450145  5.47056328282828 -1.25591773287329
 1  17.34979754955496  5.84482889298930 -0.92430078217822
 1 -4.84278216281628 -7.72788388778878 -0.06672098809881
 1 -6.52846333763376 -6.89297867926793  0.65304514781478
 1 -4.93317553495350 -6.75308518471847  1.50610347874787
 8 -7.68399129442944  6.91291132253225 -0.35006843524352
 1 -9.04655803960396  6.27055447114711 -1.75417388488849

