%nproc=3
%Mem=2GB
# td=(NStates=1) iop(3/107=0140000000,3/108=0140000000) iop(3/107=0140000000,3/108=0140000000) CAM-B3LYP/6-31G(d,p) 

TD

0 1
12 -5.57202293349335  1.28441846954695  0.17132980178018
 6 -5.04144426622662 -2.05401936663666 -0.38307137223722
 6 -3.45565702560256  1.23850639213921  2.82338377657766
 6 -6.44803122542254  4.47647567066707  0.77350971217122
 6 -8.09685060306031  1.13972265466547 -2.41158525242524
 7 -4.35775285978598 -0.27285320842084  1.06307647464747
 6 -4.29434465486549 -1.55450663206321  0.66603032153215
 6 -3.20851225292529 -2.24371557015702  1.52373796239624
 6 -2.86863101850185 -1.22435310501050  2.59265605220522
 6 -3.62183898389839  0.02303315071507  2.11939259785979
 6 -3.47465957395740 -1.79023571617162  3.97020487988799
 6 -1.95839068236824 -2.71474546774677  0.72899708580858
 6 -0.91870963386339 -3.51370645854586  1.48114199109911
 6  0.26942280968097 -3.83873874597460  0.69986814791479
 8  0.50143399729973 -3.35198488728873 -0.43696371177118
 8  1.20310199239924 -4.57778292309231  1.25653164166417
 7 -5.02142069306931  2.68518875557556  1.47487417401740
 6 -4.04944903210321  2.42372038803880  2.54014924072407
 6 -3.90926146334633  3.66191627412741  3.25320426482648
 6 -4.54283003870387  4.71536000150015  2.54911079527953
 6 -5.38153751615162  3.94243892039204  1.55143029492949
 6 -2.87778640354035  3.91878896259626  4.27020089058906
 6 -4.83063576357636  5.97363739793979  2.90923636043604
 8 -4.16525901320132  6.72107693789379  3.73129710221022
 7 -7.02252390199020  2.53179111161116 -0.69805247294729
 6 -7.03673587138714  3.87122752825283 -0.30045824892489
 6 -8.00448558875888  4.60174123092309 -1.27682049114911
 6 -8.37225025782578  3.65454458455846 -2.16428098049805
 6 -7.88767257875788  2.35041321542154 -1.72686645644564
 6 -8.33662594129413  6.01267263696370 -1.14502563716372
 6 -9.35784226262626  3.77046798509851 -3.22678522712271
 6 -8.74140312101210  4.08239960306031 -4.61746499319932
 7 -6.47177294459446 -0.13845902610261 -1.08290931133113
 6 -7.49720332703270 -0.06366727232723 -1.96372229482948
 6 -7.54913803040304 -1.27595274797480 -2.81185421002100
 6 -6.70405588928893 -2.18042181548155 -2.10936014591459
 6 -5.90664858835884 -1.36089011851185 -1.18653651835184
 6 -8.53899927462746 -1.60771055965597 -3.82068298769877
 6 -6.20891451855186 -3.59550865686569 -1.92149754365437
 8 -6.47759099969997 -4.49138410851085 -2.65997624332433
 6 -5.08083833733373 -3.56778854555456 -0.85512213301330
 6 -5.16537366496650 -4.65036023762376  0.15549270027003
 8 -5.42707689028903 -4.47731366476648  1.29250637093709
 8 -4.90880084328433 -5.82898678277828 -0.36012018341834
 6 -5.28572192139214 -6.97470106120612  0.51566910171017
 6  2.38158484008401 -5.09452571277128  0.62896087738774
 6  3.61790510061006 -4.22716421572157  0.96766805260526
 6  4.13689279297930 -3.27353717461746  0.16331870687069
 6  3.77664256155616 -3.12612580098010 -1.30989865866587
 6  5.35058926492649 -2.46830109830983  0.67211906280628
 6  6.57998360306031 -2.73817877087709 -0.05288496259626
 6  7.78808793549355 -1.89234087988799  0.51881571617162
 6  9.12403101160116 -1.96661264326433 -0.07769448264826
 6  9.64204128422842 -3.38512841534153 -0.14210108510851
 6  10.02866830243024 -1.00244086498650  0.44689265266527
 6  11.39145230253025 -0.90129292439244 -0.30507581818182
 6  12.20440806140614  0.18734792529253  0.30297108530853
 6  13.47668706280628  0.41943163006301 -0.57257701490149
 6  14.40334850785078 -0.82586331633163 -0.53489017421742
 6  14.15148508670867  1.74438921112111 -0.07393503590359
 6  15.42606188708871  2.14063599889989 -0.93815092279228
 6  16.01762138183818  3.52719522952295 -0.49282037503750
 6  17.32465686038604  3.79151806730673 -1.31318236603660
 6  17.00152913501350  3.86729229192919 -2.85492781278128
 6  17.89200261946194  5.13187131313131 -0.78573953095310
 1 -2.81414692059206  1.41671853545355  3.64328193939394
 1 -6.75958684158416  5.63285948814881  0.85340510321032
 1 -9.02746794589459  1.03238750025002 -3.26527190809081
 1 -3.63602066726673 -3.17652076877688  1.91503724582458
 1 -1.79977106310631 -0.98262587078708  2.83362552855286
 1 -2.91321064626463 -2.64302088298830  4.20174011991199
 1 -3.39286588668867 -1.10527264496450  4.84367050295030
 1 -4.60218189398940 -2.10911882988299  3.72788601120112
 1 -2.05767293289329 -3.11049409440944 -0.32105984058406
 1 -1.36073677337734 -1.93642226962696  0.17792863416342
 1 -0.70622501260126 -2.87907788008801  2.53062760386039
 1 -1.32087156575658 -4.34124096039604  2.06776581328133
 1 -1.65684433653365  3.50115480218022  4.11092347344734
 1 -2.96641429542954  4.92239187828783  4.67852351525153
 1 -3.05699563206321  3.26785998009801  5.28862583938394
 1 -5.51777563686369  6.52253023552355  2.30295241104110
 1 -9.91366534903490  2.80294744664466 -3.44841599619962
 1 -10.00930841374137  4.49237677217722 -2.90955394799480
 1 -9.52296805770577  4.53609150915092 -5.42298860946095
 1 -8.10710467646765  4.89878181878188 -4.33606328812881
 1 -8.28841911681168  3.08463277717772 -5.16265037973797
 1 -8.30800738233823 -1.14502776047605 -4.74966493549355
 1 -8.68341796969697 -2.70485754605461 -4.25065440934093
 1 -9.64179742884288 -1.40456709130913 -3.64869915501550
 1 -4.13562533853385 -3.52487831083108 -1.41098602870287
 1  2.30751869566957 -6.12191948504850  1.00505889378938
 1  2.10530385698570 -5.06683520992099 -0.46142157725773
 1  4.13110909330933 -4.45883600590059  2.02211057515752
 1  2.93684113601360 -3.73338489338934 -1.46761941204120
 1  3.60206754475448 -1.98296299689969 -1.56126434393439
 1  4.58107061446145 -3.63635549184918 -1.97256871417142
 1  5.24103797279728 -1.42726827142714  0.38831922302230
 1  5.30312267066707 -2.71573589078908  1.75820970727073
 1  6.67681690169017 -3.99356365586559  0.11460078177818
 1  6.66441528102810 -2.25175739173917 -1.15610529672967
 1  7.36256705830583 -0.87791434573457  0.46844559785979
 1  7.82955186538654 -2.06047429592959  1.60606807920792
 1  9.13424932453245 -1.62716075677568 -1.15522374107411
 1  8.87366953235323 -4.00817967786779 -0.44324679487949
 1  10.55180821022102 -3.53158651335134 -0.92662024392439
 1  10.09707645524552 -3.54389011761176  0.95459642264226
 1  9.80001106200620  0.03516192659266  0.16394556895690
 1  10.19711867046705 -1.06488480778078  1.55239617691769
 1  11.82324425552555 -1.91339866156616 -0.05249455725573
 1  11.14238017821782 -0.92784441994199 -1.33388423212321
 1  11.63170318841884  1.15649872167217  0.44931772137214
 1  12.50071082978298 -0.11254997169717  1.30304948004800
 1  13.27373811611161  0.59348409120912 -1.66492269706971
 1  14.50194042124213 -1.04100711801180  0.52279737723772
 1  13.77096748324833 -1.65916909580958 -0.97111336543654
 1  15.23780363686368 -0.84478780648065 -1.31659406240624
 1  13.51723096869687  2.54520281948195 -0.23714359165917
 1  14.47716532873287  1.62161857635764  1.00013884118412
 1  16.11109983708371  1.13881934343434 -0.85072288728873
 1  15.08842363786379  2.09045729712971 -1.98881241214121
 1  15.31908337043704  4.33727693539354 -0.64164544454445
 1  16.14923455735573  3.53223918331833  0.62528498729873
 1  17.89728954575457  2.91788529702970 -1.24114850275027
 1  16.24556169296930  4.77577485638564 -3.01958623752375
 1  17.85436782668267  4.06105249844985 -3.64027146074607
 1  16.47755244054405  2.91921683288329 -3.21086163936394
 1  18.17102497649765  5.14847550055005  0.28161732743274
 1  18.91769938073807  5.42038826532653 -1.26264840594059
 1  17.20986355615562  6.04340875097510 -1.04692304440444
 1 -4.73114099869987 -7.90441154055406  0.28816450045005
 1 -6.40783127442744 -6.77826720812081  0.58533837713771
 1 -4.69437165456546 -6.77954783098310  1.47372024042404
 8 -7.85337823312331  6.85801583298330 -0.37133056145615
 1 -9.00621400520052  6.35199261496150 -1.97315578307831

