%nproc=3
%Mem=2GB
# td=(NStates=1) iop(3/107=0140000000,3/108=0140000000) iop(3/107=0140000000,3/108=0140000000) CAM-B3LYP/6-31G(d,p) 

TD

0 1
12 -5.67671340254025  1.22190221792179  0.17013968276828
 6 -5.06342646444644 -2.19943390809081 -0.43911697679768
 6 -3.27301876177618  1.19210175167517  2.67660909910991
 6 -6.15996241854185  4.52830085318532  0.67625998719872
 6 -8.04909582758276  1.25738442084208 -2.43630772467247
 7 -4.40604768926893 -0.32580850395040  1.09002916991699
 6 -4.37198241864186 -1.62078325972597  0.65392911141114
 6 -3.19880128182818 -2.31629282788279  1.41689727832783
 6 -3.00040419581958 -1.29192986268627  2.50257704430443
 6 -3.67200400040004 -0.07891704430443  2.02373303190319
 6 -3.49193130113011 -1.72981967456746  3.95318317771777
 6 -2.05223006630663 -2.69372336553655  0.55697988408841
 6 -0.97494525742574 -3.60184527242724  1.30823470037004
 6  0.22410827822782 -3.79432430453045  0.59935809690969
 8  0.57123097699770 -3.27306699549955 -0.43694370977098
 8  0.99967164936494 -4.68864400920092  1.34095008350835
 7 -4.82357090809081  2.64897513421342  1.35174186078608
 6 -3.90625471267127  2.41457947394739  2.35607083288329
 6 -3.61096163336334  3.64267434993499  3.07558650305030
 6 -4.49500525622562  4.57419588508851  2.61914779897990
 6 -5.24733409580958  3.92111678817882  1.50153530543054
 6 -2.56928555345535  3.76329341304130  4.26428029852985
 6 -4.60561326132613  6.02592262646265  2.87103254005401
 8 -3.92033452075208  6.50082491269127  3.79989396189619
 7 -6.84680633023302  2.68885681818182 -0.67443011071107
 6 -6.88053025082508  3.93552395789579 -0.40026822992299
 6 -7.95262040224022  4.59291034783478 -1.20745355445545
 6 -8.46938997179718  3.63596272637264 -2.04773932633263
 6 -7.81339515101510  2.39672784688469 -1.74229799959996
 6 -8.40989326802680  6.01822319201920 -1.12926406100610
 6 -9.48764524292429  3.83667460576058 -3.07271982058206
 6 -8.84940392109211  3.91532289538954 -4.45250849754975
 7 -6.47032279957996 -0.12800798099810 -1.12360338073807
 6 -7.44824843154315 -0.04675558115812 -2.05423134573457
 6 -7.64216733333333 -1.34642979567957 -2.66381940654065
 6 -6.69756524022402 -2.18195196849685 -2.01104031393139
 6 -6.07408533203320 -1.45628965846585 -1.04777264196420
 6 -8.69144451915191 -1.76117590619062 -3.67890881028103
 6 -6.28819244634463 -3.51501060706071 -2.03701909580958
 8 -6.60579381998200 -4.49189415951595 -2.63832407810781
 6 -4.99858011151115 -3.60103186988699 -0.90851747254725
 6 -5.35222234983498 -4.70855605720572  0.04132128312831
 8 -5.87739192179218 -4.56021195459546  1.16419353965397
 8 -4.86598656185619 -5.87236112021202 -0.37303147454745
 6 -5.30136348554855 -6.93771736283628  0.50906844164416
 6  2.33105978757876 -5.01098735893589  0.73464144544454
 6  3.43770708080808 -4.13510500980098  1.07376866266627
 6  4.06176528022802 -3.29519934083408  0.24548692369237
 6  3.78472336963696 -3.06930011841184 -1.23725139393939
 6  5.26759096509651 -2.47809207740774  0.85475732663266
 6  6.52537814251425 -2.59341429442944  0.12338266416642
 6  7.63211233793379 -1.78368001380138  0.70170400500050
 6  9.02783139163916 -1.86849283128313  0.01346463326333
 6  9.55319239933993 -3.27876777927793  0.00418354335434
 6  9.97462289788979 -0.77076769766977  0.42727069046905
 6  11.32659581688169 -0.77844063916392 -0.28044335493549
 6  12.25864348494849  0.30235942644264  0.17885867406741
 6  13.58164755885588  0.42353204010401 -0.58040779797980
 6  14.51003917691769 -0.80619134913491 -0.47016370157016
 6  14.28117805600560  1.69369414161416 -0.26620426282628
 6  15.52860214111411  2.04900683598360 -0.94523163086309
 6  16.05805542524252  3.48004051405141 -0.71639273227323
 6  17.34660905560556  3.90365928142814 -1.26895794359436
 6  17.25390437253726  4.04545010771077 -2.90778309830983
 6  17.88110152935294  5.19424755075508 -0.66185714271427
 1 -2.79158466436644  1.06646350995099  3.58271588278828
 1 -6.15988687158716  5.81531773397340  0.81588135083508
 1 -8.79314451355135  1.29658391989199 -3.25526090699070
 1 -3.83609067426743 -3.06875999269927  1.96254199629963
 1 -1.94233531953195 -0.82970057825783  2.65087725372537
 1 -3.02511183638364 -2.85784236513651  4.25596554245425
 1 -3.07713431353135 -1.13278539623962  4.90595673157316
 1 -4.57937961376138 -1.91128904690469  4.05851907450745
 1 -2.21865903150315 -3.24747779277928 -0.13199093369337
 1 -1.54724542424242 -1.93424205160516  0.16016685798580
 1 -0.58782317241724 -3.00359033133313  2.29778431953195
 1 -1.33515299389939 -4.59698653495350  1.81274031073107
 1 -1.62623127522752  3.57543222992299  4.13783616471647
 1 -2.71531918591859  4.88777841694169  4.59653531643164
 1 -3.03094302680268  3.12922611671167  4.93120009680968
 1 -5.15941980128013  6.67323530603060  2.23001511731173
 1 -10.25201918441844  2.89926707860786 -2.97064821942194
 1 -10.21144862776278  4.65514304880488 -2.83041603420342
 1 -9.51099686058606  4.22618051805181 -5.21276758735874
 1 -7.77723168916892  4.62916485708571 -4.47484716651665
 1 -8.50920119501950  2.86787110101010 -4.90532464716472
 1 -8.30834741634163 -1.11707496519652 -4.52316228522852
 1 -8.87251687958796 -2.76486354665467 -3.87201654555456
 1 -9.78073132223222 -1.18295493009301 -3.27389167426743
 1 -3.97463923992399 -3.68034385738574 -1.54431936203620
 1  2.46582452625263 -5.99487678077808  1.16295468336834
 1  2.16152947954795 -5.01287981438144 -0.34802023712371
 1  3.43223920632063 -4.17721784408441  2.30450881498150
 1  2.93191064296430 -3.42992454735474 -1.57182983308331
 1  4.02631996999700 -2.00305500610061 -1.41527974547455
 1  4.51921442884288 -3.63577543384338 -1.74715617291729
 1  4.91472534153415 -1.52514805940594  0.76647703880388
 1  5.05287764616462 -2.76763108030803  1.90193407970797
 1  6.88898811881188 -3.66794109360936  0.30983030473047
 1  6.50422926242624 -2.52535475147515 -0.95266495269527
 1  7.38404920652065 -0.81467802210221  0.69911866516652
 1  7.87087599779978 -1.88466671517152  1.68103557595760
 1  8.75628152775278 -1.53265130583058 -1.10745896459646
 1  8.84304647004701 -4.07254611451145 -0.17508997919792
 1  10.51721475087509 -3.57907126182618 -0.46436401830183
 1  9.86869361696170 -3.51990771937194  1.04051501450145
 1  9.34232529342934  0.16566497689769  0.18202737713771
 1  10.18728768736874 -0.90041836113611  1.55279621692169
 1  11.60093202430243 -1.72146946864687 -0.01161046884688
 1  11.25598153835383 -0.92022365786579 -1.30906174987499
 1  11.56088610671067  1.21176424822482  0.14387717731773
 1  12.50745150385039  0.16420770407041  1.33691286638664
 1  13.23338408070807  0.61861660446045 -1.64740094489449
 1  14.72327255445545 -0.71514453175318  0.70538563606361
 1  13.89446983348335 -1.85765894479448 -0.83277953205321
 1  15.56206606310631 -0.83773710141014 -0.97918032103210
 1  13.45782502810281  2.48340663986399 -0.52496237353735
 1  14.49545715791579  1.58396481098110  0.85369419671967
 1  16.23059178627863  1.39274473597360 -0.87395521052105
 1  15.40561535703570  2.03106135753575 -2.06803033393339
 1  15.30601206330633  4.19461266896690 -1.08257953795380
 1  16.02406204010401  3.53086904630463  0.29605206400640
 1  18.11816163296330  3.09815332383238 -1.24204859275928
 1  16.37525466226623  4.79019629852985 -3.12375665456546
 1  18.13868625852585  4.42192858605861 -3.28562599619962
 1  16.98526321162116  3.20407531873187 -3.26796734993499
 1  18.03433130713071  4.82762341534153  0.39263842954295
 1  18.78678628942894  5.33953017951795 -0.82335447654766
 1  17.10613318311831  5.90984539463946 -0.81209956205621
 1 -4.95384326892689 -8.02706380578058  0.28604428842884
 1 -6.37959845114511 -7.06868625002500  0.77236708000800
 1 -4.87695991339134 -6.74572444864486  1.52145501390139
 8 -7.77673056835684  6.86842687408741 -0.38480190859086
 1 -9.19372275607561  6.18474589028903 -1.78374684218422

