%nproc=3
%Mem=2GB
# td=(NStates=1) iop(3/107=0140000000,3/108=0140000000) iop(3/107=0140000000,3/108=0140000000) CAM-B3LYP/6-31G(d,p) 

TD

0 1
12 -5.64550028122812  1.18189821752175  0.18548121692169
 6 -5.01258137993799 -2.09410337503750 -0.41668473357336
 6 -3.40692215211521  1.13281582308231  2.75813725192519
 6 -6.15412183448345  4.56022404550455  0.66753911511151
 6 -7.97526844484448  1.16956563896390 -2.40945503940394
 7 -4.36955403990399 -0.27386330943094  0.99226939393939
 6 -4.22683790419042 -1.60335151655166  0.52002572107211
 6 -3.23038444014401 -2.35818701730173  1.32936852545255
 6 -2.92984714011401 -1.40716138583858  2.62057884448445
 6 -3.58917571757176 -0.08690784338434  2.11314197279728
 6 -3.47863997199720 -1.87395408800880  3.99776763616362
 6 -1.97312215551555 -2.69683367656766  0.70851503760376
 6 -0.96914467736774 -3.62186727462746  1.47509138603860
 6  0.21659752715272 -3.98840371247125  0.61221938303830
 8  0.49667352125213 -3.53838352715271 -0.53544355975598
 8  1.05807748994899 -4.77441258605861  1.30516650515051
 7 -4.90251880288029  2.64769500620062  1.49674636123612
 6 -3.93032711991199  2.42336035203520  2.45733095889589
 6 -3.70115065226523  3.60180026252625  3.12535147954795
 6 -4.49939569526953  4.60889935543554  2.53853973817382
 6 -5.22695205760576  3.96154083058306  1.47377252915292
 6 -2.74888351325132  3.77485456915692  4.26418028852885
 6 -4.60699339933993  6.00915094929493  2.99894533133313
 8 -4.04177666496650  6.66068089828983  3.90560453295330
 7 -6.89407105670567  2.67652558505851 -0.70827349504950
 6 -6.89448164596460  4.02616302180218 -0.33268147124712
 6 -7.98932407260726  4.65715677247725 -1.12901571067107
 6 -8.47088012081208  3.61114024412441 -1.99420397279728
 6 -7.77588139963996  2.39705787988799 -1.68259202900290
 6 -8.31787406610661  6.06727809750975 -1.13242437703770
 6 -9.52291877027703  3.76462740104010 -3.14955750435044
 6 -8.77312629332933  3.87836920002000 -4.49249249594959
 7 -6.32690845814581 -0.16251143134313 -1.21603262366237
 6 -7.38085169186919 -0.01448235383538 -2.08522444504450
 6 -7.51969508610861 -1.28235338803880 -2.77846087068707
 6 -6.74448993269327 -2.16382015531553 -2.11652086198620
 6 -5.85260318381838 -1.38093212271227 -1.22651051575158
 6 -8.58173354805481 -1.46384617321732 -3.88103902330233
 6 -6.15577920502050 -3.57962706870687 -2.04011940584058
 8 -6.66667990859086 -4.55612058215822 -2.58346859255926
 6 -5.04756501000100 -3.51247301400140 -0.94657127792779
 6 -5.28043517111711 -4.62191739333933  0.10954810581058
 8 -5.51172535513551 -4.38317425082508  1.30658777907791
 8 -4.87550751395140 -5.86574045814581 -0.36322049344935
 6 -5.24416776597660 -7.05649924102410  0.50049758455846
 6  2.30747742934293 -5.15796205640564  0.64567254855486
 6  3.34626793689369 -4.09083058235823  1.00384166996700
 6  3.99301840554055 -3.19820964186419  0.19576195119512
 6  3.71722661996200 -3.12421560996100 -1.26562423122312
 6  5.16186039203920 -2.26977124532453  0.69533138403840
 6  6.54746035073507 -2.58982393539354  0.04043436933693
 6  7.57892701940194 -1.71614326012601  0.64588842344234
 6  8.94892350085009 -1.89093507550755  0.03792707950795
 6  9.43069014911491 -3.28407831033103  0.12392551755176
 6  9.86019145474548 -0.89470009090909  0.56854481788179
 6  11.22886604390439 -0.88827162226223 -0.15772108270827
 6  12.14033165376538  0.34383357385739  0.16741752995300
 6  13.58188758285829  0.37736742364236 -0.52886264346435
 6  14.51709988298830 -0.71050178017802 -0.13883056825683
 6  14.16826676487649  1.87622239443944 -0.24823246564656
 6  15.44212349324932  2.08578051335134 -1.04956206390639
 6  16.01580119981998  3.53461597159716 -0.80080117311731
 6  17.27520191489149  3.89709862536254 -1.50907195499550
 6  17.17744672677268  3.90421598429843 -2.93891621162116
 6  17.99403282248225  5.18386651265127 -0.87845880288029
 1 -2.89744525042504  0.91547841144114  3.73897150835084
 1 -6.36653753665366  5.66954315651565  0.83396315901590
 1 -8.76066126522652  1.25585984748475 -3.14665004590459
 1 -3.77261432663266 -3.40175329202920  1.57965370747075
 1 -1.72949403540354 -1.23217082528253  2.66385855185519
 1 -3.12802212741274 -2.76760334123412  4.73982392829283
 1 -3.83248984908491 -1.02818493619362  4.61449758565857
 1 -4.80795247104710 -1.83371128912891  3.89560278287829
 1 -2.05581274687469 -3.09826287128713 -0.47296503110311
 1 -1.42153285298530 -1.82144077147715  0.50136097739774
 1 -0.57664205430543 -3.11644161646165  2.32740728182818
 1 -1.32919239783978 -4.43840067636764  1.89380841754175
 1 -1.70251890399040  3.77991267796780  3.90053243434343
 1 -2.91808946294629  4.79361900100010  4.69144480738074
 1 -2.93589352185218  3.07203039713971  5.13439041584158
 1 -5.34051791109111  6.80336831933193  2.33593570937094
 1 -10.07277125962596  2.84641179307931 -3.19163031763176
 1 -10.06738422132213  4.68851638613861 -3.04747774037404
 1 -9.29503526442644  4.27799569956996 -5.38723503410341
 1 -8.11381534753475  4.79266120672067 -4.32025170697070
 1 -8.00018029292929  2.91543585748575 -4.76248036273627
 1 -8.39815639723972 -0.89346260396040 -4.74122409140914
 1 -8.89931955985598 -2.58150521082108 -4.10414975887589
 1 -9.52353560266027 -1.02453908850885 -3.53123740884088
 1 -4.03018479447945 -3.69681550455046 -1.53132806290629
 1  2.66682462626263 -6.04455174827483  1.34442283018302
 1  2.18134146074607 -5.49480800720072 -0.40517595269527
 1  3.69713569596960 -3.92959308160816  2.03996236033603
 1  2.70654810671067 -3.50541209610961 -1.38837148724872
 1  4.05617295529553 -2.24147884848485 -1.56377459495950
 1  4.35318782618262 -3.85315717201720 -1.82759421672167
 1  4.65006887588759 -1.25197074167417  0.51449184028403
 1  5.18182054045405 -2.51449576677668  1.76502038833883
 1  6.65669488948895 -3.61756605610561  0.11075039673967
 1  6.49122796229623 -2.49553176917692 -1.10795048124812
 1  7.15512631423142 -0.71249780408041  0.60441919521952
 1  7.66161507170717 -1.86837508600860  1.60118759115912
 1  8.85315121472147 -1.59598763946395 -1.10337855655566
 1  8.71736390179018 -3.86954581448145 -0.30478294849485
 1  10.50379340874087 -3.52785614031403 -0.05596317821782
 1  9.20316706430643 -3.54195992459246  1.17579854285429
 1  9.31490255115511  0.17490590099010  0.41498067246725
 1  10.25192415101510 -0.88790711001100  1.54060499779978
 1  11.81469340044004 -1.86719404110411 -0.00891019881988
 1  11.11069700990099 -1.01764339983998 -1.23537438113811
 1  11.58095811391139  1.43635670747075 -0.08995620602060
 1  12.24625538423842  0.42154343764376  1.27235641074107
 1  13.36359710201020  0.27674241704170 -1.69217542234223
 1  14.68384861206121 -0.78615163246325  1.07366246374637
 1  14.16801718821882 -1.64200737963796 -0.21616787088709
 1  15.60232008850885 -0.63509683738374 -0.41668407140714
 1  13.45864511011101  2.70011831103110 -0.23904378167817
 1  14.42934054625463  1.90976739123912  0.87822664996500
 1  16.18606733383338  1.43869933143314 -0.57201501650165
 1  15.50117491299130  1.71865011641164 -2.09979351025103
 1  15.21264272637264  4.37679088678868 -1.06572785278528
 1  16.14001363526353  3.48493445284528  0.23086554535453
 1  17.86696651345135  2.92040554905491 -1.29554394229423
 1  16.44738187498750  4.63682096099610 -3.18546282518252
 1  18.03722611251125  4.04724111731173 -3.49187662126213
 1  16.71027571287129  3.16153106430643 -3.32412296549655
 1  18.32449032303230  5.02564321732173  0.07561672737274
 1  18.72637024782478  5.27806403290329 -1.28034017511751
 1  17.22916548634863  5.97048145824583 -0.99645799789979
 1 -4.72212009660966 -7.85091619101910  0.11312699669967
 1 -6.36019651095109 -7.24369375077508  0.58105794909491
 1 -4.95076729412941 -6.81937181338134  1.52882575097510
 8 -7.77524041934193  6.84584461586159 -0.37367079547955
 1 -9.21073445724573  6.31371878757876 -1.90717918541854

