%nproc=3
%Mem=2GB
# td=(NStates=1) iop(3/107=0140000000,3/108=0140000000) iop(3/107=0140000000,3/108=0140000000) CAM-B3LYP/6-31G(d,p) 

TD

0 1
12 -5.62844857605761  1.24620464816482  0.13934660346035
 6 -5.12819294109411 -2.19816378107811 -0.31633469856986
 6 -3.40403186308631  1.08559110061006  2.69731116931693
 6 -6.15001142344234  4.58036605970597  0.71485384658466
 6 -7.99261017901790  1.24817349974998 -2.41313540744074
 7 -4.46849393389339 -0.33713963706371  1.12759292629263
 6 -4.28044326472647 -1.67620880228023  0.67921163966397
 6 -3.30907230893089 -2.34037523612361  1.44237982658266
 6 -3.07848200360036 -1.47072774247425  2.63095988258826
 6 -3.59982678267827 -0.11247039963996  2.14678533713371
 6 -3.83567567556756 -1.87114380698070  3.87608546794679
 6 -2.09164400770077 -2.79715370857086  0.63482766886689
 6 -0.91352911581158 -3.39979506740674  1.54953883078308
 6  0.27208307570757 -3.75062993509351  0.66015417651765
 8  0.39370322422242 -3.32363205200520 -0.43591360676068
 8  1.14743642584258 -4.58793393819382  1.30952694119412
 7 -4.79690824182418  2.57124736143614  1.37931461806181
 6 -3.89874396159616  2.36995501150115  2.43104833063306
 6 -3.64746528372837  3.61568165066507  3.16695563996400
 6 -4.37866362206221  4.51381984748475  2.51786767096710
 6 -5.23086244864486  3.87785246174617  1.46236138803880
 6 -2.76894551945195  3.62825990969097  4.41248511901190
 6 -4.54535723572357  5.96731676587659  2.93224866166617
 8 -3.89660214751475  6.51881671187119  3.89158313081308
 7 -6.80759240884088  2.60156808930893 -0.70325299299930
 6 -6.89050124792479  3.87725813131313 -0.33203140624062
 6 -7.78421356155616  4.59945100190019 -1.24273708280828
 6 -8.25892892569257  3.66371550165017 -2.17743229562956
 6 -7.64780859235924  2.42416059015902 -1.81288505830583
 6 -8.09965224392439  6.07718908860886 -1.20550168476848
 6 -9.28233471187119  3.81919285758576 -3.14395694429443
 6 -8.69268824952495  3.95589695279528 -4.58180142684268
 7 -6.48976474377438 -0.15724090429043 -1.21177219761976
 6 -7.37798140484048  0.00454954935494 -2.09698562116212
 6 -7.76468958555856 -1.40660581328133 -2.63221624622462
 6 -6.80053553725373 -2.15625939923992 -2.03793300320032
 6 -6.06262418591859 -1.46034006350635 -1.10785865056506
 6 -8.54813018771877 -1.62092188078808 -3.75637655705571
 6 -6.44471809890989 -3.54496360236024 -1.96646204010401
 8 -6.78950219081908 -4.47153212331233 -2.61225147084708
 6 -5.20530078357836 -3.63977574427443 -0.91807842864286
 6 -5.40580770837084 -4.72600780238024  0.11020817181718
 8 -5.72555673827383 -4.59495542894289  1.26063318361836
 8 -5.10298026122612 -5.89213309740974 -0.38756292769277
 6 -5.48013136233623 -7.01752534363436  0.54478201300130
 6  2.32230891249125 -4.88483474367437  0.59509749104910
 6  3.45394870497050 -4.09749124842484  1.01637292309231
 6  4.11799090279028 -3.19957977887789  0.17973034803480
 6  3.72751764906491 -3.07506069446945 -1.28670633943394
 6  5.24399860586059 -2.30260452865287  0.70496234713471
 6  6.69099470417042 -2.57819277227723  0.10451077697770
 6  7.71023014971497 -1.72343398919892  0.71242507710771
 6  9.03461206970697 -1.86840282228223  0.07868115491549
 6  9.57550463056306 -3.33255315781578  0.34215734073407
 6  10.04554999059906 -0.82174279517952  0.46274423782378
 6  11.31952510981098 -0.93458625372537 -0.23591890249025
 6  12.31154877547755  0.22246143664366  0.23255404360436
 6  13.53813320742074  0.45393508040804 -0.64863462066207
 6  14.51321949494950 -0.80051078107811 -0.59267595279528
 6  14.38343828202820  1.66661143334333 -0.10574821722172
 6  15.55064434533453  2.09203113841384 -1.06336344404440
 6  15.99716933663366  3.52460497049705 -0.63418451145115
 6  17.29421381608161  4.01556047154715 -1.39886093389339
 6  16.94155313741374  4.15734129682968 -2.94619693969397
 6  17.87544096329633  5.35798392439244 -0.88281923892389
 1 -2.64603010891089  0.98790565416542  3.54584219541954
 1 -6.31293217611761  5.68479468166817  0.83053281598160
 1 -8.62653785288529  1.34253851535153 -3.27632301320132
 1 -3.85758282348235 -3.33816693339334  1.76188193029303
 1 -2.00609169516952 -1.24752236043604  3.07285945194520
 1 -3.58183750895089 -2.98040462136214  4.13218316421642
 1 -3.55126172627263 -1.51965408310831  4.85433156905691
 1 -4.71958363416342 -2.04537245524552  3.91110433303330
 1 -2.33466063166317 -3.59472251725172 -0.11735947054706
 1 -1.56359705940594 -1.88282691009101 -0.04574373307331
 1 -0.35077946804680 -2.57608758105811  2.24823936503650
 1 -1.24924440304030 -4.32882971927193  2.20649968666867
 1 -1.77243589568957  3.46222090879088  4.26346872797280
 1 -2.77927558155816  4.63574321342134  4.56260192309231
 1 -3.25801573407341  2.84221741584158  5.12661963876388
 1 -4.86532039133913  6.73004098659866  2.26933904970497
 1 -9.77661164366437  2.85905305720572 -3.06078723332333
 1 -10.08891637453745  4.61691922642264 -2.98914190679068
 1 -9.57723348424842  3.93629152915292 -5.29123543414341
 1 -8.23988795479548  4.88776071667167 -4.79725940774077
 1 -7.86473674857486  3.37121143504350 -4.73738785348535
 1 -8.36850343194319 -1.08403166086609 -4.73930389938994
 1 -8.77937756565657 -2.57638469876988 -4.08658800270027
 1 -9.65743899299930 -1.33385001960196 -3.74725901100110
 1 -4.31109288528853 -4.07786360936094 -1.48316324642464
 1  2.46063400720072 -6.03992128522852  0.94882327022702
 1  2.05445877247725 -4.82660118651865 -0.34487992309231
 1  3.96927290969097 -4.32183230553055  1.93901226532653
 1  2.83392084398440 -3.49753130803080 -1.76354900500050
 1  3.66965430343034 -1.87027172777278 -1.46011422892289
 1  4.53210571797180 -3.54137599389939 -2.04059551685169
 1  5.01167503650365 -1.27460300490049  0.71231162226223
 1  5.55512787118712 -2.62529684688469  1.69705359165917
 1  6.79466868686869 -3.59302360186019  0.44180350205020
 1  6.47608644814481 -2.38534075007501 -1.00025971217122
 1  7.64374517611761 -0.64658121242124  0.60987974127413
 1  7.94614352455245 -2.05560380888089  1.78366583898390
 1  8.94621052065207 -1.97129517021702 -1.11645986468647
 1  8.89235140054005 -3.98873773367337  0.01515904570457
 1  10.70277330673067 -3.87160051475147 -0.10300788268827
 1  9.46420316791679 -3.43255898449845  1.54915587858786
 1  9.88227928882888  0.30873928432843  0.24762393679368
 1  10.14168312691269 -1.04417273657366  1.55645658295830
 1  11.89517144824483 -1.81820914261426 -0.19025833363336
 1  11.21844778497850 -0.82715435093509 -1.31067191089109
 1  11.74152417051705  1.34701777357736  0.15376816641664
 1  12.63916467516752  0.05702698599860  1.29549872497250
 1  13.36636737903790  0.62664740754075 -1.57626383118312
 1  14.83763399059906 -0.78076109340934  0.57514261176118
 1  14.09548993549355 -1.81084426332633 -0.92545879998000
 1  15.45687554405441 -0.75321864956496 -1.12577498049805
 1  13.61953119871987  2.46026432563256  0.23900402310231
 1  14.90133774597460  1.42308872337234  0.88943777107711
 1  16.41203993109311  1.42796825832583 -1.19301711671167
 1  15.21893668916892  2.16185443684368 -2.12064559545955
 1  14.99964142624262  4.22704591229123 -0.74626590659066
 1  16.35373500740074  3.37239319871987  0.54275673447345
 1  17.95625544234423  3.36418992749275 -1.23019740764076
 1  16.14458159495949  4.80736801570157 -3.14788906780678
 1  17.73596598649865  4.61315770897090 -3.50709814341434
 1  16.81770645594559  3.12015692689269 -3.48328888208821
 1  17.96192406640664  5.24915556855685  0.30556972267227
 1  18.68050566136614  5.63630985748575 -1.39222136323632
 1  17.19192176197620  6.11044545464546 -1.08383673577358
 1 -5.35837372197220 -7.87505860526053 -0.29817413341334
 1 -6.47243773507351 -6.94306368776878  1.01536137943794
 1 -4.69471168856886 -7.22718259445945  1.44171704010401
 8 -7.75119801510151  6.96193622502250 -0.41616504490449
 1 -8.91635501930193  6.20160757645765 -1.73316178367837

