%nproc=3
%Mem=2GB
# td=(NStates=1) iop(3/107=0140000000,3/108=0140000000) iop(3/107=0140000000,3/108=0140000000) CAM-B3LYP/6-31G(d,p) 

TD

0 1
12 -5.65452118331833  1.18467849554955  0.32887555635564
 6 -4.95307542934293 -2.22096606130613 -0.39656272137214
 6 -3.26524798469847  1.19543208470847  2.70526196439644
 6 -6.23276969926993  4.56367439053905  0.69600196139614
 6 -7.98227914591459  1.20326900930093 -2.34005809970997
 7 -4.40804788928893 -0.34749067216722  1.01960212721272
 6 -4.18382360276028 -1.59906108750875  0.64278799729973
 6 -3.20355175687569 -2.34703590219022  1.40857644624462
 6 -2.89487364276428 -1.37465813551355  2.59968675527553
 6 -3.39653645364536 -0.04519367196720  2.09878053665367
 6 -3.46837894589459 -1.79464615721572  3.92025988538854
 6 -1.89609445274527 -2.56167016021602  0.55443963006301
 6 -0.91811957485749 -3.54112920082008  1.30097397429743
 6  0.37403327072707 -3.96758163026303  0.57750591169117
 8  0.50155400930093 -3.53672336113611 -0.58795881128113
 8  1.07178886108611 -4.77994313911391  1.20140612911291
 7 -4.85128367936794  2.61769200590059  1.42904959155916
 6 -3.87369145634563  2.44514253025303  2.40813603940394
 6 -3.64258479567957  3.68905898839884  3.11314025842584
 6 -4.47861361706171  4.60338880438044  2.53664954915492
 6 -5.25593495589559  3.94391906840684  1.50122527442744
 6 -2.62595122002200  3.85714279797980  4.18308217871787
 6 -4.69966266626663  5.91418145234524  3.00582601940194
 8 -4.16368885618562  6.47239206940694  4.01952592509251
 7 -6.92412406200620  2.62840077257726 -0.68676134383438
 6 -7.02934513231323  3.95567597309731 -0.29505770887089
 6 -7.91484662486249  4.66598765556556 -1.27933074217422
 6 -8.41111414421442  3.63963309340934 -2.09720427282728
 6 -7.75958977047705  2.37738591269127 -1.69638340814081
 6 -8.27534981368137  6.04941631133113 -1.32373350795080
 6 -9.36012249064906  3.77663860216022 -3.25033758235824
 6 -8.67063604430443  4.00787215031503 -4.59403264996500
 7 -6.40057582488249 -0.10279545974597 -1.09727074747475
 6 -7.37870147684768  0.01352044644464 -2.07383330593059
 6 -7.61441455805581 -1.32497765046505 -2.65659868446845
 6 -6.66444192789279 -2.17459123242324 -2.08773798369837
 6 -5.96460438393839 -1.49200322982298 -1.05718358305831
 6 -8.65771114581458 -1.64395418401840 -3.63283420282028
 6 -6.19583321042104 -3.60225933193319 -1.98746414031403
 8 -6.58370161076108 -4.61413638373837 -2.57203744944494
 6 -5.03718397189719 -3.58296006270627 -0.89281590239024
 6 -5.31941906950695 -4.58876407800780  0.18691584258426
 8 -5.76556073867387 -4.30943687708771  1.25786290659066
 8 -5.12582254545455 -5.81907579167917 -0.28352252365237
 6 -5.45277862706271 -6.89688327942794  0.54698223302330
 6  2.30851753335334 -4.97141340154015  0.57539552085209
 6  3.37582089218922 -4.12295379467947  0.95862714851485
 6  3.99745884958496 -3.19279910081008  0.17350972597260
 6  3.70398529582958 -3.09156234463446 -1.17211488028803
 6  5.16727093309331 -2.40083435163516  0.74930678157816
 6  6.49930553525352 -2.67509246224623  0.04457478337834
 6  7.57525665236524 -1.81190283608361  0.54420825542554
 6  8.93099170767077 -1.97950393239324 -0.15621233443344
 6  9.56150323042304 -3.35776567906791  0.17773089808981
 6  10.01574701030103 -0.91728234913491  0.41816978037804
 6  11.51093425072507 -1.03006580168017 -0.12963827442744
 6  12.28989661026103  0.32822201270127  0.20290107830783
 6  13.55402479657966  0.54301398829883 -0.58106786398640
 6  14.46372454545455 -0.71930266026603 -0.40439712491249
 6  14.22772271047105  1.85496026822682 -0.05069271167117
 6  15.39182846374637  2.14733666896690 -0.91932904060406
 6  15.99331895159516  3.44157666766677 -0.63849494249425
 6  17.23291768646865  3.83902281778178 -1.38129917771777
 6  16.96650563266327  4.12329789248925 -2.90904322432243
 6  17.80501392059206  5.17870599659966 -0.78415937293729
 1 -2.39021452735273  1.17124398799880  3.61223883508351
 1 -6.46992787568757  5.41066726892689  1.24524428712871
 1 -8.81043624272427  1.31458572007201 -3.00375575647565
 1 -3.68097516271627 -3.37809092579258  1.85308105020502
 1 -1.91984307030703 -1.11051866006601  2.80268243424343
 1 -2.85562488768877 -2.48376495739574  4.30424036993699
 1 -3.26217281738174 -0.97139925762576  4.54719085498550
 1 -4.54930660646065 -2.07270518851885  3.84141736433643
 1 -2.08996616221622 -3.02305535053505 -0.42792052665266
 1 -1.44393509320932 -1.56906553395340  0.49465030633063
 1 -0.75235962606261 -3.25188516081608  2.37465200630063
 1 -1.46274575317532 -4.58783561986198  1.59993903060306
 1 -1.70400905300530  3.40407509420942  3.71425380648065
 1 -2.75734338833883  4.99294893399340  4.47583324622462
 1 -2.74178411091109  3.25640883498350  5.00812778957896
 1 -5.37802166146615  6.49285726822682  2.31778389418942
 1 -9.88490247274727  2.83266041794179 -3.34197535213521
 1 -10.00160764366437  4.68041557605761 -3.06171916451645
 1 -9.43151891279128  4.39194709470947 -5.38768507910791
 1 -7.98880284628463  4.81633357395739 -4.52182186398640
 1 -8.17068734363436  3.17121143504350 -4.97710182488249
 1 -8.48919550115012 -1.25850910861086 -4.65442541154115
 1 -8.76977660556056 -2.70733779407941 -3.91981132503250
 1 -9.60952420152015 -1.14502113671367 -3.26990127522752
 1 -4.24259603560356 -3.98292411541154 -1.50878580868087
 1  2.39539748354835 -5.81604889798980  1.10662905080508
 1  2.24740806740674 -5.08953748014802 -0.50589602470247
 1  3.65745172757276 -4.13057317961796  2.02102046614661
 1  2.70727817971797 -3.46342789768977 -1.49275192529253
 1  3.68046538453845 -1.83878857945795 -1.39012723022302
 1  4.66201870927093 -3.57835969226923 -1.79436089338934
 1  4.62268613761376 -1.32637818241824  0.65450584168417
 1  5.14938729712971 -2.67355167236724  1.79274316061606
 1  6.60935015501550 -3.58022232173217  0.19821914361436
 1  6.25833467296730 -2.40796301230123 -1.00025971217122
 1  7.36837763936394 -0.81945850015001  0.40703945724572
 1  7.85247415761576 -1.93264151265126  1.77056452885288
 1  8.72789868946895 -1.76950499119912 -1.18582680138014
 1  9.07117928332833 -4.32860172007201  0.07897542734273
 1  10.59964299369937 -3.58978233293329 -0.28762634453445
 1  9.92217896549655 -3.54523025162516  1.10124108710871
 1  9.63168422932293  0.10482889328933  0.25744491889189
 1  10.04461341994199 -0.99667798709871  1.59973091039104
 1  12.06471840294030 -1.97852517421742  0.28147884008401
 1  11.44054999519952 -1.12799443494349 -1.29108995269527
 1  11.67590760886089  1.25750882268227  0.05118790839084
 1  12.43573433213321  0.19689097239724  1.36023519861986
 1  13.18968971127113  0.56456119891989 -1.60796700150015
 1  14.70312053925393 -0.68958197549755  0.67653275077508
 1  14.04113449995000 -1.56323950285029 -0.90386664076408
 1  15.39317917441744 -0.75222855055505 -0.84530693369337
 1  13.31513075867587  2.47613591279128  0.05319544224423
 1  14.69038665086509  1.77708412291229  0.87419624692469
 1  16.23109183628363  1.50338580008001 -0.66917473247325
 1  15.11659645514551  1.96817506890689 -1.95427895879588
 1  15.29388085018502  4.34461766946695 -0.75710699069907
 1  16.43637327122712  3.38843480288029  0.41499395819582
 1  17.88569838663867  3.05216872537254 -1.51763615151515
 1  16.27499463626362  4.99134641354135 -3.06307058595860
 1  17.83305569546955  4.45014140734073 -3.49181661526153
 1  16.45733041834183  3.18115302650265 -3.36180673387339
 1  18.18141601560156  5.05571622462246  0.29852901860186
 1  18.66115372617262  5.75182140864086 -1.35892803390339
 1  17.02412498229823  6.13086749684969 -0.62767111921192
 1 -5.29795768036804 -7.84872597199720  0.02279796379638
 1 -6.49252974427443 -6.96639602100210  0.90909075237524
 1 -4.80908312571257 -6.96039591579158  1.56046891529153
 8 -7.82831572687269  6.90315034643464 -0.54173760216022
 1 -8.93167655145515  6.58011542724273 -2.12023049054905

