%nproc=3
%Mem=2GB
# td=(NStates=1) iop(3/107=0140000000,3/108=0140000000) iop(3/107=0140000000,3/108=0140000000) CAM-B3LYP/6-31G(d,p) 

TD

0 1
12 -5.65560129132913  1.24047407510751  0.23994666346635
 6 -5.03176329812981 -2.08027199189919 -0.32418548364836
 6 -3.29576103600360  1.23161570307031  2.68916035423542
 6 -6.13295971827183  4.51859988308831  0.58780114131413
 6 -8.03958487648765  1.16521520392039 -2.34453854775478
 7 -4.28405549004901 -0.24632055515552  1.04750491749175
 6 -4.19364458485849 -1.58541972337234  0.64568828732873
 6 -3.20023142484248 -2.32484368296830  1.49717530613061
 6 -2.82404656005601 -1.35481615131513  2.63714050065007
 6 -3.47681448144814 -0.08867802040204  2.07349800840084
 6 -3.45463757175718 -1.78009470207021  3.98678653805381
 6 -2.01456629992999 -2.76544053725373  0.61599578567857
 6 -1.03091085398540 -3.62405749364937  1.33326720362036
 6  0.22576844424442 -3.93591846394639  0.66558471957196
 8  0.49035288918892 -3.51717140594059 -0.50378039343934
 8  1.05967764996500 -4.75268041284128  1.28981496999700
 7 -4.88577712871287  2.56099633633363  1.40284697129713
 6 -3.99631371857186  2.40786880288029  2.48227345314531
 6 -3.76628716591659  3.56130621312131  3.18443738813881
 6 -4.57113286898690  4.51865033053305  2.62507839203920
 6 -5.13997335973597  3.83172784928493  1.44442959485949
 6 -2.90787941284128  3.71033811751175  4.42789666016602
 6 -4.52192489248925  5.90384041824182  2.95053048984899
 8 -3.96229871717172  6.54617944814482  3.81749572207221
 7 -6.79180082968297  2.59571750425043 -0.68406107380738
 6 -7.00056225402540  3.92854325982598 -0.40637884098410
 6 -7.97839297949795  4.61228228502850 -1.20031284038404
 6 -8.40913394619462  3.65721485158516 -2.00775532793279
 6 -7.74548836033603  2.36198437253725 -1.66438020782078
 6 -8.25415769446945  6.07615898559856 -1.18758989358936
 6 -9.43261974037404  3.85519645794579 -3.16717926652665
 6 -8.96474545524553  4.01474283738374 -4.53238648534853
 7 -6.34021978927893 -0.15475065526553 -1.16431745214521
 6 -7.27843144984498  0.00857995239524 -2.13849977257726
 6 -7.54755787238724 -1.35829098179818 -2.74488751335134
 6 -6.63820930463046 -2.19421319461946 -2.07123633353335
 6 -5.94530245374537 -1.36703073257326 -1.14237210191019
 6 -8.45119049374938 -1.68630841944194 -3.95987690709071
 6 -6.20105373247325 -3.57860696669667 -2.12477787168717
 8 -6.61828506910691 -4.46345131523152 -2.71537178287829
 6 -5.05035528902890 -3.51875364206421 -0.87740436123612
 6 -5.52261938953895 -4.60571577317732  0.10786793779378
 8 -5.98623280588059 -4.39895582898290  1.25945306560656
 8 -5.18530849404940 -5.84103798789879 -0.31118528992899
 6 -5.59186253545355 -6.93180677177718  0.40556809160916
 6  2.37874455605561 -5.12131839203920  0.71866984828483
 6  3.37545085518552 -4.10602210151015  1.09988127392739
 6  4.06293539723972 -3.24006382728273  0.32821519651965
 6  3.62383728102810 -3.01246443484348 -1.15979364816482
 6  5.20713491949195 -2.44885915411541  0.96987883878388
 6  6.51069667436744 -2.64855980898090  0.11046137203720
 6  7.68244737143714 -1.81220286608661  0.65375921052105
 6  9.02890149864987 -1.98580456245625 -0.12335904910491
 6  9.51892897299730 -3.39712961546155  0.03806693169317
 6  10.01367680328033 -0.88131875277528  0.57774573797380
 6  11.29478263556356 -0.80439323442344 -0.15875118571857
 6  12.24550217081708  0.36233542404240  0.28180896909691
 6  13.53780317441744  0.55304499139914 -0.55905566276628
 6  14.47964613761376 -0.69845057505751 -0.27373405860586
 6  14.25890582878288  1.86033080528053 -0.16194383678368
 6  15.44954423532353  2.11765370067007 -1.18407551525152
 6  16.13516313601360  3.48256076607661 -0.75347644064406
 6  17.42153654835484  3.89335825132513 -1.49652069986999
 6  17.16591557365737  4.19688525122512 -2.96109842984298
 6  17.86555997519752  5.26597472347235 -0.97492844984498
 1 -2.72984849074907  1.19724658825883  3.52919053025303
 1 -6.28918980188019  5.58532473467347  0.71748151085108
 1 -8.68998419751975  1.13894815631563 -3.13216859775978
 1 -3.71763882908291 -3.13311642834283  1.97620336243624
 1 -1.95175626162616 -1.38883649184918  2.80885305130513
 1 -3.19792911811181 -2.92476905780578  4.23360330623062
 1 -2.99135573567357 -1.07459957765777  4.95988212411241
 1 -4.66309798559856 -1.80421833983398  3.91933515611561
 1 -2.34217138273827 -3.26240928592859 -0.24346208080808
 1 -1.50280097979798 -1.81891051845184  0.20771161246125
 1 -0.70075446554655 -3.13714368666867  2.34233877497750
 1 -1.62076155475548 -4.53004984128413  1.40917995469547
 1 -1.95449410151015  3.14160884758476  4.47121950305031
 1 -2.95198285228523  4.75039467856786  4.85849151205120
 1 -3.62848278077808  3.11383457755776  5.31015799259926
 1 -5.12244610391039  6.74726270877088  2.12294441024103
 1 -10.00747472997300  2.96587373927393 -3.07752890749075
 1 -10.03952143504350  4.68769630413041 -2.77864085668567
 1 -9.69098485938594  4.03590149014901 -5.35792210281028
 1 -8.39290325632563  4.99893183378338 -4.78630831263126
 1 -8.20309058395840  3.21073538743874 -4.83400751545154
 1 -8.01882846444644 -1.16075933363336 -4.78564853385338
 1 -8.67595722362236 -2.77243430373037 -3.95454479837984
 1 -9.51534478357836 -1.30414704930493 -3.86422070717072
 1 -4.16175795179518 -3.85382120512051 -1.48565349544955
 1  2.54342228602860 -6.01255854895490  1.15901428932893
 1  2.29718304490449 -5.17543607000700 -0.47142257735774
 1  3.80438642104210 -4.12073219551955  2.10951931603160
 1  2.58890634253425 -3.27907946284628 -1.35228787888789
 1  3.89351668966897 -1.81302600320032 -1.14836305380538
 1  4.46385889328933 -3.51969382568257 -1.76500795809581
 1  5.11572544154415 -1.28891443604360  0.99029942104210
 1  5.34333669206921 -2.80736505370537  1.99355324162416
 1  6.76506572657266 -3.81471577107711  0.29848917061706
 1  6.35355419491949 -2.53125534153415 -0.95309499569957
 1  7.30706150775078 -0.59248580288029  0.61396014931493
 1  7.56722563276328 -1.99229747824783  1.76132360476048
 1  8.90997689728973 -1.80500854155416 -1.11222944164416
 1  9.01681384678468 -4.04045290519052 -0.62295476567657
 1  10.59265229462946 -3.49002235693569 -0.32278986088609
 1  9.67613436103610 -3.47353308190819  1.03595455845585
 1  9.49574063496349  0.16048445884588  0.57042621702170
 1  10.27837679627963 -1.20966928622862  1.64750568786879
 1  11.88878080918092 -1.61458878057806  0.18385907810781
 1  11.08729466966697 -0.85940757625763 -1.11869271297130
 1  11.70630064816481  1.37591066286629  0.31314410401040
 1  12.45659641834183  0.21123240654065  1.28556773187319
 1  13.19782052435244  0.49647439023902 -1.55595179998000
 1  14.78006823402340 -0.80632364966497  0.73078817631763
 1  14.12006239273927 -1.62912609150915 -0.46205245934594
 1  15.36332618911891 -0.47877120482048 -0.94789719271927
 1  13.39147839343934  2.67067536673667 -0.38587846514651
 1  14.43405101730173  1.82883929842984  0.90954978227823
 1  16.21539026612661  1.16829229072907 -1.19708752375238
 1  15.19435423092309  2.33590184158416 -2.29767329822982
 1  15.37907937003700  4.27116032373237 -0.66796807680768
 1  16.30840047394739  3.59193515291529  0.25762822162216
 1  18.10180999779978  3.08346185468547 -1.47991237913791
 1  16.50141727852785  5.08148542744274 -3.11546582548255
 1  18.12009439933993  4.44189058225823 -3.40235766936694
 1  16.75794047934793  3.49519443064306 -3.61630218341834
 1  18.42014988898890  5.03479413241324  0.09789895559556
 1  18.72049966076608  5.62716894339434 -1.63619576067607
 1  16.87976054585459  5.62268667876788 -0.92932128422842
 1 -5.65048293289329 -7.78974007340734 -0.27436175217522
 1 -6.65604609590959 -6.82684206560656  0.87851769506951
 1 -4.96660887828783 -7.19137901410141  1.44097696609661
 8 -7.57522041734173  6.85310534193419 -0.45868929732973
 1 -9.05618900270027  6.36977439313931 -1.98291675917592

