%nproc=3
%Mem=2GB
# td=(NStates=1) iop(3/107=0140000000,3/108=0140000000) iop(3/107=0140000000,3/108=0140000000) CAM-B3LYP/6-31G(d,p) 

TD

0 1
12 -5.60640637183718  1.27092712041204  0.17211988078808
 6 -5.03696381818182 -2.16127009170917 -0.36321938703870
 6 -3.50274173407341  1.18288082958296  2.88448988718872
 6 -6.21636805910591  4.51758978207821  0.73779614081408
 6 -8.04542546054605  1.15065374777478 -2.36263035693569
 7 -4.43856094059406 -0.31809773287329  1.13356352335234
 6 -4.33422864326433 -1.64055523692369  0.75000871937194
 6 -3.30491189288929 -2.28946014461446  1.50389597819782
 6 -2.92709686508651 -1.25300597029703  2.60029681628163
 6 -3.60108690869087 -0.04080323292329  2.13011366996700
 6 -3.34264637263726 -1.77380407300730  3.96186404580458
 6 -2.05683052635264 -2.64549854305431  0.60513469956996
 6 -0.92355011791179 -3.51949703760376  1.38665254215422
 6  0.18946481388139 -3.81207607970797  0.52974113521352
 8  0.39888374227423 -3.32295198399840 -0.56482649804981
 8  1.10343202540254 -4.54050919571957  1.22012800130013
 7 -4.89604815581558  2.69636987368737  1.37914460106011
 6 -4.03852793999400  2.40182819881988  2.39568479427943
 6 -3.76655719291929  3.70453053555356  3.18253719811981
 6 -4.65744149984998  4.58189665516552  2.55792167636764
 6 -5.29033839623962  3.90318499499950  1.46340149204921
 6 -2.74745337023702  3.82976005970597  4.19472334283428
 6 -4.77078977897790  6.02634266846685  2.94289972677268
 8 -4.08203069036904  6.60152498269827  3.82233620612061
 7 -6.91273292289229  2.61023895639564 -0.69074174187419
 6 -6.98557075487549  3.94657506300630 -0.28886708980898
 6 -7.98542368256826  4.57471852865287 -1.18440124922492
 6 -8.48321135393539  3.62176130623062 -2.04961951435144
 6 -7.79007281878188  2.38185635973597 -1.75554932473247
 6 -8.35326760546055  5.93693506320632 -1.13282441704170
 6 -9.51700817921792  3.88660959925993 -3.20322287088709
 6 -8.88432741344134  4.01198256135614 -4.60627387408741
 7 -6.32200796809681 -0.15373055325533 -1.13834485488549
 6 -7.34731833853385 -0.04662556815682 -2.09687561016102
 6 -7.64180729732973 -1.28809396209621 -2.57479050365037
 6 -6.66735221892189 -2.17174094739474 -2.03204241414141
 6 -5.92089001250125 -1.39160318981898 -1.13185104980498
 6 -8.50994636933693 -1.62987277587759 -3.74242516191619
 6 -6.17754138123812 -3.53313241924192 -2.09469486338634
 8 -6.59059229982998 -4.47802277237724 -2.68101834753475
 6 -5.07847810131013 -3.51381314801480 -0.91227784858486
 6 -5.23832095969597 -4.69062426402640  0.17477462846285
 8 -5.70117430003000 -4.54179011241124  1.30812793309331
 8 -4.98652861606161 -5.98444232833283 -0.41874604600460
 6 -5.22797614681468 -7.08092168326833  0.52673020782078
 6  2.30355703730373 -4.99665592579258  0.58197617891789
 6  3.43095640574057 -4.11066256555655  0.91528281408141
 6  4.07156626032603 -3.27490731163116  0.14625700070007
 6  3.84328922622262 -3.06817000540054 -1.31339900870087
 6  5.23468767476748 -2.45667993619362  0.71430328122812
 6  6.52109771447145 -2.68047300030003  0.08162848874887
 6  7.59737886458646 -1.68324997079708  0.45895973057306
 6  8.98563717221722 -2.03226920892089  0.05624891169117
 6  9.57370445054505 -3.34625452795280  0.29857298229823
 6  10.06237167276728 -0.89364998589859  0.46485444884488
 6  11.45426858415841 -0.90106290139014 -0.22726803740374
 6  12.26980460106011  0.24407359785979  0.19546033423342
 6  13.61472086618662  0.42426211311131 -0.53469322652265
 6  14.68213638663866 -0.74976570657066 -0.20015670087009
 6  14.35064500270027  1.80973574577458 -0.17796543894389
 6  15.42626190709071  2.11579351465147 -0.99712682038204
 6  16.04824444414441  3.39422193219322 -0.65752684568457
 6  17.34411880658066  3.79435835133513 -1.44310535833583
 6  17.25704468656866  3.94354991769177 -2.91718403840384
 6  17.98273169236924  5.15692381838184 -0.89980093709371
 1 -2.88005351125113  1.27459432303230  3.78011562276228
 1 -6.71426230913091  5.50374657685769  1.01389115181518
 1 -8.94471967106711  1.31643590509051 -3.02925830673067
 1 -3.56981404660466 -3.28439155585559  1.74211995409541
 1 -1.76545763176318 -1.05660326852685  2.55695786178618
 1 -2.90365969116912 -2.65689227012701  4.26531647754775
 1 -3.21201780188019 -1.13313543124312  4.88376451235124
 1 -4.37587926372637 -1.97390530853085  3.89065228782878
 1 -2.50940810641064 -3.20845389038904 -0.19772750735074
 1 -1.64773547324732 -1.89484811221122  0.12788362966297
 1 -0.55633002310231 -2.84778475077508  2.31252579367937
 1 -1.42413189178918 -4.46931376767677  1.75220425712571
 1 -1.90292894499450  3.69876456315632  3.64157653875387
 1 -2.69729738373837  4.87972761186119  4.70720638353835
 1 -2.76852678517852  3.05397859195920  5.07965494229423
 1 -5.32447630693069  6.65122310481048  2.37240935673567
 1 -10.15193917641764  3.01388854075408 -3.37532868746875
 1 -10.16239372227223  4.84127166166617 -2.87502049464946
 1 -9.68538429932993  3.92975087508751 -5.42444875547555
 1 -8.40623458945895  5.05881782238224 -4.73582326412641
 1 -8.16671694659466  3.27413172707271 -4.68706282098210
 1 -8.35496207780778 -1.01295455315532 -4.73048301730173
 1 -8.54167379527953 -2.58666572687269 -3.95306465036504
 1 -9.55831908100810 -1.39832646724672 -3.44744903000300
 1 -4.09107088308831 -3.74999082208221 -1.26908183828383
 1  2.50179812361236 -6.20484777787779  0.76327471537154
 1  2.19291261786179 -5.09879840624062 -0.59927536263626
 1  3.73739972237224 -4.07477760006001  1.86080444454445
 1  2.76321377327733 -3.01501305620562 -1.34109675977598
 1  4.03745108310831 -1.90106480708071 -1.69914813231323
 1  4.35756826422642 -3.66686854315432 -1.99532098939894
 1  4.98369223822382 -1.41986753135314  0.67048743984398
 1  5.21997435583558 -2.63347766496650  1.85658954525453
 1  6.83880310031003 -3.84903920342034  0.07372669436944
 1  6.24041288078808 -2.61886410241024 -1.04204389058906
 1  7.32949375097510 -0.66504305860586  0.21893064636464
 1  7.56342525272527 -1.73407165566557  1.54696216861686
 1  8.77187308690869 -2.12904094479448 -1.06405462416242
 1  8.94039620502050 -4.14074293419342 -0.05583805400540
 1  10.65394842424242 -3.54481783648365  0.17458987708771
 1  9.42947969556956 -3.45765149374937  1.27790875387539
 1  9.51868292919292  0.04482289268927  0.24272344674467
 1  10.24389334793479 -0.98845716501650  1.44343528082808
 1  12.08003993509351 -1.87341466316632 -0.20755006280628
 1  11.29173511371137 -0.78148978447845 -1.38151899559956
 1  11.67446746484648  1.16965003680368  0.20911370097010
 1  12.42383314201420  0.11610289358936  1.25760493559356
 1  13.50132087438744  0.62475721852185 -1.51491769656966
 1  14.84189441664167 -0.68533155045505  0.97573267076708
 1  14.38448883538354 -1.59999317821782 -0.58489474357436
 1  15.57360721722172 -0.33553688138814 -0.49931233423342
 1  13.63216246184618  2.41368966816682 -0.00752062936294
 1  14.56616422862286  1.73436985148515  0.83893272057206
 1  16.28845757285728  1.20094555605561 -1.04646246124612
 1  15.06524131963196  2.05082333373337 -1.95164869576958
 1  15.32465392749275  4.20603381108111 -0.65634691469147
 1  16.34269390329032  3.43905986538654  0.51612407120712
 1  18.10098991579158  3.10960446894689 -1.20581496939694
 1  16.58742587938794  4.75416269516952 -3.18815309420942
 1  18.13833622352235  4.11698809200920 -3.40206764036404
 1  16.85333001830183  2.92406731793179 -3.41646219941994
 1  18.21681955595560  5.05638629162916  0.16639580528053
 1  18.85402301310131  5.48070429692969 -1.37741988308831
 1  17.40600317011701  6.05117952805281 -1.02693104520452
 1 -5.21821970657066 -8.03744484388439 -0.11666598259826
 1 -6.31503199449945 -7.00849023042304  0.77583742704270
 1 -4.41547376477648 -6.74520439663966  1.35669853825383
 8 -7.90349324462446  6.79910994239424 -0.38222165056506
 1 -9.01994537833783  6.29312672837284 -1.74057252475248

