%nproc=3
%Mem=2GB
# td=(NStates=1) iop(3/107=0140000000,3/108=0140000000) iop(3/107=0140000000,3/108=0140000000) CAM-B3LYP/6-31G(d,p) 

TD

0 1
12 -5.58147387858786  1.14144417211721  0.19314198299830
 6 -5.01819194099410 -2.11464542924292 -0.34118718381838
 6 -3.32155361526153  1.24377691919192  2.83520495869587
 6 -6.19043546584658  4.59477750085009  0.63613597479748
 6 -8.09348026602660  1.06395507790779 -2.21943603750375
 7 -4.38171525602560 -0.22344826792679  1.00381054805481
 6 -4.20201542194219 -1.61944312571257  0.63588730723072
 6 -3.18600000170017 -2.35707690629063  1.46829241784178
 6 -2.82212636803680 -1.25439610931093  2.62038882548255
 6 -3.60677747774777 -0.01082023462346  2.13210386898690
 6 -3.44766687468747 -1.66685337793779  3.95540339973997
 6 -1.92626747004700 -2.61283527672767  0.67329151525153
 6 -0.86513427632763 -3.52387747564757  1.49887376427643
 6  0.22387825522552 -3.91286615871587  0.56738489958996
 8  0.52423627752775 -3.24367405620562 -0.49393940934093
 8  1.06076775897590 -4.77723286808681  1.21617760626063
 7 -4.84388293929393  2.70149038573857  1.43875056165617
 6 -4.00120420762076  2.44803281928193  2.51204643044304
 6 -3.75450598779878  3.66680676317632  3.19153809820982
 6 -4.49220497619762  4.68712717821782  2.52877876207621
 6 -5.33435279767977  3.96737141364136  1.47499265116512
 6 -2.97030565546555  3.84671175487549  4.46582045254525
 6 -4.68325102510251  6.10336037023702  2.83791922872287
 8 -4.16165865316532  6.70514534473447  3.81454542704270
 7 -6.98638028762876  2.62991092359236 -0.67958062576258
 6 -6.98803100090009  3.92145255075508 -0.35612381548155
 6 -7.87236237643764  4.65206626342634 -1.27629043814381
 6 -8.45250828362836  3.61860099019902 -2.07225177757776
 6 -7.82439625112511  2.34256243034303 -1.65259902970297
 6 -8.31978425712571  6.02986435613561 -1.29787092169217
 6 -9.42645912431243  3.77394833313331 -3.18280082868287
 6 -8.88573755445545  3.92864422752275 -4.59319256595660
 7 -6.39897566486649 -0.11669684988499 -1.05717673807381
 6 -7.48797240394039 -0.05568647424742 -1.96112203480348
 6 -7.59640275687569 -1.35844099679968 -2.64671769636964
 6 -6.73177866156616 -2.26997077037704 -2.05567477737774
 6 -5.97038496199620 -1.41128515801580 -1.16296416111611
 6 -8.52817819251925 -1.63856364496450 -3.79856077547755
 6 -6.17610123722372 -3.54419352535254 -2.08266366026603
 8 -6.57099033963396 -4.48513348344834 -2.71776202190219
 6 -5.03841409490949 -3.46379814651465 -0.93140976177618
 6 -5.33438056565657 -4.57099230083008  0.19677682868287
 8 -5.71358554115411 -4.45869180258026  1.36105322562256
 8 -5.05456541974197 -5.86003988808881 -0.39746391779178
 6 -5.41536488568857 -6.97506109720972  0.50561809660966
 6  2.31493817541754 -5.11362762296230  0.60215819711971
 6  3.37307061716172 -4.22999449874987  0.96059734553455
 6  4.08458756245625 -3.34216403730373  0.15424779977998
 6  3.90236513381338 -3.30513370177018 -1.28630629942994
 6  5.33811801780178 -2.49075334353435  0.75738758965897
 6  6.62487809250925 -2.78218317131713  0.06569689558956
 6  7.78734786148615 -1.83341498729873  0.59304313891389
 6  9.06533514201420 -2.10385636763676 -0.09322603580358
 6  9.50894797489749 -3.45817572007201  0.01416454145415
 6  10.06351178677868 -1.03841446234623  0.37282524592459
 6  11.49092224952495 -0.97924071917192 -0.16993230383038
 6  12.25560318091809  0.23351254175418  0.28510929912991
 6  13.53742313641364  0.54449413631363 -0.55379513671367
 6  14.42466063906391 -0.73690442044204 -0.48612529772977
 6  14.24968490669067  1.77050182238224 -0.22409005140514
 6  15.40885016591659  2.17704964026403 -1.00581768946895
 6  16.01786140584058  3.58547105710571 -0.55808690169017
 6  17.30201459615962  3.96202511801180 -1.37415846364636
 6  17.06493547564757  4.18517408010801 -2.89344166416642
 6  18.04130754995499  5.09318744474447 -0.67488844584458
 1 -2.51108661456146  1.34473133673367  3.58748635983598
 1 -6.34587547044704  5.65639184138414  0.69894965766577
 1 -8.83339853895390  1.09456371787179 -2.76153153405341
 1 -3.77954501970197 -3.19750286698670  1.80627636973697
 1 -1.76119720572057 -1.23294090229023  2.64860702670267
 1 -2.96255558075808 -2.68636521742174  4.40506045194519
 1 -3.42546914701470 -0.62417453515352  4.63171930783078
 1 -4.49647132293229 -2.00098801680168  3.78097131973197
 1 -2.38132529812981 -3.21415446044604 -0.47063479807981
 1 -1.37515821552155 -1.75266389378938  0.18308915021502
 1 -0.44601899199920 -2.79632960526053  2.30631517261726
 1 -1.48772825142514 -4.37336417271727  1.75950498719872
 1 -1.99112776487649  3.44635932263226  4.35679806090609
 1 -2.96949460346035  4.82054169326933  4.85178084098410
 1 -3.41233116561656  3.19568276237624  5.22046902370237
 1 -5.31978583788379  6.50483846634663  2.06524864066407
 1 -10.08458244074408  3.05920307220722 -3.13044419901990
 1 -10.14236171907191  4.54176171067107 -2.99974296689669
 1 -9.68477423832383  4.27079497949795 -5.41429774037404
 1 -8.35511947794779  4.82598453905390 -4.72469215101510
 1 -8.23715399029903  3.05958027192719 -4.96694080878088
 1 -8.41298788038804 -1.05441869956996 -4.68924889388939
 1 -8.28637826572657 -2.66079313961396 -3.96393573747375
 1 -9.57286053515351 -1.62194882948295 -3.51034531963196
 1 -4.24492626862686 -4.01135695869587 -1.33550848094810
 1  2.52655059885989 -6.14590188328833  0.87671605950595
 1  2.23805713231323 -5.12281080748075 -0.37545298039804
 1  3.64869085148515 -4.30557067936794  1.93870223432343
 1  2.74919237113711 -3.64743629852985 -1.43621627172717
 1  3.91037837583758 -2.38518321892189 -1.76456467396740
 1  4.67141964936494 -3.67693955025503 -1.99011046834683
 1  4.94671854085409 -1.34712025662566  0.57041743284328
 1  5.44091645004501 -2.75239955715572  1.68491237753775
 1  6.83923314331433 -3.86173047254725  0.20857017871787
 1  6.31991083058306 -2.59055127112711 -1.03027271347135
 1  7.48751955355536 -0.78356491079108  0.62363111641164
 1  7.81979088928893 -2.02570081858186  1.75787325972597
 1  8.87916381598160 -2.08541658235824 -1.20836905560556
 1  9.00743290869087 -4.38927778767877 -0.56516898709871
 1  10.57175020442044 -3.82739609430943 -0.41983956585659
 1  9.56667341494149 -3.75351107970797  1.10742170517052
 1  9.77267832873287 -0.02846443604360  0.24994416881688
 1  10.17182614121412 -1.27233555285529  1.31510244754475
 1  11.93742567366737 -1.95566288798880 -0.13907321512151
 1  11.42083802400240 -0.89783141864186 -1.28789963366337
 1  11.69613963206321  1.16994006580658  0.04284707430743
 1  12.52149290799080  0.30523180648065  1.32839201430143
 1  12.89058980128013  0.87408215101510 -1.46433263806381
 1  14.43074330153015 -1.17559057635764  0.65573067056706
 1  14.03169355585559 -1.56400957985799 -1.12819907400740
 1  15.50602045854585 -0.59423275097510 -0.80131253425343
 1  13.41579082468247  2.50754905410541 -0.02095197249725
 1  14.61177879007901  1.45568198269827  0.81694052135214
 1  16.28832755985598  1.60727618911891 -1.01701951695170
 1  15.13494829032903  2.27657590899090 -2.03391692259226
 1  15.25783724582458  4.51414462216222 -0.68695997599760
 1  16.32917255115511  3.41772773217322  0.45987844664466
 1  17.97842765956596  3.28577208570857 -1.14624901280128
 1  16.31886902370237  5.15235251415141 -3.08362264116412
 1  18.07994038393839  4.54522091529153 -3.48097553115312
 1  16.72945763106311  3.30873578477848 -3.38961951515151
 1  18.30060793479348  4.86721737473747  0.40730989668967
 1  18.96453406420642  5.51259748624862 -1.17203934503450
 1  17.28414098389839  6.12989739983998 -0.77821617371737
 1 -5.61399928452845 -8.05801690109011 -0.13167748374837
 1 -6.39459995129513 -6.79405878727873  0.76665650895090
 1 -4.98269048644864 -6.88283816001600  1.23117598599860
 8 -8.00109300460046  6.95190522192219 -0.41647507590759
 1 -9.12520590439044  6.35714313001300 -2.06942541004100

