%nproc=3
%Mem=2GB
# td=(NStates=1) iop(3/107=0140000000,3/108=0140000000) iop(3/107=0140000000,3/108=0140000000) CAM-B3LYP/6-31G(d,p) 

TD

0 1
12 -5.57246297749775  1.23866389408941  0.16922959175918
 6 -4.98973909570957 -2.10124408910891 -0.34209727482748
 6 -3.35032649254926  1.17547008850885  2.71951338953895
 6 -6.19476589888989  4.61615963906391  0.68997135833583
 6 -7.92753367136714  1.21271995439544 -2.40801489538954
 7 -4.27335441994199 -0.26804272737274  1.05886605360536
 6 -4.21765698609861 -1.65206638803880  0.65079879837984
 6 -3.18970037173717 -2.39729092769277  1.51587717631763
 6 -2.94221837723772 -1.34687535723572  2.62517930453045
 6 -3.59019581958196 -0.09305845844584  2.13292395099510
 6 -3.58566067406741 -1.82670936353635  3.91337919731973
 6 -2.01631647494749 -2.72517651085109  0.63761794789479
 6 -1.03613137603760 -3.63940902880288  1.33440731763176
 6  0.28527439483948 -3.96284115621562  0.66697485858586
 8  0.45579943384338 -3.53267295609561 -0.48821883728373
 8  1.13899558175818 -4.80178532333233  1.31934792329233
 7 -4.80158870987099  2.58250848754875  1.49236592319232
 6 -3.91551563876388  2.39718773477348  2.51192641844184
 6 -3.61445198239824  3.71802188468847  3.20348929332933
 6 -4.38923467916792  4.60157862336234  2.54170005420542
 6 -5.19707907030703  3.90628530503050  1.53537868976898
 6 -2.75963458835884  3.79859694339434  4.40241411191119
 6 -4.66028872887289  6.00528056225623  3.02753819061906
 8 -3.99960244754475  6.57771260146015  3.86071004350435
 7 -6.82405405500550  2.68591652415241 -0.71022369006901
 6 -6.96830902870287  3.96563696919692 -0.29842804590459
 6 -7.96628176837684  4.62652370917092 -1.20561337043704
 6 -8.47138017081708  3.58194732483248 -2.06663121552155
 6 -7.75644945644564  2.44355252935294 -1.69348311811181
 6 -8.23450572927293  6.02149351905190 -1.28278941354135
 6 -9.35124160256026  3.93585452375238 -3.28071061966197
 6 -8.52719169986999  4.07201856495650 -4.62272551925192
 7 -6.36085185248525 -0.13262844304430 -1.15487650805080
 6 -7.31376498319832 -0.00036094169417 -2.09912583518352
 6 -7.60443355995600 -1.35912106480648 -2.73043606820682
 6 -6.64964044774478 -2.21198497179718 -2.10399960986099
 6 -5.94601252475248 -1.38464249374937 -1.15148301300130
 6 -8.65215058975898 -1.65871566016602 -3.78193911331133
 6 -6.25761938903890 -3.56677578357836 -2.00767616151615
 8 -6.63834707530753 -4.50729569966997 -2.65824607030703
 6 -5.10825107860786 -3.51737350405041 -0.91715833663366
 6 -5.33086021362136 -4.64939014061406  0.20467761876188
 8 -5.76137031963196 -4.41976791019102  1.30512763306331
 8 -5.13058302150215 -5.83740762486249 -0.37790196159616
 6 -5.45048839803980 -7.03702729382938  0.30716825162516
 6  2.41333801540154 -5.18296455665567  0.63038101940194
 6  3.49552286238624 -4.25807730703070  0.98111939773977
 6  4.07523662736274 -3.23166298719872  0.25025740074007
 6  3.69770466776678 -3.13209639803980 -1.27699536833683
 6  5.17428163416342 -2.39732400060006  0.86892874377438
 6  6.54131973667367 -2.72902785578558  0.27699802570257
 6  7.64739386608661 -1.81554320012001  0.67827166176618
 6  8.97070567906791 -1.99298528052805  0.07158044484448
 6  9.66388346844684 -3.28997890039004  0.29976310131013
 6  9.93621905750575 -0.70788140904090  0.44841280468047
 6  11.26759991729173 -0.87083987908791 -0.19838514911491
 6  12.17759538013801  0.30578976947695  0.16840762896290
 6  13.38394778887889  0.56426611351135 -0.69510926812681
 6  14.38686685968597 -0.65092582258226 -0.52207889308931
 6  14.18840877907791  1.83947872007201 -0.19674731713171
 6  15.40586986788679  2.14052598789879 -1.05039214691469
 6  15.93953357305731  3.65170768076808 -0.77865895889589
 6  17.30254464916491  3.91978089358936 -1.43775482328233
 6  17.02647162926293  4.02139770247025 -2.90867318731873
 6  17.76835025422542  5.11326945294529 -0.78586954395440
 1 -2.49515502140214  1.05467233083308  3.39005661686169
 1 -6.29975085798580  5.50697689988999  0.85936569926993
 1 -8.80010520962096  1.13349761126113 -3.07665304620462
 1 -3.71408847404740 -3.20735385208521  1.81039678177818
 1 -1.99278036403640 -1.20759836803680  2.80986315231523
 1 -3.12958228342834 -2.72867944884488  4.29366931283128
 1 -3.52398899899990 -0.98466058375838  4.66789292519252
 1 -4.79625130093009 -1.95915383338334  3.88868209080908
 1 -2.35228239383938 -2.96758980398040 -0.39636737133713
 1 -1.47779847954795 -1.67185581298130  0.65930677197720
 1 -0.40114450455046 -2.97510748304830  2.21878641974197
 1 -1.36467594619462 -4.65718255455545  1.80038907560756
 1 -1.60698935103510  3.52343703040304  4.16505888698870
 1 -2.77212486648665  4.83996363546355  4.61368703160316
 1 -3.02202213471347  3.13385657975798  5.15521249804981
 1 -5.47036089538954  6.56315429792979  2.60035215101510
 1 -9.99966394889489  3.00374752665267 -3.26972812741274
 1 -10.02503998689869  4.92389992449245 -3.24775776837684
 1 -9.25275103600360  4.25007290729073 -5.49569588018802
 1 -7.89105307130713  4.88495043564356 -4.76462614441444
 1 -8.08835911081108  2.88757307120712 -4.53944805950595
 1 -8.45861244284428 -0.57938119581958 -4.48115808480848
 1 -8.60603023092309 -2.67118417871787 -4.27904724862486
 1 -9.59486273537354 -1.58415505010501 -3.14160844594459
 1 -4.35167694369437 -4.00782660566057 -1.45704063416342
 1  2.59365730953095 -6.20752804590459  1.06646503440344
 1  2.05021834843484 -5.12137066346635 -0.49966540164016
 1  3.88062404480448 -4.46019614191419  2.07026539063906
 1  2.63109056095610 -3.71224277917792 -1.32353500360036
 1  3.69384672267227 -2.03653835443544 -1.55097331483148
 1  4.36403891129113 -3.65940779707971 -1.99265072237224
 1  5.09586345534554 -1.32781832643264  0.47291768286829
 1  5.22245460386039 -2.44508882608261  2.02143602990299
 1  6.69643886388639 -3.90385468496850  0.31185050675067
 1  6.41992083158316 -2.49212142814281 -0.78624831103110
 1  7.27109791139114 -0.80554710901090  0.35590434373437
 1  7.89110802100210 -1.95126337483748  1.92616008840884
 1  8.86270216981698 -1.87401544224422 -1.05412363106311
 1  8.95193735913591 -3.96508536843684  0.05004253405341
 1  10.63066609600960 -3.66093944864486 -0.29587716961696
 1  9.86885363296330 -3.39459518811881  1.23763472647265
 1  9.39941100200020  0.20637904830483 -0.22782360796080
 1  9.91523048164816 -0.74029234853485  1.60996193349335
 1  11.65680761186119 -1.80551787348735  0.26573726592659
 1  11.06293223342334 -1.15014665016502 -1.31970281398140
 1  11.59264928302830  1.22555562736274 -0.00920813121312
 1  12.36379713841384  0.11602288558856  1.19991916701670
 1  13.21342208450845  0.63392813561356 -1.71005721052105
 1  14.74024425162516 -0.79476249354935  0.58684378187819
 1  13.93544393089309 -1.51869504840484 -0.63822007610761
 1  15.21475133163316 -0.62002533023302 -1.18544094709471
 1  13.42975222082208  2.53250154935494 -0.49413929122912
 1  14.21038865106511  1.63720013451345  0.77085591289129
 1  16.23850257735774  1.53082854435444 -0.75359317431743
 1  15.30426522202220  2.15235348674867 -2.16834036493649
 1  15.10334179627963  4.20418362606261 -1.12683396339634
 1  16.03951358525853  3.87858381778178  0.31534399319932
 1  17.74790460726073  3.02688619711971 -1.17557194509451
 1  16.05518265506551  4.66124340324032 -3.04005828472847
 1  17.91356374627463  4.54119051225122 -3.61588902250225
 1  16.69867455275527  2.92863777497750 -3.29753030623062
 1  17.97251512551255  5.12617327032703  0.19043820952095
 1  18.88813642444244  5.31911813831383 -1.05460760186019
 1  17.27230980078008  5.96658106820682 -1.06671502360236
 1 -4.88686657125713 -7.84675577497750 -0.26623093909391
 1 -6.62056254755475 -7.24287366876688  0.29003884718472
 1 -5.02972518991899 -7.01447132333233  1.38076094449445
 8 -7.75874877017702  6.80904093549355 -0.48386181458146
 1 -8.95616900070007  6.48590600630063 -1.73070153765376

