%nproc=3
%Mem=2GB
# td=(NStates=1) iop(3/107=0140000000,3/108=0140000000) iop(3/107=0140000000,3/108=0140000000) CAM-B3LYP/6-31G(d,p) 

TD

0 1
12 -5.54966069726973  1.21892191989199  0.29692236103610
 6 -4.94820494229423 -2.23996796149615 -0.25544860996100
 6 -3.28027948784879  1.17788032953295  2.61546298449845
 6 -6.10469689198920  4.64780280338034  0.55137749894990
 6 -7.98791970997100  1.16785546794679 -2.17679177307731
 7 -4.42046913141314 -0.29384530763076  1.11007117411741
 6 -4.16315153555356 -1.66159734113411  0.68401211971197
 6 -3.15566696839684 -2.28941013961396  1.42353794239424
 6 -2.96491064646465 -1.43556422612261  2.59523631023102
 6 -3.55783258325833 -0.12519167176718  2.01939259785979
 6 -3.44783689168917 -1.83887057965797  3.88097595699570
 6 -1.92572741604160 -2.62217621082108  0.54896908300830
 6 -0.98004576747675 -3.51866695459546  1.39816369326933
 6  0.20439630703070 -4.01311618371837  0.45070323142314
 8  0.39435328922892 -3.58511820062006 -0.66169618501850
 8  1.05611729392939 -4.81285643044304  1.16278226672667
 7 -4.81972052305230  2.67104734143414  1.46541322792279
 6 -3.91818590579058  2.43112112811281  2.40064529032903
 6 -3.57978851605161  3.73074315681568  3.06887583198320
 6 -4.39475523122312  4.72477094259426  2.47424330853085
 6 -5.11730109250925  3.96718139463946  1.49705485738574
 6 -2.73238186308631  3.87030411411141  4.28511238173817
 6 -4.51675437543754  6.06910694489449  2.90520595739574
 8 -3.79929241654165  6.62169699989999  3.80131410391039
 7 -6.90048169776978  2.65494342684268 -0.60207287498750
 6 -6.88028022582258  3.95236564206421 -0.38527673077308
 6 -7.88813395359536  4.64353541034103 -1.15959876897690
 6 -8.41360439323932  3.66237536763676 -1.99218377077708
 6 -7.75682949444945  2.39418759285929 -1.65544931473147
 6 -8.20551282998300  6.03666503620362 -1.30124125872587
 6 -9.33459993839384  3.79381031933193 -3.20435298389839
 6 -8.59929891059106  3.86063742684268 -4.55475872257226
 7 -6.36514228152815 -0.15163034323432 -1.07030805120512
 6 -7.32840644734473 -0.01831273687369 -1.95760168276828
 6 -7.64654777137714 -1.35700085278528 -2.60860388498850
 6 -6.72592807650765 -2.16353012631263 -1.98725793569357
 6 -5.98432635613561 -1.40031406090609 -1.04856272097210
 6 -8.65290066476648 -1.56676646524652 -3.77249816921692
 6 -6.28115174227423 -3.57540664666467 -1.97981337523752
 8 -6.67616085668567 -4.58097306740674 -2.59840008570857
 6 -5.03701395489549 -3.68638040474047 -0.73184980578058
 6 -5.39950707830783 -4.73732893449345  0.17910506150615
 8 -5.79154333693369 -4.50056598999900  1.45951307160716
 8 -5.08399836303630 -5.91325520962096 -0.32777694909491
 6 -5.43540688988899 -7.10808439953995  0.48034556935694
 6  2.33590027162716 -5.13997025722572  0.60841882318232
 6  3.44051736183618 -4.11233273257326  0.88997028282828
 6  4.00261936563656 -3.21579140004000  0.14095647064706
 6  3.54203910121012 -2.96101929032903 -1.28799646844684
 6  5.02784699069907 -2.32207647584758  0.68622047294729
 6  6.43237884258426 -2.72684763776378  0.12292261816182
 6  7.55471459815982 -1.82832447824782  0.52968680328033
 6  8.87942655115512 -1.90455643764376 -0.16228294149415
 6  9.44915199529953 -3.41135103760376 -0.09322619761976
 6  9.80434587018702 -0.91557217811781  0.25356331973197
 6  11.25789894719472 -0.92745554065407 -0.22991830243024
 6  12.16896451705171  0.26968615911591  0.19371015921592
 6  13.49957935203520  0.45222490939094 -0.47488724592459
 6  14.53997217021702 -0.69072980298030 -0.25709239443944
 6  14.25173511171117  1.81299607180718 -0.03576121852185
 6  15.43181246214621  2.15198713401340 -0.88468557625763
 6  16.01026064576457  3.67839034903490 -0.59453054605461
 6  17.24606900160016  4.01232014751475 -1.27691873967397
 6  17.11443042514252  4.09602516521652 -2.74128644864486
 6  17.72163558275827  5.43636176217622 -0.77699865686569
 1 -2.40821632753275  1.22106897049705  3.46412402360236
 1 -6.36242712561256  5.69493569576958  0.55009477217722
 1 -8.68912411151115  0.89143340484048 -2.89027440834083
 1 -3.65219228442844 -3.23965708240824  1.60402614471447
 1 -1.82746383238324 -1.31663927212721  2.49040120612061
 1 -2.64694401960196 -2.61840842174217  4.33295324122412
 1 -3.33458005810581 -1.19934205190519  4.82794893079308
 1 -4.54047572337234 -2.21965988398840  4.02899612221222
 1 -2.27944511011101 -3.15265831083108 -0.28862659725973
 1 -1.14336503620362 -1.67687631503150  0.34688552985299
 1 -0.51981637173717 -3.13964393669367  2.20436497759776
 1 -1.76173565216522 -4.22983982028203  1.73328236493649
 1 -1.84167281938194  3.12754744144414  4.22368474957496
 1 -2.32279993399340  4.84515415451545  4.71838750165016
 1 -3.25974590709071  3.48367156125613  5.21130810761076
 1 -5.22304616391639  6.64707268976898  2.40174229002900
 1 -9.89425340784078  3.04826197809781 -3.19140029462946
 1 -10.07190467336734  4.60720825532553 -2.89559255185519
 1 -9.32661842274227  4.06593449344934 -5.29940625122512
 1 -7.91694566056606  4.63677561816182 -4.52419210101010
 1 -8.03248352325233  2.90687500140014 -4.69137325202520
 1 -8.63716029762976 -0.86737999569957 -4.46451642064206
 1 -8.39740936883688 -2.51315837613761 -4.21910125402540
 1 -9.68291154025403 -1.89127576217622 -3.30440472557256
 1 -4.13782555855586 -3.88621444444444 -1.38252318241824
 1  2.80813875767577 -6.02877017011701  0.89446783468347
 1  2.30404373097310 -5.25919444584458 -0.57386282138214
 1  3.71145712811281 -4.23035315761576  2.08756712081208
 1  2.60530798269827 -3.64145570047005 -1.61000365046505
 1  3.55916325432543 -1.99679438003800 -1.46280449794980
 1  4.39064157155716 -3.41905376167617 -1.84414587188719
 1  4.68549241824183 -1.22172771737174  0.52767315841584
 1  4.91669402780278 -2.48443276047605  1.64913880018002
 1  6.53146236623662 -3.92743704320432  0.31488080978098
 1  6.31221006050605 -2.65962817881788 -1.02729241544154
 1  7.31269207080708 -0.79961651595159  0.46315506880688
 1  7.77459636983698 -1.95988423692369  1.62474994739474
 1  8.51495739533953 -1.90605864656466 -1.35269348804880
 1  8.75060722612261 -4.06450531043104 -0.66766923712371
 1  10.46989001840184 -3.37113046774678 -0.55167274917492
 1  9.66479322692269 -3.48139386798680  0.90708167116712
 1  9.59781084198420  0.16000441084108 -0.14954578017802
 1  9.95870482908291 -0.77528584788479  1.29187012431243
 1  11.88924085518552 -1.78608593029303 -0.09706901470147
 1  11.33908984918492 -1.03549518501850 -1.38371921562156
 1  11.62710272837284  1.31755482728273 -0.11527873827383
 1  12.14977573627363  0.30805208850885  1.33599277437744
 1  13.40063080538054  0.52568731153115 -1.55227143194319
 1  14.91268149534954 -0.58919193649365  0.80426552405241
 1  14.16341672817282 -1.62784596349635 -0.42116837093709
 1  15.50476033253325 -0.57319064676468 -0.91292369536954
 1  13.55619486508651  2.71439973917392  0.21552167486749
 1  14.64992260446045  1.45170158465847  1.05667449474947
 1  16.32744147124712  1.47531299279928 -0.95387320232023
 1  15.35643043854386  2.08692694409441 -1.94448797969797
 1  15.03864532663266  4.29167237493749 -0.91469274927493
 1  16.14156379027903  3.65846180558056  0.46171863066307
 1  17.88705852265226  3.13714722322232 -0.83691807970797
 1  16.30037717451745  4.68947622652265 -3.16752103100310
 1  18.13669605950595  4.18833522672267 -3.12491992559256
 1  16.86678136343634  3.10320523172317 -3.13429398259826
 1  17.92760063406341  5.31209186218622  0.23082224792479
 1  18.65887349814982  5.65938216471647 -1.07517965906591
 1  17.04580715051505  6.10786519661966 -1.04013236533653
 1 -5.48347623222322 -7.93185428482848 -0.42271658765877
 1 -6.52596308760876 -6.73756313771377  0.71950179347935
 1 -4.85035725312531 -7.24279415561556  1.22387525592559
 8 -7.70320321562156  6.98961899329933 -0.69425285368537
 1 -9.12560594439444  6.19028644434443 -2.01810027752775

