%nproc=3
%Mem=2GB
# td=(NStates=1) iop(3/107=0140000000,3/108=0140000000) iop(3/107=0140000000,3/108=0140000000) CAM-B3LYP/6-31G(d,p) 

TD

0 1
12 -5.67649338053805  1.22142216991699  0.18593126192619
 6 -5.08969909170917 -2.19709367406741 -0.24801786688669
 6 -3.25562702260226  1.21758429992999  2.76403784198420
 6 -6.18012443474347  4.55078310141014  0.64234659585959
 6 -7.92250316831683  1.19076775917592 -2.35211930583058
 7 -4.40670775527553 -0.31128705180518  1.12035220222022
 6 -4.31897711811181 -1.62652383378338  0.75759947844784
 6 -3.21413281498150 -2.38781998059806  1.46561214981498
 6 -2.98270242564256 -1.35465613531353  2.68687547414741
 6 -3.61076787678768 -0.03701285388539  2.23035369396940
 6 -3.50519262726273 -1.75983267586759  4.06187404680468
 6 -1.94056890019002 -2.66948094129413  0.56832101820182
 6 -0.98173593649365 -3.49380446834684  1.48020189708971
 6  0.26815268266827 -3.83771864396440  0.53144130523052
 8  0.49439329322932 -3.43140282908291 -0.56603661906191
 8  1.13181486368637 -4.64211935673567  1.20159614811481
 7 -4.84473302430243  2.58094833153315  1.46559324592459
 6 -3.95926001320132  2.40871888788879  2.45654087988799
 6 -3.67872841004100  3.65168525102510  3.14839378377838
 6 -4.46188194389439  4.57316578207821  2.54910079427943
 6 -5.19860922332233  3.96481115761576  1.52696784868487
 6 -2.84605323022302  3.78855593929393  4.45248911941194
 6 -4.70881358135814  5.99587962216222  2.84884032083208
 8 -4.04790727802780  6.67948277847785  3.68317228972897
 7 -7.05251690129013  2.61833976647665 -0.63452612031203
 6 -7.01722392019202  3.95324573007301 -0.39036723982398
 6 -8.06120126032603  4.55816687348735 -1.18843165226523
 6 -8.52045507830783  3.66464559465947 -2.14106865926593
 6 -7.71667547904790  2.41239941404140 -1.74528829862986
 6 -8.45085736443644  5.91243261296130 -1.26807794239424
 6 -9.55219169756976  3.77979891819182 -3.14825737433743
 6 -8.80630961166117  4.13585494859486 -4.45770901760176
 7 -6.37982374967497 -0.12379755995600 -1.10208122852285
 6 -7.37505111181118 -0.02663356895690 -2.10486640924092
 6 -7.59719283588359 -1.34751990469047 -2.70950397499750
 6 -6.73371885558556 -2.16558033133313 -2.00216942684268
 6 -6.00889881338134 -1.44155818531853 -1.03010087478748
 6 -8.64822019671967 -1.64557434603460 -3.83213413281328
 6 -6.24492811991199 -3.62814192019202 -1.92368776267627
 8 -6.61936517711771 -4.59223419351935 -2.54215446114611
 6 -5.07950820432043 -3.60274204090409 -0.81129775057506
 6 -5.39918704630463 -4.65979118071807  0.16725387638764
 8 -5.68401258385839 -4.38391432483248  1.29940706100610
 8 -5.09403936713671 -5.92961684578458 -0.36239041044104
 6 -5.38575192439244 -6.94043763486349  0.65806334113411
 6  2.37523420502050 -5.01322758295830  0.56431441274127
 6  3.44015732583258 -3.99374087338734  0.89002028782878
 6  4.06345544924492 -3.28160798169817 -0.06402402740274
 6  3.81532642994299 -3.15217840624062 -1.51983965276528
 6  5.21290549654965 -2.35529979817982  0.38678052895290
 6  6.57762336703670 -2.67812276527653 -0.07930760486049
 6  7.72773189988999 -1.92533417921792  0.55483931853185
 6  9.06939554805481 -1.98813479547955 -0.01413812701270
 6  9.76089316941694 -3.37223712621262  0.17097022202220
 6  10.05353078867887 -0.86484710561056  0.54964292769277
 6  11.25693885118512 -0.70575337043704 -0.35400071067107
 6  12.14519213981398  0.48303749424942  0.08976976517652
 6  13.44964435853585  0.50950063696370 -0.66777653485349
 6  14.33303147614762 -0.75923665366537 -0.56312299749975
 6  14.21469140734073  1.77425219741974 -0.15640328272827
 6  15.60821010191019  2.06559849514952 -0.84554166186619
 6  16.15873549324932  3.56205871587159 -0.57946903990399
 6  17.57288168286829  3.82716163166317 -1.14774582238224
 6  17.58332731483149  3.69132469516952 -2.63439575957596
 6  17.89663308250825  5.26837496349635 -0.69490044704470
 1 -2.54699020492049  1.34755161876188  3.59968757995800
 1 -6.67636851975198  5.49497569976998  0.99426918961896
 1 -8.72825802490249  1.34964922642264 -3.13211859275928
 1 -3.58386545174517 -3.35546866356636  1.83346908900890
 1 -1.76966805280528 -1.20036764496450  2.82284445044504
 1 -3.23346267146715 -2.66188276917692  4.51001094699470
 1 -3.38865546564656 -0.93284540224022  4.78210434633463
 1 -4.56286796259626 -2.05669358735874  4.17317053965396
 1 -2.19424659025903 -3.40812385738574 -0.31909964456446
 1 -1.54717541724172 -1.74629325672567  0.25816665796580
 1 -0.60474486458646 -2.99154912721272  2.28062260336034
 1 -1.51984146274627 -4.47836467276728  1.92522155885589
 1 -1.76508516061606  3.80920560726073  4.03525590669067
 1 -2.76603425742574  4.82850248934893  4.84101976487649
 1 -3.19447938043804  3.25633882798280  5.33938091489149
 1 -5.80322418171817  6.50126810931093  2.19506162196220
 1 -10.20461444394440  2.96742389428943 -3.39196035063506
 1 -10.27473495639564  4.62466000050005 -3.00145313791379
 1 -9.27518327922792  4.43622152215222 -5.31030734133413
 1 -8.02512647864786  5.00383232383238 -4.47044672647265
 1 -8.16159643454345  3.42855716961696 -4.72187630233023
 1 -8.39660624222422 -0.84511776947695 -4.62951292029203
 1 -8.32758238613861 -2.84326138643864 -4.02778212211221
 1 -9.51709495859586 -1.60041667626763 -3.18070235533553
 1 -4.16013778977898 -3.76364218721872 -1.39139406950695
 1  2.48237618141814 -6.05036232933293  1.01067945584558
 1  2.17288061466147 -5.00579910631063 -0.42836827192719
 1  3.86132211461146 -4.04125424772477  2.00825919001900
 1  2.73186063796380 -3.65166672157216 -1.63241589168917
 1  3.67580491849185 -2.01258595919592 -2.12053027052705
 1  4.67857036443644 -3.78894075037504 -2.01546300360036
 1  4.96674054305431 -1.37123266786679  0.00255064616462
 1  5.27387974637464 -2.15090940814081  1.40818470477048
 1  6.65051427142714 -3.74208850835084 -0.08778945724572
 1  6.56880572007201 -2.45263747974797 -1.01764145034503
 1  7.46699750135014 -0.78364491879188  0.52728148144814
 1  7.80900981118112 -2.17418566706671  1.62684015641564
 1  9.08508440804080 -1.90113815451545 -1.11352957165717
 1  9.01716388178818 -4.09823868376838 -0.46475894609461
 1  10.91125415481548 -3.43015637033703 -0.37646522842284
 1  9.56588333593360 -3.77508323692369  1.25836679967997
 1  9.22631369226923  0.09797820822082  0.75996517091709
 1  10.18475743434343 -1.07220553985399  1.54932586988699
 1  11.87530946204621 -1.53181050275028 -0.36682599039904
 1  10.92306824702470 -0.55973760926093 -1.44710555425543
 1  11.64382440054005  1.48050112191219 -0.07306451685168
 1  12.40800155885589  0.49132041534153  1.21030020512051
 1  13.21473221552155  0.61191593439344 -1.67201340614061
 1  14.80728095529553 -0.78074109140914  0.43191828932893
 1  13.78356874337434 -1.78991217011701 -0.61222747684768
 1  15.16842669916992 -0.73303663136314 -1.33930633363336
 1  13.60094934053405  2.65116341554155 -0.14630450775077
 1  14.28282589478948  1.74368078257826  0.94646347364737
 1  16.35286401350135  1.25270073157316 -0.75960377537754
 1  15.34862965846585  1.94348259965997 -1.96844037493749
 1  15.41740320242024  4.28503171087109 -0.90001128112811
 1  16.22763239713971  3.41627758715872  0.63175563436344
 1  18.41868168496850  3.02953646214621 -0.83062745064506
 1  16.90134727152715  4.41676895579558 -3.12610688958896
 1  18.50814320422042  3.89223561676168 -3.09027646124613
 1  17.25391007630763  2.70827573877388 -2.85509606280628
 1  17.91562943694369  5.40046069906991  0.30475964166417
 1  18.81641925272527  5.68720494699470 -1.17738988008801
 1  17.01360393019302  5.91638604870487 -1.34643299539954
 1 -5.26188407300730 -7.83439453885389  0.04088977297730
 1 -6.44989548084808 -6.69722910431043  1.07033687698770
 1 -4.64319653705371 -6.86460633683368  1.60437330573057
 8 -7.90609350465046  6.80221025242524 -0.53315674407441
 1 -9.33970735453545  6.18046546224622 -1.89487795529553

