%nproc=3
%Mem=2GB
# td=(NStates=1) iop(3/107=0140000000,3/108=0140000000) iop(3/107=0140000000,3/108=0140000000) CAM-B3LYP/6-31G(d,p) 

TD

0 1
12 -5.59674540574057  1.19593962166217  0.22118478727873
 6 -5.10708082988299 -2.20495446014601 -0.28799186428643
 6 -3.23818527842784  1.22595513701370  2.72956439463946
 6 -6.24703112541254  4.52484050715072  0.61454381558156
 6 -8.08024894289429  1.08472715511551 -2.30058415231523
 7 -4.39956704120412 -0.27913383648365  0.97213738073807
 6 -4.27819303970397 -1.61046222762276  0.64474819331933
 6 -3.20802220392039 -2.31229242784278  1.46530211881188
 6 -2.86367052245225 -1.20935160486049  2.48648543514351
 6 -3.51095789578958 -0.02378153075308  2.01951260986099
 6 -3.45141724972497 -1.81857855045505  3.91695955535554
 6 -1.93665850915092 -2.64274826802680  0.55916010211021
 6 -0.98541630453045 -3.45650073797380  1.33710758765877
 6  0.33986985438544 -3.77246211831183  0.48618677977798
 8  0.45283913781378 -3.39314900370037 -0.71214122952295
 8  1.20876255845585 -4.63738888368837  0.98947493599360
 7 -4.90147869886989  2.61419165586559  1.44191087768777
 6 -3.92291637883788  2.36385440144014  2.33103832963296
 6 -3.59347988518852  3.62518260076008  3.09410835523552
 6 -4.40773652935294  4.60671913741374  2.53797968216822
 6 -5.23099246164617  3.93727840434043  1.49913506540654
 6 -2.67888651355135  3.87300438413841  4.14961883238324
 6 -4.53246594659466  6.01952198639864  2.83650908770877
 8 -3.92287477477748  6.53688851905191  3.76973094559456
 7 -6.83970562016202  2.64799273177318 -0.70308297599760
 6 -6.96811900970097  3.90265067056706 -0.42479068216822
 6 -7.93506864706471  4.60120117691769 -1.15929873897390
 6 -8.48725175797580  3.64998412851285 -2.07400195259526
 6 -7.82802661416142  2.28828700280028 -1.65407917771777
 6 -8.28527080578058  6.02346371607161 -1.08823995859586
 6 -9.58247472587259  3.72282322062206 -3.13985653425343
 6 -9.03200218091809  3.94493585668567 -4.52845609230923
 7 -6.44305007230723 -0.15615079527953 -1.05702672307231
 6 -7.36525013171317 -0.05238614421442 -2.01819774237424
 6 -7.60113322992299 -1.34924007670767 -2.67629065366537
 6 -6.75363084678468 -2.22766653995400 -2.03135234513451
 6 -6.08584650815081 -1.45532956245625 -1.07994585928593
 6 -8.72417779247925 -1.77169695829583 -3.68654957435744
 6 -6.23553718081808 -3.61845095109511 -1.86549194309431
 8 -6.60348358895890 -4.58645361546155 -2.42530277597760
 6 -5.14109436293629 -3.60388215491549 -0.79811643244324
 6 -5.42260938853885 -4.68558375997600  0.16563371437144
 8 -5.94611879447945 -4.46013194659466  1.34683180348035
 8 -5.07471743494349 -5.88336222032203 -0.24970914231423
 6 -5.54487783698370 -7.00252384348435  0.52634016881688
 6  2.52035871747175 -4.92301856205621  0.35495347664766
 6  3.49723303340334 -4.09542104140414  0.77196848264826
 6  4.03704280798080 -3.11457127802780  0.04175655065507
 6  3.67028192549255 -2.90285347374738 -1.47720538933893
 6  5.19375358135814 -2.25916018421842  0.64505635653565
 6  6.60367597229723 -2.57782273527353 -0.05600527462746
 6  7.68048717541754 -1.75146679247925  0.62351618621862
 6  9.08125673417342 -1.94465044704470  0.01953524032403
 6  9.69806688678868 -3.34591449394939  0.30084320932093
 6  9.93135857145715 -0.79343996489649  0.55455341874187
 6  11.30841399869987 -0.77259005410541 -0.14731004160416
 6  12.17386500710071  0.42615180568057  0.21340212841284
 6  13.55729512361236  0.48222790969097 -0.47078683588359
 6  14.37748592159216 -0.76517724772477 -0.09964664986499
 6  14.21046098429843  1.74277905010501 -0.08953659605961
 6  15.43353263416342  2.05926786208621 -0.91759886758676
 6  16.06667628732873  3.43279578957896 -0.67351844484448
 6  17.43191758645865  3.82672158765877 -1.25181622942294
 6  17.34837381948195  3.84973053575357 -2.83774609460946
 6  18.04607802700270  5.07091521752175 -0.73942489948995
 1 -2.34483998989899  1.30201706530653  3.53078068926893
 1 -6.54497538043804  5.62129833203320  0.63993375607561
 1 -8.82505770487049  0.98349261076108 -3.31992737363736
 1 -3.62514958015802 -3.21602471917192  1.76707244934493
 1 -1.65311639763976 -1.11997960616062  2.78493065906591
 1 -2.97445677087709 -2.54006058695870  4.38470841674167
 1 -3.45494209430943 -0.96547866556656  4.56190232613261
 1 -4.59561123692369 -1.94244216221622  3.87631085368537
 1 -2.26869403500350 -3.30720376537654 -0.33645137973797
 1 -1.39026972667267 -1.72504113151315  0.21324216551655
 1 -0.68278266836684 -2.72642261456146  2.19599414051405
 1 -1.36221570017002 -4.34375121142114  1.61361039773977
 1 -1.63343199529953  3.89976466316632  3.83384576567657
 1 -2.86094374837484  4.88809844894489  4.50548621152115
 1 -2.91712164466447  3.19765295939594  4.88763574037404
 1 -5.01961582088209  6.66386436893689  2.12744486028603
 1 -10.12552653515352  2.78307545944594 -2.98115927052705
 1 -10.24163164606461  4.57519505400540 -2.74999799239924
 1 -9.51231699259926  4.58319621962196 -5.35855216581658
 1 -8.35021898789879  4.89580152075207 -4.35826550835084
 1 -8.38790906580658  3.16128044194419 -4.87348146284628
 1 -8.52353893549355 -1.22834609230923 -4.65361533053305
 1 -8.48485811371137 -2.81811887218722 -3.90846018991899
 1 -9.69016226532653 -1.59161579617962 -3.15466975207521
 1 -4.22810458645865 -3.98823464646465 -1.54201913201320
 1  2.61571951575158 -5.93522081518152  0.61726011391139
 1  2.10833416001600 -4.96577510391039 -0.64562999809981
 1  3.66294227662766 -4.08911903420342  1.79006737083708
 1  2.71660911281128 -3.21069262416242 -1.86946959705971
 1  3.91039837783778 -1.94071877247725 -1.67706592409241
 1  4.61240374777478 -3.37740959725973 -2.13395485278528
 1  4.76722059105911 -1.26007155175518  0.47245763686369
 1  5.43670602900290 -2.43051736893689  1.69768365466547
 1  6.75539475947595 -3.59646394589459  0.22782210391039
 1  6.51467030653065 -2.47971018701870 -1.16521620782078
 1  7.61726252785279 -0.62006856115612  0.46751550485049
 1  7.73219212941294 -1.96037428592859  1.55845331773177
 1  8.92662856245625 -1.87876591729173 -0.96237445614561
 1  8.99170133553355 -3.98489734963496 -0.19676214641464
 1  10.68538156755675 -3.47411076577658 -0.30759834173417
 1  9.90357710531053 -3.60110583918392  1.38586954995500
 1  9.33553461436144  0.22031044144415  0.51675084948495
 1  9.97818677727773 -0.86861518081808  1.56135707300730
 1  11.76632856395640 -1.79739706140614  0.14472516471647
 1  11.18135407560756 -0.88474010951095 -1.27146799049905
 1  11.59657967606761  1.35281835363536 -0.27836504690469
 1  12.28820957965797  0.59714099739974  1.27045622072207
 1  13.40827156945694  0.54341908470847 -1.63553975877588
 1  14.52321254845485 -0.82222523982398  1.12206730423042
 1  13.99214960146015 -1.80536371527153 -0.41387764186419
 1  15.44054391089109 -0.68657198489849 -0.47476987998800
 1  13.45269451505150  2.45428372757276 -0.36314619191919
 1  14.59697730993099  1.62048846334633  0.90735956325633
 1  16.30519924702470  1.40521598309831 -0.82697051205120
 1  15.09102389788979  1.97826607800780 -1.93850738163816
 1  15.13737519961996  4.04661786948695 -0.79006028602860
 1  16.02645227912791  3.59490544994500  0.48767122592259
 1  18.02848266506651  2.73627713621362 -1.17654204210421
 1  16.52100923772377  4.68322560146015 -3.12906718561856
 1  18.34246663656366  4.13934032723272 -3.25763319691969
 1  17.13221790709071  2.99967487868787 -3.30528108130813
 1  18.10909878387839  4.93715436843684  0.35584475017502
 1  18.96854446524652  5.25901212771277 -0.98412055315532
 1  17.40444301410141  5.80219462956296 -0.98818717081708
 1 -5.03609149374938 -7.80842194159416  0.06652233623362
 1 -6.58584907620762 -7.14277365876588  0.64542438573857
 1 -5.30488270567057 -6.94211408760876  1.56399926832683
 8 -7.88097099239924  6.76381641304130 -0.23830725912591
 1 -9.00473385718572  6.44462187788779 -1.72083055055506

