%nproc=3
%Mem=2GB
# td=(NStates=1) iop(3/107=0140000000,3/108=0140000000) iop(3/107=0140000000,3/108=0140000000) CAM-B3LYP/6-31G(d,p) 

TD

0 1
12 -5.53547927912791  1.19315934363436  0.12485515431543
 6 -5.03159328112811 -2.08782274697470 -0.38521158625863
 6 -3.32382384228423  1.18291083258326  2.62800423862386
 6 -6.16085250755076  4.54381240434043  0.64264662586259
 6 -7.98585950395040  1.19379806220622 -2.41839593349335
 7 -4.26880396489649 -0.24505042814281  0.90087025402540
 6 -4.27021224162416 -1.55507668906891  0.59247296579658
 6 -3.16523792549255 -2.29501069966997  1.41376696529653
 6 -2.83186734213421 -1.26726739643964  2.59446623322332
 6 -3.46791359135914 -0.01399055165517  2.06438709730973
 6 -3.47786989498950 -1.70411710431043  3.92434029342934
 6 -1.93186803010301 -2.63967796099610  0.61101528762876
 6 -0.97306506940694 -3.56393148104810  1.36085996289629
 6  0.20188605600560 -3.89558443054305  0.58463662476248
 8  0.63640749464946 -3.47274696349635 -0.56873688908891
 8  1.02297397959796 -4.77685283008301  1.22943893239324
 7 -4.87513606460646  2.65242547924792  1.46029271587159
 6 -3.88727281448145  2.44213222922292  2.42505773157316
 6 -3.69183972117212  3.71820190269027  3.14992393679368
 6 -4.43046880258026  4.62331079657966  2.53332921712171
 6 -5.24360372277228  3.93619829632963  1.50328548044804
 6 -2.67833645854585  3.73489057275728  4.26121999249925
 6 -4.71471417141714  5.97747778197820  3.10267570437044
 8 -4.20346283358336  6.47365219541954  4.08546251875187
 7 -6.88032968256826  2.58147608010801 -0.68197086478648
 6 -6.98625082288229  3.95887629312931 -0.28929713281328
 6 -8.03845898609861  4.56242729952995 -1.18874168326833
 6 -8.52789582238224  3.72102123222322 -2.02904745714571
 6 -7.81199501100110  2.39966814091409 -1.72472624242424
 6 -8.37389966866687  5.99223059275928 -1.15834696929693
 6 -9.49012549094910  3.77624856315632 -3.18328087668767
 6 -8.91810079077908  4.01314267736774 -4.57184043074307
 7 -6.46405217251725 -0.12067724792479 -1.09783080348035
 6 -7.45870947764776 -0.08719962556256 -2.13017894049405
 6 -7.68064118071807 -1.38781393409341 -2.71210423502350
 6 -6.78091357505751 -2.14928870217022 -2.12252146204620
 6 -6.12525044854485 -1.39532356185619 -1.09899776447645
 6 -8.57195256995700 -1.62683247184718 -3.74141506090609
 6 -6.31530515761576 -3.61275038103810 -2.07261265516552
 8 -6.60729396999700 -4.57897286738674 -2.66562680838084
 6 -5.08046830033003 -3.52400416711671 -0.94938155895590
 6 -5.32912003960396 -4.59138434003400  0.12507965896590
 8 -5.79951413401340 -4.37798373177318  1.27791491179118
 8 -5.21716167936794 -5.87538142224222 -0.40886505790579
 6 -5.52445579477948 -6.97718130923092  0.36399393419342
 6  2.40612729432943 -5.14390065026503  0.67029501080108
 6  3.45741905200520 -4.13978547784778  1.04469575537554
 6  4.10026913061306 -3.17667748864886  0.29245162016202
 6  3.86360125742574 -3.02384557295730 -1.22616028482848
 6  5.17543174917492 -2.35683995219522  0.86877872877288
 6  6.55379098379838 -2.73936888988899  0.29247957385739
 6  7.71536066276628 -1.81375302110211  0.84418825342534
 6  9.05935454395440 -2.02386836883688  0.15177846464646
 6  9.63590067016702 -3.41596149864986  0.43078620362036
 6  10.02213764936494 -0.84935555645565  0.51223918731873
 6  11.28569172647265 -0.81478427352735 -0.29618492909291
 6  12.19979760036004  0.33876306680668  0.15784657285729
 6  13.60046944104410  0.47683737063706 -0.57967772497250
 6  14.51158933193319 -0.74000473047305 -0.37070375557556
 6  14.38224816301630  1.77061183338334 -0.20227787018702
 6  15.45783506440644  2.24027596289629 -1.22846995469547
 6  16.08760838053805  3.48363087308731 -0.68850994399440
 6  17.33972836753675  3.85883479897990 -1.41417246504650
 6  17.17758674077408  4.09148471117112 -2.96300862086209
 6  17.98486190539054  5.20252837883788 -0.92660361736174
 1 -2.53280878677868  1.26381324492449  3.42762037323732
 1 -6.44010489338934  5.48951515371537  1.22179194189419
 1 -8.83817901700170  1.14842910441044 -3.10205558645865
 1 -3.48373543874388 -3.26684980168017  1.69035477757776
 1 -1.78332941894189 -1.16571417961796  2.70916308230823
 1 -3.04134345954595 -2.68321490239024  4.30071001690169
 1 -3.31332793289329 -0.87618973667367  4.58325446134613
 1 -4.54914659045905 -1.87902582058206  3.95006822942294
 1 -2.16875404100410 -3.19360240524052 -0.28654638923892
 1 -1.47571827152715 -1.80609923732373  0.27190803210321
 1 -0.70696508660866 -2.96758673097310  2.27008154925493
 1 -1.45074455305531 -4.44244108040804  1.66307534423442
 1 -1.67996664876488  3.70339502620262  3.82782516361636
 1 -2.64722237623762  4.67775741484148  4.82551821472147
 1 -2.96687662016202  2.89774296839684  4.96390336713671
 1 -5.67012087138714  6.49821780428043  2.57958007380738
 1 -10.01264524702470  2.97069422132213 -2.93100425502550
 1 -10.15050253315332  4.75013254775478 -2.84207720032003
 1 -9.69003476437644  3.98667656765677 -5.44417072767277
 1 -8.43416738273827  5.04405634623462 -4.68086776857686
 1 -8.29218949384938  3.06865117901790 -4.86021013571357
 1 -8.44401098269827 -1.15998925662566 -4.66182615161516
 1 -8.42210183808381 -2.69364642494249 -4.01945128902890
 1 -9.73884713381338 -1.41366800140014 -3.29561384648465
 1 -4.08545032103210 -3.87589341234123 -1.41696662676268
 1  2.56667461126113 -6.19662695579558  1.04658304620462
 1  2.01732505910591 -5.13944247064707 -0.27924335943594
 1  4.12148813121312 -4.41671179347935  2.02873123722372
 1  2.96084353625363 -3.74555611051105 -1.55808845894589
 1  3.93114045204520 -2.00801550215021 -1.58339655715572
 1  4.48645115251525 -3.45324718101810 -1.72307376467647
 1  5.06739060806081 -1.26048159275928  0.77482787388739
 1  5.21175353375338 -2.43143746094609  1.91697558385839
 1  6.71493071307131 -3.83039733923392  0.39953927562756
 1  6.42932177167717 -2.64470668666867 -0.74995468166817
 1  7.03146394799480 -0.72495905020502  0.80918967226723
 1  7.90379929012901 -2.14321256975698  1.91599907230723
 1  8.83997989758976 -2.13300134083408 -0.93891210991099
 1  8.89540170557056 -4.09624848474848  0.04769229902990
 1  10.52246527592759 -3.49240259495950  0.03362578067807
 1  9.54726147374737 -3.70532626122612  1.47274823782378
 1  9.49628068896890  0.14376278667867  0.11504067846785
 1  10.16099505810581 -0.95207352665267  1.50797173447345
 1  11.85119705080508 -1.76773409510951 -0.20851015881588
 1  11.10696663686369 -0.78456009150915 -1.38885972967297
 1  11.60255027312731  1.25311838363836  0.00203299289929
 1  12.58791955065507  0.25095637893789  1.24427360246025
 1  13.38102884518452  0.37593233603360 -1.61084728952895
 1  14.78216844404441 -0.72226524382438  0.63011810931093
 1  14.11075146164617 -1.76037921682168 -0.42356861096110
 1  15.34103395989599 -0.73977730543054 -1.10191259425943
 1  13.54949419501950  2.51909020822082 -0.21071094839484
 1  14.66892450465047  1.56369278377838  0.85715454275428
 1  16.11859058615861  1.48411387288729 -1.08756657165717
 1  15.26705150065007  2.19661791319132 -2.30295382628263
 1  15.53500496259626  4.32681588928893 -0.77863914391439
 1  16.48571820572057  3.04140009940994  0.45190764956496
 1  18.10713052985298  2.98115162366237 -1.48040242814281
 1  16.42067920472047  4.88361564046405 -3.24867914681468
 1  18.27787017691769  4.40329672287229 -3.14113154675468
 1  16.96698138343834  3.13162807400740 -3.63304385758576
 1  18.39492736673667  5.17336798979898  0.15940510621062
 1  18.74759237003700  5.46313253975398 -1.54111625272527
 1  17.18079064886489  6.13586799689969 -0.88677702980298
 1 -5.46027391199120 -7.77752885228523 -0.27633194919492
 1 -6.73406389768977 -6.80483986538654  0.80173001630163
 1 -5.11385360276028 -7.19430930713071  1.30635350375038
 8 -7.73696659195920  6.79153918531853 -0.44771820022002
 1 -9.40318370217022  6.29192660836084 -1.71133960146015

