%nproc=3
%Mem=2GB
# td=(NStates=1) iop(3/107=0140000000,3/108=0140000000) iop(3/107=0140000000,3/108=0140000000) CAM-B3LYP/6-31G(d,p) 

TD

0 1
12 -5.60326605780578  1.26528655635564  0.19461213001300
 6 -5.05961608340834 -2.14520848554855 -0.40393345844584
 6 -3.30562202210221  1.27477001850185  2.67695913411341
 6 -6.21520794309431  4.59688771187119  0.66519888108811
 6 -7.95924684268427  1.25599428182818 -2.29683377727773
 7 -4.33801088558856 -0.22080800390039  0.97019718671867
 6 -4.26657187758776 -1.55566674807481  0.67466118461846
 6 -3.12470387208721 -2.33332453105311  1.48366395499550
 6 -2.86479063446345 -1.25992666236624  2.60034682128213
 6 -3.58716551655165 -0.00181933453345  2.08920957955796
 6 -3.42236434443444 -1.75579227182718  4.00000786018602
 6 -1.91762660596060 -2.65823981718172  0.70248443454345
 6 -0.90064782768277 -3.56850193809381  1.55140901780178
 6  0.22695856325633 -3.89156402850285  0.63666182728273
 8  0.43616747064706 -3.53091278007801 -0.50121013641364
 8  0.97984966716672 -4.81567671247125  1.30029601810181
 7 -4.92104065506551  2.64268450515051  1.42156884348435
 6 -3.87011109830983  2.42368038403840  2.36324154995500
 6 -3.66953749094909  3.70417049954995  3.09763870827083
 6 -4.51332708840884  4.60059852535253  2.57868375257526
 6 -5.21599096149615  3.92273695019502  1.44591974387439
 6 -2.81178980388039  3.79544662836284  4.37195106560656
 6 -4.61819451945195  6.00286032023202  3.03289872667267
 8 -3.88264075137514  6.60093492369237  3.76246021852185
 7 -6.90794244384438  2.64082201470147 -0.68597126482648
 6 -6.91633383118312  3.99020942644264 -0.30659886298630
 6 -7.96831197139714  4.61938299509951 -1.17227003610361
 6 -8.50790382318232  3.61225035513551 -2.00232478487849
 6 -7.76269008050805  2.44085225932593 -1.67581135093509
 6 -8.29233151185119  5.99704107380738 -1.13017415201520
 6 -9.44639111751175  3.79876081438144 -3.25533808240824
 6 -8.68231721242124  3.76475783888389 -4.52662590929093
 7 -6.37955372267227 -0.13191837203720 -1.05545656605661
 6 -7.38698230493049 -0.00046095169517 -2.03156907950795
 6 -7.47515063166317 -1.25881103380338 -2.74551757635764
 6 -6.63202868656866 -2.14590836413641 -2.07150636053605
 6 -5.94379230273027 -1.42174620412041 -1.17014487918792
 6 -8.55978135283528 -1.68387817641764 -3.74869578897890
 6 -6.22026565366537 -3.57949705570557 -2.08536393029303
 8 -6.59952319291929 -4.55676064616462 -2.58180842654265
 6 -4.91114136763676 -3.49978174487449 -1.00041666246625
 6 -5.15922304990499 -4.66527172877288  0.05232238323832
 8 -5.59166334893489 -4.54663059645965  1.16056317661766
 8 -4.85506546974698 -5.87840172427243 -0.49235340674067
 6 -5.14474782398240 -6.98852244334433  0.31981951675168
 6  2.29603628522852 -5.12107836803680  0.58940692199220
 6  3.29837314741474 -4.00767226652665  1.03238452425243
 6  3.91259036273627 -3.31039085998600  0.14695707070707
 6  3.65258015531553 -3.10718390679068 -1.26025369416942
 6  5.02077628362836 -2.37104137233723  0.60791264216422
 6  6.55538114281428 -2.72508746174617  0.22190251615162
 6  7.55307443414341 -1.78392003780378  0.73283711831183
 6  8.82728133663366 -1.95329131113111 -0.03933064626463
 6  9.40245732583258 -3.31586148864886  0.30682380738074
 6  9.86705214081408 -0.86549717061706  0.49820778417842
 6  11.15796895419542 -0.79287208230823 -0.34609992059206
 6  12.18522614321432  0.36433562406241  0.03697448564856
 6  13.50444983908391  0.47604729162916 -0.57445720292029
 6  14.33094126712671 -0.71414214421442 -0.20073675887589
 6  14.22342228042804  1.77257202940294 -0.26015365776578
 6  15.41930121102110  2.13828576387639 -0.99959706740674
 6  16.03086270597059  3.51217372737274 -0.70286137913791
 6  17.33478787348735  3.86909582508251 -1.42505355315532
 6  17.31393037513752  3.84113967666767 -2.91088340834083
 6  17.81472489168917  5.21168929492949 -0.89166012301230
 1 -2.64450995689569  1.07403426702670  3.76045365656566
 1 -5.99437031993199  5.86259246144614  0.61254101680168
 1 -8.71073627272727  1.28452271377138 -3.09315469636964
 1 -3.62152921812181 -3.17762087878788  1.84486022812281
 1 -1.72061314731473 -1.13719132733273  2.53293545954596
 1 -3.03390271547155 -2.73706028692869  4.39065901180118
 1 -3.67701430153015 -1.01468358605861  4.85464160006001
 1 -4.42783445924592 -2.20318823682368  3.87407062966297
 1 -2.17461462706271 -3.13863690869087 -0.05564329892989
 1 -1.46755745544554 -1.82742136953695  0.33429427072707
 1 -0.74839923002300 -3.02329230153015  2.54426896799680
 1 -1.47474695329533 -4.42932976927693  1.71927096379638
 1 -1.69594824692469  3.78362304900490  4.06534891599160
 1 -2.99512716671667  4.79351899099910  4.93823948684869
 1 -3.06496642914291  2.96230942504250  4.98279525632563
 1 -5.61529538883888  6.59531751425143  2.63141525732573
 1 -10.14097808030803  2.93773092499250 -3.21497265186519
 1 -9.99675715861586  4.58291582608261 -3.14817781038104
 1 -9.26055181608161  3.67843574357436 -5.30636694729473
 1 -8.15090905690569  4.80735267586759 -4.45664534633463
 1 -7.76120639553955  2.98132244614462 -4.47337145184518
 1 -8.57110369196920 -1.18658191589159 -4.85811578057806
 1 -8.78749837773777 -2.85533259355936 -3.86920626452645
 1 -9.46710996009601 -1.32031866646665 -3.29272355745575
 1 -4.21261303730373 -4.01790761376138 -1.55839076917692
 1  2.57781572537254 -6.16744403750375  0.88714710261026
 1  2.01264459105911 -4.98394692109211 -0.47219265436544
 1  3.60096607900790 -3.89276939923992  2.01145951005101
 1  2.66097354925492 -3.47791934683468 -1.50041269136914
 1  3.71893923192319 -1.99737443804380 -1.50939915741574
 1  4.32941544894489 -3.55508736503650 -1.96738819611961
 1  4.80435430443044 -1.23498904350435  0.34685507660766
 1  4.99671202960296 -2.45630994819482  1.71739562586259
 1  6.76761598159816 -3.78646294579458  0.60044936663666
 1  6.50430927042704 -2.79135135113511 -0.76243592979298
 1  7.23366416801680 -0.63103965826583  0.79535828912891
 1  7.80965987618762 -1.93225147364737  1.86815428782878
 1  8.71856775637564 -1.80174821552155 -1.20708892759276
 1  9.00585275067507 -4.13185204510451 -0.11754422462246
 1  10.42834586398640 -3.29167252195219 -0.08714629652965
 1  9.50835758335834 -3.45953168176818  1.47947891089109
 1  9.43017407830783  0.21197960836084  0.58405758015802
 1  10.19847880648065 -1.05431375067507  1.57707864516452
 1  11.71689362046205 -1.95425274697470 -0.34130343814381
 1  10.87962390259026 -0.81913354885489 -1.50668151185119
 1  11.64506452455245  1.29462253405341 -0.11550876127613
 1  12.13204396309631  0.15589687298730  1.20060923602360
 1  13.28004874717472  0.15220996379638 -1.69425563036304
 1  14.49127935513551 -0.56639965726573  0.91712681018102
 1  13.92269265576558 -1.58145132403240 -0.42354860896090
 1  15.36248610511051 -0.61925525322532 -0.69542194519452
 1  13.34235348094809  2.57809610881088 -0.36940681798180
 1  14.38697630983098  1.83353976847685  0.85475430273027
 1  16.03004173127313  1.14580004150415 -0.71941975697570
 1  15.37935273077308  2.04629288068807 -2.00425395629563
 1  15.05171663376337  4.18360156785679 -0.74812609260926
 1  16.25137477137714  3.63898985838584  0.38631108990899
 1  17.95154497129713  3.07608111661166 -1.06893128102810
 1  16.51877901470147  4.61802908180818 -3.40194447334733
 1  18.20879326922692  4.33047944114411 -3.26447388098810
 1  16.89961464676468  2.92004691589159 -3.40087064026403
 1  17.79826770077008  5.29899055205520  0.38201736743674
 1  18.79941755255525  5.58525475197520 -1.15971811291129
 1  17.07522009180918  6.08845325542554 -1.18989734183418
 1 -4.93308119271927 -7.88658975837584 -0.43215753175317
 1 -6.06580707200720 -7.16016539793979  0.78975881918192
 1 -4.50003222062206 -6.88321819801980  1.10953382178218
 8 -7.81099399469947  6.82602263366337 -0.30739416781678
 1 -9.10195357915792  6.42223963966397 -1.72223069056906

