%nproc=3
%Mem=2GB
# td=(NStates=1) iop(3/107=0140000000,3/108=0140000000) iop(3/107=0140000000,3/108=0140000000) CAM-B3LYP/6-31G(d,p) 

TD

0 1
12 -5.60980671187119  1.22935296299630  0.14015668446845
 6 -5.02301242304230 -2.12754671937194 -0.28648171327133
 6 -3.41646310621062  1.10371291279128  2.81516295449545
 6 -6.12015843814381  4.64557258035804  0.67859022022202
 6 -7.86544746274627  1.19916859925993 -2.50842493639364
 7 -4.33408049254925 -0.27126304940494  1.07863803080308
 6 -4.18884410481048 -1.57834901630163  0.67413113161316
 6 -3.27278868056806 -2.34731593019302  1.55065065366537
 6 -3.00128428382838 -1.33925459515952  2.71677846444644
 6 -3.60829762976298 -0.03166231883188  2.17509816841684
 6 -3.48463057105711 -1.87064375697570  4.05981384078408
 6 -1.97302214551455 -2.64751874507451  0.64835902200220
 6 -0.94255201810181 -3.50521560946095  1.46327020392039
 6  0.31705757315732 -3.82772764486449  0.65263342444244
 8  0.42602645654565 -3.49836952575258 -0.43358337373737
 8  1.11806348854885 -4.72093723852385  1.30044603310331
 7 -4.83187173817382  2.60346058275828  1.40569725632563
 6 -3.88028211541154  2.38649666566657  2.38004323012301
 6 -3.70778131533153  3.67295737823782  3.13046199059906
 6 -4.44149990569057  4.68451691719172  2.48076396059606
 6 -5.21889125152515  3.94792946944694  1.40570572247225
 6 -2.84036266116612  3.72847993169317  4.26987085758576
 6 -4.66796949694969  6.09883991819182  2.94130956775678
 8 -4.09084157145715  6.66373120332033  3.87532150465046
 7 -6.76890854045404  2.63906183868387 -0.76375904360436
 6 -6.85158735653565  3.96274668016802 -0.39533773687369
 6 -7.88915405560556  4.65422647944794 -1.20182299139914
 6 -8.45160819361936  3.73872300240024 -2.07799235163516
 6 -7.75834964646465  2.46614478857886 -1.77171094089409
 6 -8.31305358405841  6.00446181588159 -1.09966110071007
 6 -9.41654813321332  3.91614255255526 -3.24080662926293
 6 -8.62795177587759  3.87171853495350 -4.56097934463446
 7 -6.38462422972297 -0.11405658585859 -1.15876689708971
 6 -7.26426003270327 -0.06671757735774 -2.17919384198420
 6 -7.57628074467447 -1.35224037673767 -2.61950497509751
 6 -6.60600608430843 -2.20206397969797 -2.03695290519052
 6 -5.98876680018002 -1.40857488698870 -0.98863672837284
 6 -8.53334870957096 -1.70401018961896 -3.83498441784178
 6 -6.22414604170417 -3.56523562956296 -1.99047444134413
 8 -6.62551579217922 -4.55488045814581 -2.62721296699670
 6 -5.15330558405841 -3.61146291299130 -0.82074869566957
 6 -5.50098722632263 -4.60427562916292  0.22858000900090
 8 -6.01171535413541 -4.49888582198220  1.31347846814681
 8 -5.04394435763576 -5.87087097119712 -0.16569074047405
 6 -5.45378872807281 -6.87245083618362  0.66730426522652
 6  2.37030371197120 -5.06373263346335  0.59518750005001
 6  3.44991830193019 -4.20165166446645  0.87799908570857
 6  4.09948905260526 -3.36200602150215  0.03324569956996
 6  3.83540843814381 -3.26500968936894 -1.44310197899790
 6  5.18033223922392 -2.49277354555456  0.55452730363036
 6  6.55415101980198 -2.74230918391839 -0.09184885898590
 6  7.58291741844184 -1.84050569636964  0.43439727432743
 6  9.00752936143614 -2.05980196219622 -0.19874658785879
 6  9.58845592569257 -3.45156505900590  0.16043916891689
 6  9.95836127172717 -0.90707132803280  0.28769673307331
 6  11.35464862216222 -1.00055285038504 -0.26454176477648
 6  12.33741136173617  0.13233242374237  0.27398818701870
 6  13.51755114921492  0.38927861476148 -0.62199195639564
 6  14.45916408940894 -0.78292902290229 -0.41490817601760
 6  14.24451438963896  1.74606937913791 -0.19657730013001
 6  15.46616589748975  2.15980791609161 -0.95478258595860
 6  15.99425904560456  3.53241575157516 -0.45384647764776
 6  17.14244863956396  4.09895881138114 -1.25373642144214
 6  16.87585656775678  4.28236379907991 -2.76673899389939
 6  17.81120453965396  5.51172929892989 -0.78107906490649
 1 -2.67591309720972  1.37173403700370  3.60205781698170
 1 -6.15721660456046  5.66784298649865  0.68558832153215
 1 -8.36405160426043  1.25468973047305 -3.41448682958296
 1 -3.85349241444144 -3.21208432513251  1.76008175027503
 1 -2.02719380538054 -1.08969657785779  2.64012617861786
 1 -2.71376070127013 -2.71435801670167  4.33396334223422
 1 -3.11073767386739 -1.12081419911991  4.84707084298430
 1 -4.54728640444044 -2.03212113011301  3.95639886248625
 1 -2.47678484408441 -3.16852989798980 -0.24725245984598
 1 -1.59754045374538 -1.64434306170617  0.39814065536554
 1 -0.56801119121912 -3.08712868516852  2.39448398949895
 1 -1.42093157175718 -4.47779461576158  1.66048508520852
 1 -1.93905255735574  3.32935762246225  4.04433681478148
 1 -2.72902055605561  4.88619825892589  4.49501516441644
 1 -3.34713464596460  3.37839103320332  5.19887686448645
 1 -5.39147300660066  6.82434041654165  2.54328644444444
 1 -10.05167915041504  3.00005715761576 -3.25692684728473
 1 -9.90487797069707  4.87084461896190 -3.27829082168217
 1 -9.13723948484848  4.23922182218222 -5.45804211481148
 1 -8.08468243424342  4.77211915251525 -4.56837651945195
 1 -8.05921619651965  3.09253356725673 -4.63511762646265
 1 -8.02053863546355 -1.27584084178418 -4.76555652465247
 1 -8.45412504040404 -2.91673873417342 -3.93751309520952
 1 -9.64078732783278 -1.49456609120912 -3.72278656375638
 1 -4.02847462346235 -4.01411723472347 -1.13537846794679
 1  2.67738568236824 -5.96339363246325  1.27405579347935
 1  2.04922824942494 -5.45250377677768 -0.29085452055205
 1  3.72828881128113 -4.40209033133313  1.97403576767677
 1  2.79459691159116 -3.89345089999000 -1.69053170327033
 1  3.69389672767277 -2.20181488208821 -1.68649686718672
 1  4.47651015841584 -3.87847970427043 -2.01814327162716
 1  4.89166303530353 -1.43749929452945  0.62295268636864
 1  5.26581894029403 -2.72691700890089  1.62772665896590
 1  7.01637085708571 -3.77511181068107  0.01972129382938
 1  6.45300413991399 -2.57258947494749 -1.12081176737674
 1  7.23562436403640 -0.70078663296330  0.19140789408941
 1  7.62344125432543 -1.94039228772877  1.47956542894289
 1  9.12338823842384 -1.78229627032703 -1.23470168886889
 1  8.64382654805481 -4.26615547544754 -0.03901637183718
 1  10.37759078847885 -3.55988934363436 -0.69542712461246
 1  10.03849059665967 -3.54895062366237  1.14751571457146
 1  9.55828688958896 -0.00303189278928 -0.19319014461446
 1  9.96483544214421 -0.99625794509451  1.40129106640664
 1  11.91482341344135 -1.94970229192919  0.00229092129213
 1  11.34933087328733 -0.79227086258626 -1.32195303900390
 1  11.77629764786479  1.16368944074407  0.35504829442944
 1  12.63920467916792 -0.14023273997400  1.19010818591859
 1  13.19207995029503  0.71761650445045 -1.53896010081008
 1  14.55075530273027 -0.86670968826883  0.53855895339534
 1  14.13493387988799 -1.67404058295830 -0.80701695579558
 1  15.38529838633863 -0.60552388008801 -0.87175957895790
 1  13.42080132573257  2.35516381558156 -0.46576645394539
 1  14.58334594679468  1.65616203070307  0.90472930023002
 1  16.21811053815381  1.33162862436244 -0.73872168716872
 1  15.18762355785578  2.06221447284728 -2.06989051995200
 1  15.24502596469647  4.25878908660866 -0.60392167216722
 1  16.16907654155415  3.29455541494149  0.63253571237124
 1  18.01614143094309  3.46899040754075 -1.10121450935093
 1  16.15627276407641  4.97507478637864 -2.80405468436844
 1  17.80239262916292  4.67989438263826 -3.17589502310231
 1  16.67433211851185  3.37659257045705 -3.16396694989499
 1  18.09985785978598  5.31862251525153  0.23073223892389
 1  18.65821343214321  5.89027525402540 -1.44269641074107
 1  16.95384795459546  6.20211462156216 -0.81061941404140
 1 -5.29198708330833 -7.90008110751075  0.28206389038904
 1 -6.46111660296030 -6.69636901830183  1.07456730003000
 1 -4.63024524192419 -6.91153102930293  1.61534440284028
 8 -7.78916181148115  6.85202523392339 -0.34590801920192
 1 -9.17875125892589  6.32283969966997 -1.82032049954996

