%nproc=3
%Mem=2GB
# td=(NStates=1) iop(3/107=0140000000,3/108=0140000000) iop(3/107=0140000000,3/108=0140000000) CAM-B3LYP/6-31G(d,p) 

TD

0 1
12 -5.63852958415842  1.18879890759076  0.13675634443444
 6 -5.11471159295930 -2.14488845354535 -0.32855592069207
 6 -3.40168162806281  1.03590613211321  2.75054649284928
 6 -6.20327674997500  4.64363238633863  0.58641100230023
 6 -8.15367628562856  1.16303498589859 -2.37990208410841
 7 -4.36028311281128 -0.23700962406241  1.02400256725673
 6 -4.26908212861286 -1.61142232363236  0.67250096859686
 6 -3.27227862956296 -2.35081628022802  1.34364995359536
 6 -2.87191134653465 -1.39174984468447  2.60019680628063
 6 -3.53354015401540 -0.10265941854185  2.14367502610261
 6 -3.40225233323332 -1.77783447604760  4.00530839023902
 6 -2.02523736703670 -2.68679267246725  0.54678886498650
 6 -0.96490425332533 -3.56404149204921  1.33557743464346
 6  0.25829169656966 -3.81965683778378  0.58771693279328
 8  0.48416227012701 -3.40451013981398 -0.60587060246025
 8  1.10016169836984 -4.66846199099910  1.29266525502550
 7 -4.86319487048705  2.63584382108211  1.30471715831583
 6 -4.01139522672267  2.40942895889589  2.40857608340834
 6 -3.80262079927993  3.60602068456846  3.20687963236324
 6 -4.52219797549755  4.56213467896790  2.60741662586259
 6 -5.22390175257526  3.94024870137014  1.44553970587059
 6 -2.82449107400740  3.82944002770277  4.35718958945895
 6 -4.61216391639164  6.01160119431943  2.85121055785579
 8 -4.02785527282728  6.64155898609861  3.71135510801080
 7 -6.88370001960196  2.58342627512751 -0.80161282898290
 6 -7.00947314511451  3.93908431393139 -0.37754595769577
 6 -8.05318045824582  4.55891694849485 -1.21529433853385
 6 -8.58555158795880  3.60954008410841 -1.96901145354535
 6 -7.85990980248025  2.42797097119712 -1.72189595939594
 6 -8.45548782748275  5.95960733043304 -1.08832996759676
 6 -9.70086656505651  3.74313525182518 -3.02238478707871
 6 -9.00067904860486  3.92785414851485 -4.47997124382438
 7 -6.34460022732273 -0.08071325152515 -1.12709372977298
 6 -7.43186679337934 -0.01598250385038 -2.08851477407741
 6 -7.65739885648565 -1.31230638333833 -2.72572559715972
 6 -6.80331581528153 -2.13978775207521 -2.08192740264026
 6 -6.05069299279928 -1.33459748924892 -1.12055992069207
 6 -8.66413178787879 -1.62832262086209 -3.77354827422742
 6 -6.25775940304030 -3.55097420342034 -2.01308670257026
 8 -6.60501374197420 -4.47902287238724 -2.63296354205421
 6 -5.10447070057006 -3.54607637433743 -0.91954857565757
 6 -5.50340746834683 -4.60872607420742  0.18100525152515
 8 -6.08596277887789 -4.41861779517952  1.22374949524952
 8 -5.13812377557756 -5.86344022812281 -0.29713388478848
 6 -5.39278262746275 -7.01569516061606  0.57843537833783
 6  2.43556023762376 -5.07795405560556  0.73512149344935
 6  3.48302161226123 -4.05871737103710  0.98475976177618
 6  4.18138724242424 -3.24160398129813  0.20621299629963
 6  3.76879177647765 -3.09559274767477 -1.22744041284128
 6  5.24253845984598 -2.21007527572757  0.75211706260626
 6  6.68137374207421 -2.57392234523452  0.11347167306731
 6  7.80233936063606 -1.59636128192819  0.61049488408841
 6  9.12388099659966 -1.94831081308131 -0.09884659785979
 6  9.60584766486649 -3.37530743324332  0.11778490349035
 6  10.10655609120912 -0.88598921982198  0.36369433283328
 6  11.55981913921392 -1.00852364746475 -0.17277258785879
 6  12.36741436203620  0.30041923242324  0.14377516571657
 6  13.70738013211321  0.34578426532653 -0.54023378057806
 6  14.60672884588459 -0.78750948094809 -0.24560124532453
 6  14.39873981218122  1.73898867106711 -0.25415305770577
 6  15.57848712961296  2.07190912621262 -0.96770387808781
 6  16.19114873457346  3.47162967296730 -0.60813190619062
 6  17.44065846054605  3.93563247874788 -1.36447749554955
 6  17.33172215431543  3.94995055775578 -2.86173849384938
 6  18.00261368056806  5.19467759375938 -0.69709066606661
 1 -2.80448595449545  0.98622548614862  3.60451806300630
 1 -6.44898578147815  5.76563276547655  0.67609737243724
 1 -8.95815101420142  1.32886714821482 -3.16417179807981
 1 -3.42086915211521 -3.47527064376438  1.61331707380738
 1 -1.74428551455146 -1.33601120932093  2.67324949094909
 1 -3.15971529672967 -2.78291487238724  4.29562950885088
 1 -3.06540314041404 -1.16305842354235  4.63301943784379
 1 -4.47971964776478 -1.81027894589459  4.07431065366537
 1 -2.30712787838784 -3.36553959895990 -0.29172690729073
 1 -1.44962566226623 -1.78233686108611  0.13549439073907
 1 -0.78870326042604 -3.04792476477648  2.46654119521952
 1 -1.47772725132513 -4.51958879517952  1.81201023772377
 1 -1.73648230033003  3.77634232093209  3.96973935503550
 1 -2.97672532653265  4.89370901000100  4.64361002390239
 1 -3.08191812431243  3.13036623072307  5.29155613241324
 1 -5.30928478777878  6.51582956545654  2.20929304510451
 1 -10.36618060056005  3.05179233113311 -2.99526068066807
 1 -10.14402188508851  4.70802833733373 -2.73038603120312
 1 -10.00674643554355  3.81451935193519 -5.11456776737674
 1 -8.30181414741474  4.83293523412341 -4.51384106590659
 1 -8.50324059895990  3.04106842074207 -4.95232934763476
 1 -8.41233781538154 -1.12939619731973 -4.77053702270227
 1 -8.67893752165216 -2.48997605790579 -4.06597594149415
 1 -9.60709395849585 -1.39655629022902 -3.53266755185519
 1 -4.10737251325132 -3.69133495649565 -1.35394032413241
 1  2.76389433323332 -6.24081137423742  1.05895428332833
 1  2.45201852845285 -5.26859538593859 -0.47248268336834
 1  3.99340532293229 -4.10790091239124  2.09424778887889
 1  2.81327877977798 -3.20223177807781 -1.15179782988299
 1  4.06661399939994 -2.18096279687969 -1.66007422492249
 1  4.33833634103410 -3.76732858915892 -2.01981343864386
 1  4.95101897089709 -1.11192673727373  0.46686707780778
 1  5.22194455285529 -2.23226754395440  1.84464835113511
 1  6.82090131013101 -3.58857315681568  0.41904122582258
 1  6.56654549404940 -2.63296551255126 -1.03105279147915
 1  7.58684948654865 -0.55637219151915  0.40295904920492
 1  7.69775868606861 -1.76536478497850  1.79527700010001
 1  9.01728762836284 -1.80333837453745 -1.22972119081908
 1  8.77216938233823 -4.14267312721272 -0.15858832903290
 1  10.17476050545054 -3.79196255095510 -0.90994857675768
 1  10.09636638423842 -3.59253498209821  1.13268423142314
 1  9.63443450435043  0.03080149054905  0.34766394079408
 1  10.43004196279628 -1.04045236453645  1.45875681298130
 1  12.13510544164416 -1.87460478217822  0.06901759395940
 1  11.58139407960796 -1.12927456295630 -1.34430527422742
 1  11.79300931903190  1.27387045884589 -0.19022623302330
 1  12.45040579927993  0.16980826412641  1.24386356145615
 1  13.30995173747375  0.61897664046405 -1.70834703950395
 1  14.75133536073607 -0.38099111641164  0.88984408190819
 1  14.40460084658466 -1.75071825072507 -0.47289354345435
 1  15.56977683418342 -0.67404073177318 -0.67823022602260
 1  13.65381462706271  2.30144844404440 -0.40197007430743
 1  14.52381999419942  2.01297771227123  0.87322614991499
 1  16.40178890599060  1.38400386188619 -0.71123893889389
 1  15.49291408690869  1.97117536893689 -1.97392092299230
 1  15.47427888998900  4.37691089878988 -0.68248952895290
 1  16.49585921982198  3.30298625802580  0.43706616541654
 1  18.33812362916292  3.28085159365937 -1.14249863776378
 1  16.54507164396439  4.68370564946495 -3.18465274417442
 1  18.20553294319432  4.17677407060706 -3.31170860446045
 1  17.10028471377138  3.07569248044804 -3.34462501570157
 1  18.32196007000700  4.67450810381038  0.29151831753175
 1  18.78958656945695  5.45849207570757 -1.29148128922892
 1  17.15704827462746  5.99749415951595 -0.84096244834484
 1 -4.78890677527753 -7.96767786718672  0.17505318931893
 1 -6.48751924322432 -7.06672605400540  0.91858170147015
 1 -4.77865008240824 -6.63213308950895  1.48258112651265
 8 -7.92542543784378  6.75898592999300 -0.28332176057606
 1 -8.98160154395440  6.44320173587359 -2.03098156565657

