%nproc=3
%Mem=2GB
# td=(NStates=1) iop(3/107=0140000000,3/108=0140000000) iop(3/107=0140000000,3/108=0140000000) CAM-B3LYP/6-31G(d,p) 

TD

0 1
12 -5.56207193839384  1.21831185888589  0.16105877467747
 6 -5.00324044584458 -2.09132309700970 -0.39398246334633
 6 -3.35350681058106  1.19031157265727  2.70875231343134
 6 -6.13281970427043  4.64951297439744  0.63750611181118
 6 -8.03205412341234  1.17939662206221 -2.28903299719972
 7 -4.38887597209721 -0.26287221032103  1.00379054605461
 6 -4.31808702910291 -1.54364554595460  0.67550126862686
 6 -3.22212361406141 -2.34579577817782  1.55643123172317
 6 -2.87947210261026 -1.30750141984198  2.58348513511351
 6 -3.60674747474747 -0.05363451605161  2.13778443704370
 6 -3.41128323632363 -1.68256494909491  4.00004786418642
 6 -2.03581842514251 -2.66156014921492  0.68257244334433
 6 -1.13540130303030 -3.64570965886589  1.45054893179318
 6  0.21099696709671 -3.96582145424542  0.64218237933793
 8  0.40813466736674 -3.66890657945795 -0.54953496889689
 8  0.98025970817082 -4.77738288308831  1.44905089358936
 7 -4.90784933593359  2.60166040274027  1.47920460706071
 6 -4.04541862906291  2.40455847184719  2.49294452025203
 6 -3.77530806800680  3.61339142164216  3.14318326272627
 6 -4.56240199589959  4.56170463596360  2.63070895509551
 6 -5.19195855825583  3.93661833833383  1.46115126702670
 6 -2.95392401730173  3.79683676737674  4.44069794029403
 6 -4.54714741474147  5.98929896409641  3.01388682548255
 8 -3.96450893819382  6.58262309250925  3.89816378887889
 7 -6.91728337793779  2.60297823032303 -0.66007867556756
 6 -6.85213741154115  3.98449885538554 -0.40376857995800
 6 -7.98914405460546  4.64382543934393 -1.21358416751675
 6 -8.38661169396940  3.65151428152815 -2.11146569896990
 6 -7.77679149064907  2.42082025612561 -1.70876464626463
 6 -8.36881916061606  6.05992736243624 -1.27881901650165
 6 -9.39042552095210  3.72444338263826 -3.16642919151915
 6 -8.70699968066807  3.84437580068007 -4.53112635933593
 7 -6.42649841714171 -0.07564274447445 -1.09140016041604
 6 -7.41381498819882  0.00636973137314 -2.06048197079708
 6 -7.46835995259526 -1.28601375407541 -2.83201622622262
 6 -6.66726220992099 -2.06510028332833 -2.02782199209921
 6 -5.98132605610561 -1.39620364986499 -1.07556542124212
 6 -8.56670204490449 -1.56565635423542 -3.86489740914091
 6 -6.18978260536054 -3.51112021802180 -2.00124551845184
 8 -6.42300554115412 -4.49932490259026 -2.69550979667967
 6 -4.96549680318032 -3.47307907460746 -0.97417403820382
 6 -5.26584371197120 -4.67021222282228  0.09239639063906
 8 -5.77692187478748 -4.47537347074707  1.19901702200220
 8 -4.94253421662166 -5.85030891499150 -0.31440561196120
 6 -5.28048139733973 -7.09209280038004  0.43055058985899
 6  2.33532021362136 -5.13349961016102  0.93144112541254
 6  3.36128943904390 -4.07422892219222  1.15992727852785
 6  4.09569867356736 -3.28624844574457  0.26462883788379
 6  3.74276917421742 -3.20583377177718 -1.20441811061106
 6  5.23391759775978 -2.39550381858186  0.68073992489249
 6  6.52904850955095 -2.66884183718372  0.01579190509051
 6  7.70197932463246 -1.73546519231923  0.53843767836784
 6  9.13046165466547 -2.00201618361836 -0.07961467466747
 6  9.47966504660466 -3.43634353685369 -0.05205208020802
 6  10.02216765236524 -0.95645626652665  0.49089705310531
 6  11.22139529682968 -0.74169696479648 -0.42983829442944
 6  12.10383800440044  0.26811600210021  0.13482427062706
 6  13.43595298939894  0.54094378127813 -0.59379913711371
 6  14.29498767176718 -0.66242697269727 -0.35045173037304
 6  14.16932687088709  1.78669344154415 -0.21082872527253
 6  15.39140842174217  2.24487642294229 -0.99310641834183
 6  16.02526214591459  3.54530704070407 -0.68289938293829
 6  17.40821521622162  3.90579949544954 -1.38876992479248
 6  17.30198918101810  3.99731529422942 -2.91836415641564
 6  18.07888130733073  5.15397352335234 -0.75695665266527
 1 -2.71667717361736  1.07975483908391  3.81305891709171
 1 -6.23112399529953  5.67590379257926  0.56753651635164
 1 -8.78284348344834  1.21123538503850 -3.21900728162816
 1 -3.65136220142014 -3.32158527522752  1.99059480158016
 1 -1.74676576257626 -1.01206881508151  2.70670283628363
 1 -3.10313963916392 -2.59357593849385  4.44132407830783
 1 -3.06906350645065 -0.86218833653365  4.66531266716672
 1 -4.56971864766477 -1.81847976597660  3.93015623822382
 1 -2.47557472307231 -3.19080212521252 -0.14347208180818
 1 -1.59750044974497 -1.63385201260126  0.44734557585759
 1 -0.78142253235323 -3.37072704500450  2.53115765686569
 1 -1.62887236583658 -4.57150398669867  1.42786182288229
 1 -1.72598125022502  3.60901558825883  4.45479786088609
 1 -3.14988264226423  4.88336797589759  4.74570023292329
 1 -3.28820875337534  3.20620381448145  5.37139411621162
 1 -5.22136599589959  6.58891687418742  2.29200131593159
 1 -10.13667765026503  2.91955910781078 -3.11648280288029
 1 -9.90557804070407  4.70357789228923 -3.11817481008101
 1 -9.43564932583258  4.35656355635564 -5.35433174377438
 1 -7.96363032903290  4.59787172777278 -4.53649333113311
 1 -8.34007428232823  2.88373268716872 -4.94052816751675
 1 -8.49041562316232 -1.02573583128313 -4.85860582958296
 1 -8.53505313321332 -2.68765582588259 -4.32059140304030
 1 -9.61191444054405 -1.60369700430043 -3.38070235533553
 1 -4.08650042604260 -3.94756057905791 -1.48454338443844
 1  2.51422936673667 -6.16194348744874  1.36444483238324
 1  2.17395072167217 -5.23160168656866 -0.18497393249325
 1  3.74498048044804 -3.92252237453745  2.12293065716572
 1  2.82409986188619 -3.57813936883688 -1.37182983308331
 1  3.81466880488049 -2.17510221082108 -1.53227144464446
 1  4.37154966236624 -3.93687554385439 -1.75126658395840
 1  5.00616448544855 -1.41561710631063  0.46019641074107
 1  5.45846820522052 -2.34428874607461  1.71497538383838
 1  6.72196141614161 -3.72094639413941 -0.08509918821882
 1  6.44768360786079 -2.28192040804080 -1.07320700690069
 1  7.45527632923292 -0.77183373767377  0.28186693999400
 1  7.89447835803580 -2.03234148264827  1.44851232363236
 1  9.20156605620562 -1.75287332803280 -1.26673489218922
 1  8.80681284668467 -3.93613247314731 -0.69905237543754
 1  10.51083411281128 -3.64042739743974 -0.31179876177618
 1  9.54590133773377 -3.97853358195820  1.04039500250025
 1  9.44482554345434  0.12020043044304  0.43960313471347
 1  10.20601956055606 -0.92930124942494  1.47221815911591
 1  12.02504443554355 -1.69854717641764 -0.53105241304130
 1  10.90688662886289 -0.48400003550355 -1.52288313201320
 1  11.67205722382238  1.28641171297130  0.27684047364736
 1  12.33504426312631 -0.06455517221722  1.25177435253525
 1  13.23706444874487  0.76771151395139 -1.72550875567557
 1  14.67710793799380 -0.83076609390939  0.70079517701770
 1  13.88743913041304 -1.60938411731173 -0.79656591069107
 1  15.33383323982398 -0.47110043774378 -1.12383478647865
 1  13.32340158575857  2.65497379657966 -0.20417029432943
 1  14.17989560176018  1.73404981948195  0.69282811011101
 1  16.00671939903990  1.42042750425043 -0.74759257425743
 1  15.20389518501850  2.11568982038204 -2.18202173307331
 1  15.29588105020502  4.39977318501850 -0.72284356435644
 1  16.28997863176317  3.59858581798180  0.33050550935093
 1  18.04162397919792  3.04928843734373 -1.15613000090009
 1  16.55745288208821  4.74026130503050 -3.20515479437944
 1  18.24777716761676  4.44991138433843 -3.23251068466847
 1  17.27556224152415  3.02701761296130 -3.55359591279128
 1  18.34148202220222  4.98535918891889  0.37439660536054
 1  19.10160777157716  5.41005723222322 -1.11316345744574
 1  17.46893946374637  6.07000141024102 -0.90354870697070
 1 -4.86688457305731 -7.86545764516452 -0.14408872487249
 1 -6.43760425172517 -7.21646102750275  0.48041788508851
 1 -4.76516873427343 -7.05069494569457  1.31351421982198
 8 -7.90558345364536  6.89939997139714 -0.46885031343134
 1 -8.93185656945695  6.24471188688869 -2.03148161566157

