%nproc=3
%Mem=2GB
# td=(NStates=1) iop(3/107=0140000000,3/108=0140000000) iop(3/107=0140000000,3/108=0140000000) CAM-B3LYP/6-31G(d,p) 

TD

0 1
12 -5.61192692389239  1.27317734543454  0.11760442924292
 6 -5.02624274607461 -2.11490545524552 -0.36308937403740
 6 -3.44498595849585  1.18621116261626  2.74425586378638
 6 -6.34250067236724  4.45649367246725  0.69556191739174
 6 -7.90252117011701  1.12626130853085 -2.37185127902790
 7 -4.34933201770177 -0.27761368446845  0.98794896189619
 6 -4.24470969136914 -1.57498868026803  0.67054077257726
 6 -3.17955935763576 -2.37538873747375  1.47008259685969
 6 -2.95761991739174 -1.31233190289029  2.72030881748175
 6 -3.62190899089909 -0.06719587218722  2.13871453005301
 6 -3.73582569056906 -1.72685937853785  4.03704156355636
 6 -1.91570641394139 -2.52455644884488  0.64975916201620
 6 -0.98647641054105 -3.53048813671367  1.39628350525052
 6  0.27532339973997 -3.74689956205621  0.61983014411441
 8  0.42057591149115 -3.38142783158316 -0.53476349174918
 8  1.11533321552155 -4.62025717051705  1.26152214071407
 7 -4.98843739473947  2.60863109980998  1.47402408900890
 6 -4.09067315451545  2.39643765976598  2.49924515031503
 6 -3.81486202340234  3.67808789128913  3.22577152155216
 6 -4.74373012871287  4.53058152365236  2.64760064426443
 6 -5.31978134053405  3.93137781428143  1.48669382128213
 6 -2.95566419131913  3.73514059775978  4.32389626012601
 6 -5.02905560556056  5.94207424162416  3.09302473927393
 8 -4.48411089838984  6.47462229242924  3.99573354585459
 7 -6.88788043764376  2.56215414791479 -0.71300396809681
 6 -7.00223242104210  3.90798120362036 -0.39886808990899
 6 -7.91186632683268  4.63890494729473 -1.31782459155916
 6 -8.42320535333533  3.62431156125613 -2.09974452685269
 6 -7.75418923042304  2.33410158425843 -1.74924869466947
 6 -8.16307858655866  6.04090546024602 -1.32886402100210
 6 -9.46155263366337  3.71231216951695 -3.17976052465247
 6 -8.87574655535554  4.11701306440644 -4.56471971867187
 7 -6.35695146244624 -0.09426460666067 -1.10787180758076
 6 -7.35875948264826 -0.00656156175618 -2.07455337793779
 6 -7.53534665126513 -1.27329248194819 -2.62449547414742
 6 -6.74146963066307 -2.19091286458646 -1.98615782568257
 6 -5.86782470597060 -1.48495252475248 -1.12572043674367
 6 -8.62167754245425 -1.55028481708171 -3.66838775817582
 6 -6.22023565066507 -3.58349745574557 -1.98388378227823
 8 -6.52413565416542 -4.61373634373437 -2.71316156185619
 6 -5.03465371887189 -3.54040580728073 -0.85612223302330
 6 -5.25261238883888 -4.64848004960496  0.13724087508751
 8 -5.66217039963996 -4.44735066846685  1.28176529682968
 8 -4.94941490469047 -5.77948183228323 -0.37107127852785
 6 -5.36682003120312 -6.93103669476948  0.62087962276228
 6  2.30245692729273 -5.03785004520452  0.70209819111911
 6  3.40947425752575 -4.04023552285229  0.99584086988699
 6  4.11253035673567 -3.25158497939794  0.21899427442744
 6  3.72645754305431 -3.13483667206721 -1.35266293509351
 6  5.13441764776478 -2.30726499469947  0.63100495139514
 6  6.54307991269127 -2.67880283328333 -0.00887056115612
 6  7.65713484018402 -1.77309895569557  0.56383021762176
 6  8.95414402290229 -1.88891487348735 -0.08338505170517
 6  9.57321440154015 -3.31221112361236  0.02494561956196
 6  10.13309874547455 -0.97146776767677  0.47766572997300
 6  11.38746190349035 -0.96213900900090 -0.28024333493349
 6  12.33747136773677  0.17561675217522  0.20207099529953
 6  13.74549394349435  0.39133882078208 -0.53373313051305
 6  14.58652682568257 -0.76677740774077 -0.31763844904490
 6  14.36488642684268  1.79973474567457 -0.15011265366537
 6  15.51292057295730  2.07047898319832 -1.08682579027903
 6  16.18812843254325  3.51400391039104 -0.78942003500350
 6  17.53095749044904  3.84519343484348 -1.41285233303330
 6  17.33348233033303  3.98878444114411 -2.84080640064006
 6  18.24565798499850  5.17387551355136 -0.89680063706371
 1 -2.94730023592359  1.27368423202320  3.76395400660066
 1 -6.41443232613261  5.41602780498050  0.76445620832083
 1 -8.52107730683068  1.03127738923892 -3.23346872777278
 1 -3.79602666786679 -3.25813893059306  1.86615235733573
 1 -1.78896998299830 -1.27953556175618  2.91385355135514
 1 -3.51031035623562 -2.67225380628063  4.27437738363836
 1 -3.51546814691469 -0.97998011571157  4.88440457635764
 1 -4.78967064286429 -1.67781569956996  3.87967118971897
 1 -2.36671383698370 -2.80723376837684 -0.39174690929093
 1 -1.35390609030903 -1.50971959935994  0.64370521182118
 1 -0.56806119621962 -3.23545351765177  2.36414095519552
 1 -1.64324380298030 -4.49904674097410  1.59786882358236
 1 -1.99253790589059  3.32068675537554  4.03014539563956
 1 -2.76862451645164  4.90129976907691  4.54106976987699
 1 -3.03188312081208  3.00286348044804  5.16122309910991
 1 -5.81935579487949  6.56041402390239  2.64905702150215
 1 -10.16160014251425  2.76434358625863 -3.23076423102310
 1 -10.30558804170417  4.58655619011901 -3.00543353595360
 1 -9.56245200610061  3.95886378637864 -5.32068837943794
 1 -8.38293225922592  5.14557649824982 -4.49057873967397
 1 -8.01066134103410  3.25973028692869 -4.70420453515352
 1 -8.66522310391039 -0.83201645934593 -4.61280124912491
 1 -8.55638526642664 -2.56486354665466 -3.94451379527953
 1 -9.66421967106711 -1.36204283888389 -3.06326061116112
 1 -3.97485926192619 -3.65779160216022 -1.34723965406541
 1  2.44213215701570 -5.94623191629163  1.24471285918592
 1  2.14554788138814 -5.34992351875188 -0.37815325042504
 1  3.44208019041904 -3.89766988928893  2.11427979207921
 1  2.56658411031103 -3.32691424632463 -1.51772442254225
 1  4.02449978797880 -2.11110581118112 -1.84133235073507
 1  4.30466297369737 -3.92705456175618 -1.99326078337834
 1  4.90038390739074 -1.37680322492249  0.12171256235624
 1  5.48908126652665 -2.34441875907591  1.70704459075908
 1  7.04201342134213 -3.76998129762976  0.16830615231523
 1  6.60306914641464 -2.74454667066707 -1.16936662286229
 1  7.42452325392539 -0.74780133443344  0.43267202050205
 1  7.71414032423242 -2.13008125662566  1.70052752515252
 1  8.79644554415442 -1.65870391109111 -1.27042526122612
 1  8.80780294569457 -4.15674453435344 -0.30640311051105
 1  10.56870990039004 -3.43486684138414 -0.55301288318832
 1  9.64113086068607 -3.73180890949095  1.04162512551255
 1  9.77750881178118 -0.02253384298430  0.56863603800380
 1  10.51166012461246 -1.25045336463646  1.57230816811681
 1  12.08292022312231 -2.00833815551555 -0.17938724652465
 1  11.16926286648665 -0.95220685618562 -1.43745458915892
 1  11.56239625772577  1.11855492729273  0.30346313591359
 1  12.64383514221422 -0.29197791449145  1.26450562566257
 1  13.27031777407741  0.30936567936794 -1.54857106190619
 1  14.77426765396540 -0.86809982728273  0.77721281878188
 1  14.18875926242624 -1.69159233813381 -0.60877713181318
 1  15.44347420392039 -0.66937026472647 -0.80628303130313
 1  13.66660590619062  2.81178947814781 -0.38533841114111
 1  14.70440805300530  1.63891030553055  0.93955278257826
 1  16.42910163726372  1.41581704320432 -0.76702451745175
 1  15.32248704420442  1.72913116451645 -2.03567709860986
 1  15.56692815491549  4.35080828852885 -0.89850113011301
 1  16.16656629052905  3.37288324772477  0.41001346014602
 1  18.26760657745775  3.06131964046405 -1.44403879177918
 1  16.77356449324932  5.02251953085309 -3.27910218911891
 1  18.31057344724472  4.17787418061806 -3.39891732533253
 1  16.62000668596859  3.23062797399740 -3.34677523072307
 1  18.58092596659666  5.03655430843084  0.28733789948995
 1  18.91967957875788  5.56753297979798 -1.71884402550255
 1  17.62003457325732  6.08624303440344 -0.81386973907391
 1 -5.11623950855085 -7.88155925532553  0.20844652865287
 1 -6.43953444474447 -6.68116749814982  0.58431827512751
 1 -4.97568978637864 -6.63674355055506  1.60670353875388
 8 -7.83366626192619  6.82326235763576 -0.45614904330433
 1 -8.68459184298430  6.46558397409741 -2.31711017851785

