%nproc=3
%Mem=2GB
# td=(NStates=1) iop(3/107=0140000000,3/108=0140000000) iop(3/107=0140000000,3/108=0140000000) CAM-B3LYP/6-31G(d,p) 

TD

0 1
12 -5.62644837603760  1.20126015371537  0.22180484928493
 6 -5.14800492229223 -2.17718168286829 -0.35188825392539
 6 -3.34041550145015  1.15696823832383  2.82183362156216
 6 -6.14553097539754  4.53868189128913  0.59526188738874
 6 -7.95132605060506  1.17806648904890 -2.41414550845084
 7 -4.33967105160516 -0.28548447154715  0.97989815681568
 6 -4.32238745914591 -1.62276345774577  0.65725944444444
 6 -3.26090749244924 -2.41876307490749  1.41895748434843
 6 -2.93194735013501 -1.35257592729273  2.56603338993899
 6 -3.56677347734773 -0.07208636123612  2.17986864546455
 6 -3.39919202720272 -1.84358105070507  3.96929478887889
 6 -2.06769161246125 -2.71346533973397  0.60061424752475
 6 -1.05493325622562 -3.66291137903790  1.36919079597960
 6  0.33927979537954 -3.83672854495450  0.50797895899590
 8  0.56014986888689 -3.25372506130613 -0.50697071247125
 8  1.04455613781378 -4.69313445824582  1.20142613111311
 7 -4.83292184318432  2.65150538723872  1.46949363596360
 6 -3.96214030123012  2.35698371437144  2.46284150995099
 6 -3.77815835303530  3.60672075457546  3.14381332573257
 6 -4.51913766946695  4.67133559905991  2.53771965616562
 6 -5.24026338873887  3.92823750025002  1.45997114901490
 6 -2.75265389028903  3.83281036473647  4.36024989548955
 6 -4.61052375237524  5.97302733693369  2.92245768256826
 8 -3.99748223552355  6.53016784698470  3.87809178167817
 7 -6.89012066166617  2.62214014651465 -0.62494516221622
 6 -6.91093329112911  3.86452685818582 -0.33419162226223
 6 -7.78050319051905  4.63721477827783 -1.29105191429143
 6 -8.33548658145815  3.64448357845785 -2.11261581398140
 6 -7.74958877037704  2.38919709380938 -1.64045781558156
 6 -8.17543982268227  6.01160252995300 -1.31854298889889
 6 -9.24773125152515  3.79094003230323 -3.21303385198520
 6 -8.81737071777178  4.07454881798180 -4.62047529422942
 7 -6.42494826212621 -0.12370755095510 -1.06391741214121
 6 -7.42968657535754 -0.06106701230123 -1.99227515011501
 6 -7.63032614921492 -1.34456960966097 -2.58259128372837
 6 -6.75830131383138 -2.23013678697870 -2.04792400230023
 6 -6.07598552205221 -1.47176120562056 -1.00856872157216
 6 -8.61201657635764 -1.50878066666667 -3.80040095949595
 6 -6.40510413751375 -3.58523762976298 -1.99216461036104
 8 -6.79034227482748 -4.57502247234723 -2.63650389608961
 6 -5.24655490899090 -3.63122488918892 -0.89453607440744
 6 -5.48563569116912 -4.62086728832883  0.15659281028103
 8 -5.77267144974497 -4.41942787618762  1.35175229552955
 8 -5.13717368056806 -5.78479236333633 -0.28743291469147
 6 -5.27165051425142 -6.96389998109811  0.55163269806981
 6  2.38144482608261 -5.01137739793979  0.54270225152515
 6  3.45546885698570 -4.11121262056206  1.00257154295430
 6  4.04089319301930 -3.24186400730073  0.17203957895790
 6  3.71635653295330 -3.08188137653765 -1.18227589638964
 6  5.21552575857586 -2.36458072627263  0.70961281218122
 6  6.65107071177118 -2.65448040104010 -0.04695436953695
 6  7.74316344304430 -1.87340898669867  0.63362719731973
 6  9.12467107560756 -1.95021100310031 -0.00575728892889
 6  9.52601968206821 -3.43740364286429  0.11066419141914
 6  10.12592802840284 -0.98186880778078  0.55910387378738
 6  11.42433559085909 -1.01259405450545 -0.23362867346735
 6  12.36649427002700  0.22940213071307  0.25578636683668
 6  13.61040043414341  0.42354204110411 -0.67517727492749
 6  14.72352052505251 -0.79164989498950 -0.41383806900690
 6  14.18090802900290  1.70354512671267 -0.21508915131513
 6  15.38471775267527  2.17911984728473 -1.05924303200320
 6  16.00936055575557  3.57667017701770 -0.70291138413841
 6  17.27332172687269  4.03857277277728 -1.33880492829283
 6  17.02953193529353  4.16382194489449 -2.81717403740374
 6  17.81329474867487  5.36307443344334 -0.69964092109211
 1 -2.76563206910691  0.99591645524552  3.73180079127913
 1 -6.33046392929293  5.62611881408141  0.43533329602960
 1 -8.80444564366437  1.13796805830583 -3.29441482238224
 1 -3.89502656785679 -3.30136325302530  1.75074081618162
 1 -1.93829491549155 -1.08441604980498  2.54687685368537
 1 -2.71669099429943 -2.51910849174918  4.58157810371037
 1 -3.10862746284628 -1.10131224892489  4.66738287418742
 1 -4.36406808260826 -2.02699061706171  3.87657087968797
 1 -2.43963112871287 -3.22903594859486 -0.33271100570057
 1 -1.38138883858386 -1.86862548994899  0.49653049434943
 1 -0.80017440754075 -3.14414438673867  2.28772331343134
 1 -1.43786326492649 -4.72542937923792  1.74190322702270
 1 -1.69915856795680  3.74107879457946  4.11116349744974
 1 -2.90233788778878  4.93883352245224  4.55085074797480
 1 -2.93604353685369  3.05930912501250  5.18798577537754
 1 -5.55100896019602  6.62484046654665  2.64995711151115
 1 -10.09973395589559  2.98938609050905 -3.41517267186719
 1 -9.87781526442644  4.62702023652365 -2.96269926252625
 1 -9.51188694959496  3.96708460846085 -5.20941725232523
 1 -8.12854682068207  4.85082702330233 -4.72103178497850
 1 -8.37901817671767  3.24454876877688 -4.97361147584758
 1 -8.15332191379138 -0.91189444714471 -4.68379834883488
 1 -8.70876050395039 -2.71056811711171 -3.93891323522352
 1 -9.72955620472047 -1.07048368296830 -3.82372665776578
 1 -4.43885566156616 -3.95859168216822 -1.41140607070707
 1  2.42992093589359 -6.11232852595260  0.75621400930093
 1  2.01545487208721 -5.00334886128613 -0.51471690679068
 1  3.66881286368637 -4.25175529782978  2.05658402250225
 1  2.53830128202820 -3.05225678057806 -1.60254290439044
 1  4.15842318031803 -2.04661936253625 -1.69698791629163
 1  4.15533804120412 -3.81166302260226 -1.59319077637764
 1  5.02105597459746 -1.37292283688369  0.49601999309931
 1  5.59551190959096 -2.41435575277528  1.81120500680068
 1  6.89797901790179 -3.77692199169917  0.07723704540454
 1  6.55601444094409 -2.49149136513651 -1.14598428462846
 1  7.19805060666067 -0.91458801310131  0.67311606490649
 1  7.96175508570857 -2.07659590809081  1.75383285568557
 1  8.87724362396240 -1.64457249794979 -0.97883610231023
 1  8.71960412581258 -4.09757861776178 -0.15776824702470
 1  10.67841087048705 -3.55538889358936 -0.28409599149915
 1  9.67005375297530 -3.66085181378138  1.19588055105511
 1  9.67821888278828 -0.10512210181018  0.53996317071707
 1  9.99667862646265 -1.21245956525653  1.66720765806581
 1  11.86399833093309 -1.95109243094309 -0.14012332013201
 1  11.20662660286029 -0.62735437093709 -1.17516836053605
 1  11.95311532963296  1.09010208200820  0.32965575517552
 1  12.81927268596860  0.28219950325033  1.25136431153115
 1  13.32308305060506  0.33366810961096 -1.71513771857186
 1  14.81011123832383 -0.64989800710071  0.73893899139914
 1  14.29483987048705 -1.78126130503050 -0.46951320542054
 1  15.68540839733973 -0.74815814351435 -0.97836023902390
 1  13.38883812941294  2.42484078327833 -0.17351722902290
 1  14.38559617181718  1.70932734723472  0.83251207850785
 1  16.20913964106411  1.25579104060406 -0.84892270727073
 1  15.25936073157316  2.00833908530853 -2.14396792769277
 1  15.18259972207221  4.35769897759776 -0.82586386638664
 1  16.06840647454746  3.58294425382538  0.32391485028503
 1  18.03469328612861  3.27862137063706 -1.22293668156816
 1  16.31563870067007  5.00466774567457 -3.14356863576358
 1  17.99873226312631  4.28358475167517 -3.49707714131413
 1  16.29121380668067  3.35539045024502 -3.21601215441544
 1  17.84401227522752  5.43406405940594  0.40183934963496
 1  18.80478808960896  5.89741596809681 -1.15616775787579
 1  17.05093766356636  6.23837824792479 -0.99261761386139
 1 -5.18667655225522 -7.85985708510851 -0.04668898489849
 1 -6.40736122742274 -6.75651503290329  1.09619946324632
 1 -4.61919413681368 -6.89527940414041  1.30711357975798
 8 -7.74999789508951  6.86985701710171 -0.56822025042504
 1 -9.06188957275728  6.27417483318332 -2.15964443194319

