%nproc=3
%Mem=2GB
# td=(NStates=1) iop(3/107=0140000000,3/108=0140000000) iop(3/107=0140000000,3/108=0140000000) CAM-B3LYP/6-31G(d,p) 

TD

0 1
12 -5.62983871507151  1.23053308100810  0.16707937673767
 6 -5.07255737753775 -2.14906887158716 -0.32443550865087
 6 -3.48322978287829  1.17082962446245  2.78940037823782
 6 -6.27864428672867  4.56044406750675  0.69809217041704
 6 -8.09376029402940  1.18195687808781 -2.35195928982898
 7 -4.36634371887189 -0.21088701180118  1.00125029202920
 6 -4.29285450585058 -1.56540772217222  0.68155187368737
 6 -3.27332873457346 -2.36721792039204  1.51891748034803
 6 -2.87498165356536 -1.30012068176818  2.56344313091309
 6 -3.53916071607161 -0.02192134473447  2.10083074167417
 6 -3.31161326932693 -1.77048374097410  3.92228008740874
 6 -2.04608945224522 -2.72362635583558  0.63575776187619
 6 -1.02966072897290 -3.60514560246025  1.38844272117212
 6  0.22655852325233 -3.84336920902090  0.64532269336934
 8  0.48020187408741 -3.35154484328433 -0.43061307670767
 8  1.06749843204320 -4.65417056185619  1.24833082158216
 7 -4.88575712671267  2.61986222292229  1.46229291589159
 6 -4.05074916211621  2.40182819881988  2.40980620642064
 6 -3.77034757195720  3.76053613611361  3.09329827422742
 6 -4.45848160386039  4.67462592809281  2.51228711291129
 6 -5.33594295669567  3.94558923542354  1.44960011191119
 6 -2.65108373327333  3.86630371407141  4.05639951045104
 6 -4.66945964596460  6.04352438663866  2.81572700950095
 8 -3.92633512081208  6.53555838603860  3.67485145764576
 7 -6.89191084068407  2.62996092859286 -0.61988465616562
 6 -6.92378457625763  3.92674307980798 -0.29793799689969
 6 -7.97743288348835  4.58836989378938 -1.10549335843584
 6 -8.49339237203720  3.55912504260426 -1.98010256265627
 6 -7.76848065956596  2.39378755285529 -1.69467323712371
 6 -8.40425270397040  5.97409877957796 -1.07767890249025
 6 -9.53708018641864  3.90243118141814 -3.05848839743974
 6 -8.83988296899690  4.00199156225623 -4.47022026872687
 7 -6.50408617591759 -0.17031221142114 -1.04600562096210
 6 -7.35570917761776 -0.06605751135114 -2.12410833343334
 6 -7.55837895449545 -1.33246839953995 -2.70960398499850
 6 -6.68813429712971 -2.19294306760676 -2.03530274017402
 6 -6.05252317581758 -1.41279530903090 -1.11541940664066
 6 -8.44215959065907 -1.54103389198920 -3.83270418981898
 6 -6.21552517961796 -3.55002410841084 -1.98802419631963
 8 -6.56569981058106 -4.60479544964497 -2.54308455415542
 6 -5.07207746124613 -3.53576534323432 -0.88217483828383
 6 -5.21614874247425 -4.64696989858986  0.08340549154915
 8 -5.67688187078708 -4.52181811521152  1.14358147844784
 8 -4.92210217341734 -5.81944582868287 -0.46348051945195
 6 -5.30130347954795 -6.94699829092909  0.38579611441144
 6  2.31099778137814 -4.99375563576358  0.52362034333433
 6  3.44157746784678 -4.14172567186719  0.94722600840084
 6  3.97167627132713 -3.23605342624262  0.14614698969897
 6  3.73510840814081 -3.08814200260026 -1.36918458725873
 6  5.20419462546255 -2.42338660686069  0.69299115001500
 6  6.55947155185518 -2.82690764376438  0.16965729162916
 6  7.78454758145815 -1.91805345114511  0.67386122072207
 6  9.14405301380138 -1.99472545454545  0.08721200800080
 6  9.58169524962496 -3.41934183668367  0.24743786878688
 6  10.06122155775578 -0.89566018691869  0.44608257165717
 6  11.34411756905691 -0.80393318841884 -0.24227953855386
 6  12.20961858245825  0.26904609510951  0.30558134633463
 6  13.56703609770977  0.48021770867087 -0.45199495669567
 6  14.59079725272527 -0.70646137613761 -0.31570825602560
 6  14.25427536573657  1.76431120332033 -0.08783642604260
 6  15.34370365126513  2.12497443274327 -1.02336944464446
 6  16.08059767946795  3.43152566256626 -0.70042113511351
 6  17.33852824752475  3.82182109760976 -1.42340338813881
 6  17.12434141624163  4.01228679137914 -2.93352567256726
 6  17.86915033423342  5.15068319431943 -0.92331328832883
 1 -2.66593209910991  1.28400526412641  3.67363497469747
 1 -6.51530241314131  5.82947915011501  0.66058582128213
 1 -8.75980117921792  1.20072433393339 -3.12921830273027
 1 -3.89278634383438 -3.02968608530853  2.02689843194319
 1 -1.94497558355836 -1.23967157535754  2.60183234923492
 1 -2.75325465066507 -2.73521010191019  4.14441438733873
 1 -3.33793039313931 -1.03512563026303  4.65235137103710
 1 -4.47430910671067 -1.99608752675267  3.89678290089009
 1 -2.42047921352135 -3.15596864186419 -0.42607034163416
 1 -1.75776647634763 -1.80872950035004  0.41007184848485
 1 -0.76027041714171 -3.15995596789679  2.36434097519752
 1 -1.40317979657966 -4.52115895219522  1.75106414311431
 1 -1.80457911001100  3.26777146384638  3.77512989408941
 1 -2.37284493849385  4.99139877897790  4.44798046094609
 1 -3.20229016151615  3.28862205630563  4.95105208200820
 1 -5.41970582988299  6.69071705420542  2.41184330013001
 1 -10.31848583108311  3.09305645754575 -3.12400355495549
 1 -10.05354283718372  4.74744227872787 -2.89102209480948
 1 -9.65317107800780  3.74614251425142 -5.33174948554855
 1 -8.25785975197520  4.94143608420842 -4.62695237703770
 1 -8.12479275417542  3.16450076397640 -4.79008312301230
 1 -8.09455603720372 -1.03502676037604 -4.72780274927493
 1 -8.63319294719472 -2.74013107340734 -3.77571691559156
 1 -9.42306555565557 -1.28670530513051 -3.69143342844284
 1 -4.17159893589359 -3.75481130413041 -1.51035596569657
 1  2.39694763856386 -6.13162045514551  0.78846723462346
 1  2.29144247084708 -4.87224575097510 -0.58300373547355
 1  3.83727971037104 -4.00209033133313  1.97146551065107
 1  2.71531898379838 -3.37639919481948 -1.66596924702470
 1  3.83560089808981 -1.97928262886289 -1.51711992949295
 1  4.55138764616462 -3.64754661096110 -1.90295175247525
 1  4.88179204820482 -1.22924846944694  0.57496788788879
 1  5.13199555795580 -2.36133045024502  1.74806869316932
 1  6.64213343334333 -3.82061636113611  0.71767108880888
 1  6.74901374087409 -3.04300651665166 -0.94083376957696
 1  7.54961576317632 -0.83606016031603  0.38103685698570
 1  7.70439935013501 -1.90049829832983  1.83478095049505
 1  9.09404530413041 -1.96067410811081 -0.93611182988299
 1  8.93984615001500 -4.14384324422442 -0.34027649784979
 1  10.53821685108511 -3.50414376907691 -0.14899248114811
 1  9.50286703430343 -3.66252198079808  1.44089505250525
 1  9.23834489538954  0.07645605600560  0.51531070547055
 1  10.11067002560256 -1.05069338863886  1.61576251355136
 1  11.98435036613661 -1.76893421512151 -0.25023433123312
 1  11.24167010721072 -0.85872750825083 -1.32184302800280
 1  11.68465848394839  1.23421649344935  0.21065385498550
 1  12.47355811451145  0.48620990429043  1.37610678577858
 1  13.37933867616762  0.39179392219222 -1.49181538633863
 1  14.99984021122112 -0.65226824412441  0.67627272477248
 1  14.23379376587659 -1.69904308320832 -0.47743399749975
 1  15.47499735623562 -0.76566989468947 -1.08643104610461
 1  13.44245349094909  2.41445974517452  0.01827194989499
 1  14.66614422662266  1.71729814431443  0.96020484778478
 1  16.11342006910691  1.33185864736474 -1.22021983698370
 1  14.89431422692269  2.31209946134613 -1.87127065796580
 1  15.47548901100110  4.41944515221522 -0.91172245224523
 1  16.37124675857585  3.49459541894189  0.39369182798280
 1  18.19136895369537  3.11068457695770 -1.09471385928593
 1  16.33489062586258  4.77337461636164 -2.78073235213521
 1  18.08849123902390  4.44833122632263 -3.43093052665267
 1  16.82194687998800  3.16003091429143 -3.48049860306031
 1  17.97995586958696  5.33796444944494  0.24586375207521
 1  18.92950056085608  5.25118134463446 -1.18408054915492
 1  17.18239080888089  5.91624603470347 -1.07146549864986
 1 -5.08937682228223 -7.77663876327633 -0.27533184918492
 1 -6.37682817411741 -6.91763114451445  0.66726656995700
 1 -4.58057027442744 -7.02857273347335  1.27934080248025
 8 -7.91896479177918  6.85713574497450 -0.35519894829483
 1 -9.33341672547255  6.34777219291929 -1.82449091659166

