%nproc=3
%Mem=2GB
# td=(NStates=1) iop(3/107=0140000000,3/108=0140000000) iop(3/107=0140000000,3/108=0140000000) CAM-B3LYP/6-31G(d,p) 

TD

0 1
12 -5.68843457465747  1.25892592029203  0.16306897569757
 6 -5.05511563336334 -2.21300526522652 -0.27440050515052
 6 -3.44900636053605  1.15364790629063  2.83627506570657
 6 -6.17080350265027  4.49448747184718  0.66304866606661
 6 -7.95086600460046  1.16498518091809 -2.27673176707671
 7 -4.49622670717072 -0.30836675977598  1.06946711371137
 6 -4.20241546194619 -1.58081926332633  0.68589230773077
 6 -3.17000840254025 -2.31919311791179  1.45214080268027
 6 -2.90661481688169 -1.33023369306931  2.63851063766377
 6 -3.63922072207221 -0.03943309590959  2.14501516011601
 6 -3.34853696169617 -1.77950464306431  3.96264412381238
 6 -1.88643348664867 -2.51889588278828  0.63141732783278
 6 -0.87313507640764 -3.38836392429243  1.41870574747475
 6  0.25451131853185 -3.77778265036504  0.48597675877588
 8  0.59304315821582 -3.48217790659066 -0.68186820222022
 8  1.11116279847985 -4.65234037883788  1.23592958145815
 7 -4.98674722572257  2.59256949364936  1.53246993359336
 6 -4.03670775797580  2.41445946194619  2.44064929072907
 6 -3.84950548774877  3.64433451595159  3.21942088648865
 6 -4.60209596529653  4.61234970047005  2.60734661886189
 6 -5.30534989738974  3.93755843234323  1.63338849074907
 6 -2.96593521842184  3.68427551125112  4.35450932143214
 6 -4.70276297629763  6.05523555775578  2.96299173597360
 8 -3.98371085838584  6.56273110331033  3.81176514901490
 7 -6.88493014261426  2.62455038753875 -0.65080774847485
 6 -6.96027822562256  4.03061346684668 -0.33955215831583
 6 -7.84199934013401  4.69523057985799 -1.27784059315932
 6 -8.36790982378238  3.75690482058206 -2.10326487888789
 6 -7.80334414591459  2.45815398949895 -1.71955572537254
 6 -8.23844612331233  6.12074344404440 -1.36598773337334
 6 -9.35190166856686  3.83569450775078 -3.20647319591959
 6 -8.67418639933993  3.88415977907791 -4.61109435613561
 7 -6.44178994629463 -0.15948112831283 -1.05080610101010
 6 -7.40475408210821 -0.06842774837484 -2.00871679427943
 6 -7.62594571117112 -1.50517567026703 -2.69701272587259
 6 -6.72421790549055 -2.21142491579158 -1.96574578447845
 6 -6.04455237873787 -1.47808183768377 -1.03422128682868
 6 -8.57774314901490 -1.72763255185519 -3.73076399579958
 6 -6.27047067416742 -3.57327643364336 -1.97374276817682
 8 -6.60709394999500 -4.64824979507951 -2.48163840954095
 6 -5.02551280478048 -3.59206097279728 -0.80917753855386
 6 -5.48555568316832 -4.62167736933693  0.07761491249125
 8 -5.87538172077208 -4.38375430883088  1.21972909320932
 8 -5.14517448064807 -5.82765664976498 -0.27973214461446
 6 -5.44236758595860 -6.93581717281728  0.53893142794279
 6  2.30584726632663 -5.00818707890789  0.61616959825983
 6  3.43581689178918 -4.07593909320932  0.98205949174917
 6  4.13632273597360 -3.31880170107011  0.12909528452845
 6  3.78349324662466 -3.26151934033403 -1.36236390519052
 6  5.22104631063106 -2.42605687388739  0.64943679457946
 6  6.52155776047605 -2.78651360436044 -0.00993066716672
 6  7.57294642134213 -1.95756740254025  0.52276611121112
 6  9.03308191669167 -2.11646762876288 -0.21909862306231
 6  9.74991207130713 -3.38635853835384  0.27000012501250
 6  9.88967440304030 -0.83608422932293  0.22452041544154
 6  11.28512166946695 -0.89131192629263 -0.31640695129513
 6  12.24638225882588  0.26384557505751  0.14824561276128
 6  13.65186458055805  0.49481916881688 -0.66488624582458
 6  14.49065723872387 -0.67972870287029 -0.41614830003000
 6  14.26190612881288  1.76964173637364 -0.20029767216722
 6  15.51604088498850  2.14761669696970 -1.09592670037004
 6  16.20357997769777  3.47245975597560 -0.57430852385239
 6  17.40942533723372  3.88155707120712 -1.29202024982498
 6  17.15351433353336  4.28746430913091 -2.70529284928493
 6  17.95990941014101  5.21918004400440 -0.55301625862586
 1 -2.69235474137414  0.99829669326933  3.69458706990699
 1 -6.39558044094409  5.69413561576158  0.66576633933393
 1 -8.80554575367537  1.04408867036704 -2.95286066696670
 1 -3.55222228742874 -3.07680079677968  1.82201794389439
 1 -1.86571765776578 -1.15097270547055  2.84587675367537
 1 -2.99143846904690 -2.73731031193119  4.00578052395239
 1 -2.94753135323532 -1.18001011871187  4.80302643854385
 1 -4.42331400720072 -1.82915083308331  4.00206342894289
 1 -2.15856302190219 -2.76306935193519 -0.28677641224122
 1 -1.28201890159016 -1.55741436883688  0.50994183548355
 1 -0.37914230433043 -2.94300427272727  2.36525106620662
 1 -1.39989946854685 -4.24156099239924  1.77964700140014
 1 -1.84173282538254  3.34417910461046  4.21157353845384
 1 -2.91638929292929  4.86996663576358  4.60921658455846
 1 -3.40696062856286  3.46717991209121  5.30628760556056
 1 -5.36257011631163  6.63485146764676  2.35066718251825
 1 -9.94533851635163  2.88318547044704 -3.17280843544355
 1 -9.93781126402640  4.64816235073507 -2.97477046964696
 1 -9.59798555945595  4.22427032703270 -5.30800711131113
 1 -7.94743870987099  4.69562150275027 -4.53510319211921
 1 -8.37886816171617  2.83535784968497 -4.84970908560856
 1 -8.44670125172517 -0.99704296199620 -4.49807977697770
 1 -8.41900152805280 -2.75022208250825 -4.18409775367537
 1 -9.58801205030503 -1.79539617421742 -3.30075436053605
 1 -4.31251302730273 -3.94495031803180 -1.56491142124212
 1  2.73662160596060 -6.01728902200220  0.92596098399840
 1  1.94608793539354 -5.09442796919692 -0.25187062216222
 1  3.55671165356536 -3.95710583288329  1.98457682178218
 1  2.82088954085409 -3.56942849774977 -1.67563021312131
 1  3.79686702470247 -2.08023272387239 -1.71052927042704
 1  4.63200570797080 -3.76063792009201 -1.92204366166617
 1  4.83102697169717 -1.38984452905291  0.46709710081008
 1  5.22688504690469 -2.20768508570857  1.72903678997900
 1  6.83763298329833 -3.75592989248925  0.21714103580358
 1  6.49820866036604 -2.42618483448345 -1.15365505170517
 1  7.10344114571457 -0.97779433373337  0.35346409970997
 1  7.81398030823082 -2.04451269976998  1.66313378577858
 1  8.97299319891989 -2.19710775147515 -1.14432265096510
 1  9.10809297469747 -4.27854671457146  0.13528105790579
 1  10.69407243664366 -3.51424477917792 -0.19884746664666
 1  9.89936668426843 -3.28813454205421  1.41168213121312
 1  9.32246330723072  0.08649706010601 -0.19206003160316
 1  9.82282124072407 -0.75389370867087  1.24670560786079
 1  11.83098502960296 -1.83847116881688  0.04236492869287
 1  11.34810075027503 -0.77970960646065 -1.50071091479148
 1  11.66013603170317  1.11254432623262 -0.21678888928893
 1  12.45356611531153  0.32991427472747  1.13238241334133
 1  13.36598734103410  0.50151489428943 -1.85521172597260
 1  14.91106133333333 -1.04393741104110  0.58432352985299
 1  13.86336672317232 -1.60127330623062 -0.76140239433943
 1  15.48665852235223 -0.82067539523952 -1.09759216221622
 1  13.57035628122812  2.59170746994700 -0.28069794709471
 1  14.63462107430743  1.79729614411441  0.75260408770877
 1  16.35075380248025  1.45279074057406 -1.16907472247225
 1  15.28318311381138  2.50704895629563 -2.15271880278028
 1  15.42029349144914  4.22296550425042 -0.59734101410141
 1  16.35846548044804  3.42981894129413  0.44428688748875
 1  18.31589140594059  3.23898740724072 -1.18832322022202
 1  16.36468360516051  4.94074135303530 -2.93181746064606
 1  18.09983237313731  4.48917531073107 -3.25338277187719
 1  16.97233191849185  3.28472338353835 -3.20859141234123
 1  18.13482135613561  4.86125677867787  0.55741490719072
 1  18.83967157795779  5.51411763826383 -0.85069721082108
 1  17.09699226902690  5.97030144024402 -0.72393074517452
 1 -5.12056994159416 -7.82719381878188 -0.06836115211521
 1 -6.40147063836384 -6.87751713311331  0.90319016231623
 1 -4.65108732613261 -6.91307118331833  1.35528839723972
 8 -7.80637353265327  6.89321935333533 -0.56918034643464
 1 -8.61123450725072  6.29137655335534 -2.41948041554155

