%nproc=3
%Mem=2GB
# td=(NStates=1) iop(3/107=0140000000,3/108=0140000000) iop(3/107=0140000000,3/108=0140000000) CAM-B3LYP/6-31G(d,p) 

TD

0 1
12 -5.69955568676868  1.22627265496550  0.16970963976398
 6 -5.01834195599560 -2.16847081178118 -0.36101916701670
 6 -3.45146660656066  1.03324586608661  2.82026346454645
 6 -6.18317473977398  4.54307233033303  0.65537789898990
 6 -8.00592151015102  1.18406708910891 -2.44338843274327
 7 -4.41836892139214 -0.40678660176018  1.06180634763476
 6 -4.25156037643764 -1.66369755115512  0.64357807630763
 6 -3.20313171487149 -2.36675787438744  1.51018660726073
 6 -3.00507466286629 -1.32678334803480  2.63350013661366
 6 -3.57344414441444 -0.17049620222022  2.17140779937994
 6 -3.74744685268527 -1.84293098569857  3.83715157455746
 6 -1.98673351665167 -2.75025901910191  0.61823600970097
 6 -0.92169993289329 -3.59188427632763  1.31360523742374
 6  0.31865773317332 -3.83685855795580  0.59789795089509
 8  0.55287914181418 -3.40186987578758 -0.51697171257126
 8  1.07540922312231 -4.69810495529553  1.19620560906091
 7 -4.89131768276828  2.60729096579658  1.49537622422242
 6 -3.97739182638264  2.36218423442344  2.47735296109611
 6 -3.53814435163516  3.65188527102710  3.03540248464846
 6 -4.41646740244024  4.58157662316232  2.44494037823782
 6 -5.26366572897290  3.90846552305231  1.44470962286229
 6 -2.56906553145314  3.72189927362736  4.14443831433143
 6 -4.50217291729173  5.90929096329633  2.88140357715772
 8 -3.79225171247125  6.51560639083908  3.70264423692369
 7 -6.85499714931493  2.70713864636464 -0.77529019671967
 6 -6.93988618641864  4.05820622612261 -0.41494969806981
 6 -7.98042318251825  4.67553861066107 -1.22667547664766
 6 -8.48992202500250  3.67683681378138 -1.97987253965397
 6 -7.82645645714571  2.43882205630563 -1.79057282708271
 6 -8.35419769846985  6.01238260796080 -1.09094022862286
 6 -9.51764824322432  3.87540847914791 -3.14618716731673
 6 -8.86948592929293  3.94858622172217 -4.45656890359036
 7 -6.42235800310031 -0.10507568776878 -1.08525954635464
 6 -7.49811341804180 -0.03687459305931 -2.03765968856886
 6 -7.64160727732773 -1.33107826052605 -2.75265829042904
 6 -6.66145162886289 -2.19993376667667 -2.08985819571957
 6 -5.98982690619062 -1.36364039353935 -1.12643050775078
 6 -8.65247062176218 -1.70577036563656 -3.73001392079208
 6 -6.22301592869287 -3.59777888388839 -1.90035542944294
 8 -6.68390163076308 -4.57476244634463 -2.50197044274427
 6 -5.08380863436344 -3.52616438313831 -0.90613723452345
 6 -5.33788091569157 -4.64778998059806  0.10703785478548
 8 -5.85316949954995 -4.44778071147115  1.26224334463446
 8 -5.00198016121612 -5.79533341744174 -0.39320349174918
 6 -5.31738508770877 -6.93720731183118  0.39693722852285
 6  2.35160184178418 -4.94829108930893  0.67690567186719
 6  3.34948825892589 -3.98655015431543  1.15745703150315
 6  4.07750685438544 -3.20910073097310  0.30936331133113
 6  3.61184608190819 -3.16419960836084 -1.21112878167817
 6  5.12857706370637 -2.27977224542454  0.66859871077108
 6  6.47262286698670 -2.65098005100510  0.06538686458646
 6  7.59807893459346 -1.73232487828783  0.60778461306131
 6  9.04804341284128 -2.01179716171617  0.03224651145115
 6  9.55780286038604 -3.38052795529553  0.30330345534553
 6  10.04770020562056 -0.89758037893789  0.48849681308131
 6  11.34751790909091 -0.68445124022402 -0.27035234583458
 6  12.27026464706471  0.41842103260326  0.20274106230623
 6  13.61340073417342  0.45609529642964 -0.50284004120412
 6  14.47241541454146 -0.74365509550955 -0.15484216941694
 6  14.27076701490149  1.75743051525153 -0.28444608700870
 6  15.44272355325533  2.21112304760476 -1.17286439413941
 6  16.14223384308431  3.48552106210621 -0.67553864686469
 6  17.46411080578058  3.87028594409441 -1.37913896169617
 6  17.16223520562056  4.04508007070707 -2.87365968596860
 6  18.03226664586458  5.10584871087109 -0.80775173217322
 1 -2.69207471337134  1.11851871547155  3.63167077827783
 1 -6.31433231613161  5.55936213841384  0.55372513521352
 1 -8.68528372747275  1.21512577407741 -3.13713909480948
 1 -3.83735080028003 -3.22098521522152  1.93651939403940
 1 -1.75181626762676 -1.13677128532853  2.79007117311731
 1 -3.35956528172817 -3.08154473537354  4.06919686558656
 1 -3.64495109520952 -1.20081219891989  4.64719085498550
 1 -4.86088776457646 -2.03212113011301  3.46827004960496
 1 -2.30514768036804 -3.43451649664966 -0.32218995359536
 1 -1.57139783948395 -1.88984761216122  0.20370121142114
 1 -0.69165355545555 -2.89616958925893  2.12452699379938
 1 -1.44158363696370 -4.50820765706571  1.77733677037704
 1 -1.48252690479048  3.33495818251825  3.98163054415442
 1 -2.53272092609261  4.61697133623362  4.61027669056906
 1 -2.79016894939494  3.16781997609761  4.98008498529853
 1 -5.34910877017702  6.42663064556456  2.26565868166817
 1 -10.26888087058706  3.07781493339334 -3.24031518611861
 1 -10.17885536843684  4.72228976347635 -2.90649364196420
 1 -9.50478623952395  3.78680658065807 -5.34916122672267
 1 -8.15907987398740  5.03082502310231 -4.40187986978698
 1 -8.06197647254725  3.17148146204620 -4.83530764546455
 1 -8.64278085968597 -1.12123538123812 -4.80584055305531
 1 -8.32597222512251 -2.75509256955696 -3.81341068496850
 1 -9.69724297339734 -1.69875651025102 -3.39652393749375
 1 -4.27775955195520 -3.87250307330733 -1.38571350145014
 1  2.52466040984099 -5.99970726382638  0.99495788368837
 1  2.11908523512351 -4.90517904430443 -0.38318375347535
 1  3.61255723812381 -4.08148827112711  2.05061342544254
 1  2.53462091399140 -3.22154370927093 -1.51741439153915
 1  3.86382372037204 -2.31405610621062 -1.70801901940194
 1  4.27380988838884 -4.02766462276228 -1.83041449874988
 1  4.83251712071207 -1.33927947254725  0.27057744884488
 1  5.02918527692769 -2.04486880408041  1.83804769106911
 1  6.65360458045805 -3.62289658915892  0.13903322502250
 1  6.41691053055305 -2.73657587358736 -0.94759444564456
 1  7.47810861246125 -0.62855941024102  0.57837659095910
 1  7.66474538473847 -1.92665091359136  1.71037851025103
 1  9.04885078467847 -1.83138117881788 -1.02165038373837
 1  8.76274844024402 -4.22123098299830 -0.12509497969797
 1  10.57064009340934 -3.28827218191819 -0.28890647254725
 1  9.83096984458446 -3.45528125672567  1.24345530853085
 1  9.55034609550955  0.02845125552555  0.34653382778278
 1  10.11388034663466 -1.13540185948595  1.56591752905291
 1  12.12651458255826 -1.64911223292329 -0.35704501230123
 1  11.45550149034903 -0.75844748024802 -1.43478432213221
 1  11.83832385048505  1.32095516731673  0.04123691329133
 1  12.61029178787879  0.17342862616262  1.24177335243524
 1  13.34692543484348  0.33996873967397 -1.71201740654065
 1  14.87679790699070 -0.59169218651865  0.92502760026003
 1  14.16823721022102 -1.76828000690069 -0.39210546464646
 1  15.30106996349635 -0.84798812651265 -0.77303970697070
 1  13.63510275587559  2.53296159535954 -0.22026190349035
 1  14.74284189638964  1.51900831533153  0.75451427872787
 1  16.27201592869287  1.39674513601360 -1.15187300230023
 1  15.05074987048705  2.35683393479348 -2.33020655155516
 1  15.40505196729673  4.45659886758676 -0.52351363136314
 1  16.45391502540254  3.67864382378238  0.44552701150115
 1  18.30418023482348  3.02816632513251 -1.15984037193719
 1  16.55355249204920  4.92128940784078 -2.94153843274327
 1  17.97694008390839  4.47896428962896 -3.53328076167617
 1  16.75382006730673  3.19553446464646 -3.42997355055506
 1  18.37941581558156  4.93152380538054  0.23995316101610
 1  19.11754936573657  5.44415064156416 -1.15229737083708
 1  17.33791636143614  6.21997640774077 -0.69495784788479
 1 -5.25983386798680 -7.86596769616962 -0.26903121912191
 1 -6.38829932123212 -6.88843822522252  0.67618746204620
 1 -4.51372358975898 -6.87390726692669  1.38660152855285
 8 -7.86119901520152  6.82464249564956 -0.22553598199820
 1 -9.04295767956796  6.56674409010901 -2.06890535803580

