%nproc=3
%Mem=2GB
# td=(NStates=1) iop(3/107=0140000000,3/108=0140000000) iop(3/107=0140000000,3/108=0140000000) CAM-B3LYP/6-31G(d,p) 

TD

0 1
12 -5.56652238343834  1.24182421012101  0.18232090089009
 6 -5.10315043684368 -2.13083704840484 -0.28211127622762
 6 -3.39841130103010  1.18950149164916  2.77664910311031
 6 -6.18718514081408  4.54267229032903  0.60223258445845
 6 -7.97319823782378  1.10874955735574 -2.27111120502050
 7 -4.41540862536254 -0.23031895499550  1.06918708570857
 6 -4.26095131553155 -1.59995117651765  0.72271599009901
 6 -3.21227262896290 -2.32074327292729  1.45119070767077
 6 -3.00067422282228 -1.31503217291729  2.60388717531753
 6 -3.61514831483148 -0.05743489608961  2.12351300990099
 6 -3.59015112311231 -1.76943363596360  3.97611547094709
 6 -1.92960780408041 -2.57025101830183  0.57509169526953
 6 -0.90125788868887 -3.40980606850685  1.30026390329033
 6  0.28738460586059 -3.80971584368437  0.54355251635164
 8  0.48886274017402 -3.52759244804480 -0.65062507790779
 8  1.06036771897190 -4.71595674047405  1.23771976047605
 7 -4.91536008700870  2.63787402410241  1.50614730133013
 6 -4.03517760496050  2.40049806580658  2.43503872967297
 6 -3.80513105030503  3.62432251475148  3.20821976637664
 6 -4.58864462016202  4.57472593809381  2.55266115031503
 6 -5.28220758315832  4.01902657915792  1.46851200310031
 6 -2.90636926182618  3.80933801750175  4.42516638713871
 6 -4.71241394139414  6.04627466166617  2.90351578837884
 8 -3.96267875517552  6.64011884208421  3.76211018351835
 7 -6.91941359095910  2.57836576907691 -0.68831149884988
 6 -6.99508170597060  3.86447685318532 -0.36244444754475
 6 -8.10019515971597  4.58842989978998 -1.21719452855286
 6 -8.56327936073607  3.59332846294629 -2.02192674507451
 6 -7.72586639813981  2.36282445654565 -1.73907767756776
 6 -8.39991226992699  6.03120449014901 -1.10467160176018
 6 -9.49718619701970  3.83092403070307 -3.22804535313531
 6 -8.73027200790079  4.02382374547455 -4.48971221792179
 7 -6.37866363366337 -0.20670585078508 -1.02237325772577
 6 -7.33697730443044 -0.06263716931693 -2.07339326192619
 6 -7.59738285488549 -1.35547069976998 -2.65762878747875
 6 -6.62237772147215 -2.26053982728273 -2.02048125802580
 6 -5.95729365286529 -1.41779580908091 -1.05952381708171
 6 -8.55628100280028 -1.59294908350835 -3.74641556095610
 6 -6.09447307440744 -3.52592169816982 -2.01150654455446
 8 -6.48460170077008 -4.52558752885288 -2.69408965466547
 6 -4.99580983448345 -3.56328809550955 -0.84242086288629
 6 -5.32509963756376 -4.64391959355936  0.15773292429243
 8 -5.64988917151715 -4.42509844324432  1.24080120042004
 8 -5.01438140134013 -5.85268915301530 -0.37225139653965
 6 -5.32446579577958 -7.08879247034703  0.47396493129313
 6  2.35527220882088 -5.07885414561456  0.56665464676468
 6  3.43787709780978 -4.14607610691069  1.00805209100910
 6  4.01627073077308 -3.30846066696670  0.14168654365437
 6  3.72245714301430 -3.14342753115312 -1.25867353615362
 6  5.19091329732973 -2.28609287748775  0.68280013091309
 6  6.47808341304130 -2.65847080008001  0.07033735963596
 6  7.66521564826483 -1.75287693349335  0.54725856045605
 6  8.96481509000900 -1.93510949294930 -0.06183289648965
 6  9.65784286438644 -3.29915981848185  0.33913703870387
 6  9.99327476307631 -0.81485210611061  0.32113007640764
 6  11.27873103040304 -0.75478827392739 -0.43148845944594
 6  12.17842546314631  0.24322351285128  0.18812960116012
 6  13.55968536263626  0.46348603550355 -0.52247200440044
 6  14.54804297729773 -0.83545427542754 -0.30885757095710
 6  14.31745168336834  1.75938071027103 -0.01892953535354
 6  15.54962424332433  2.10432236753675 -1.04281138883888
 6  16.10775039473947  3.45775828582858 -0.61400249324932
 6  17.37884227892789  3.86101501700170 -1.38034908270827
 6  17.20534951705171  3.85237079977998 -2.92838515851585
 6  17.86984040324032  5.13869199519952 -0.80022097909791
 1 -2.76960246614661  1.16192305590559  3.84900251145115
 1 -6.17304818771877  5.62524872707271  0.62736249894990
 1 -8.54476967606761  1.24086834833483 -3.03014839573957
 1 -3.89279634483448 -3.16520963766377  1.90772651475148
 1 -1.90473155915592 -1.20805841404140  2.81769393539354
 1 -3.15841516671667 -2.66334291519152  4.16583652955295
 1 -3.29321592169217 -0.96800891859186  4.63383951985198
 1 -4.67659933573357 -2.06162408040804  3.77038026062606
 1 -2.38669583518352 -3.06830987598760 -0.33932166676668
 1 -1.46895759545955 -1.71281990939094  0.34301514281428
 1 -0.48456284638464 -2.89697967026703  2.31900644174417
 1 -1.08365784438444 -4.43863069936994  1.74485352205221
 1 -1.96900555265527  3.44019870657066  4.15322770387039
 1 -2.92245989999000  4.89591923102310  4.68837450035003
 1 -3.20399033153315  3.32467566166617  5.31743872067207
 1 -5.44644850415041  6.72958094059406  2.20787290309031
 1 -10.14372835533553  2.89524667656766 -3.10499165376538
 1 -10.14051153405341  4.71035857035703 -2.73156614921492
 1 -9.38939470037004  4.19512741274127 -5.36055236583658
 1 -8.27730169616962  5.04379632023202 -4.71991167296730
 1 -8.19316959185919  3.17848216211621 -5.03598771347135
 1 -8.28222480408041 -0.86889014671467 -4.58966893589359
 1 -8.57804743264326 -2.67056411671167 -4.10939028292829
 1 -9.61288453755376 -1.13898053265327 -3.39290357545755
 1 -4.16778855485549 -3.69501532453245 -1.40417534763476
 1  2.64938288208821 -6.15122241534153  0.99567795569557
 1  1.98706203280328 -5.02404093049305 -0.54945038013801
 1  3.73690967336734 -3.90198032033203  2.07237560166017
 1  2.91670912281228 -3.55397695259526 -1.59211186128613
 1  3.91446878487849 -2.09132383298330 -1.56690490799080
 1  4.79616212361236 -3.64591644794479 -1.82931438873887
 1  4.95321919091909 -1.26885242984298  0.49436982808281
 1  5.04792715111511 -2.24501881908191  1.87201108740874
 1  6.79584880488049 -3.76827112661266  0.14753407510751
 1  6.46518535803580 -2.42521473747375 -1.05503518971897
 1  7.57126792839284 -0.70689724402440  0.12308106140614
 1  7.84686359655966 -1.73561180968097  1.46129360176018
 1  8.95483138273828 -1.89027706840684 -1.13451166986699
 1  8.88039020442044 -4.15163402330233  0.11399892969297
 1  10.32653568296830 -3.43925728042804 -0.33880146204621
 1  9.85666241384138 -3.39826555515552  1.42677364036404
 1  9.39100016091609 -0.07073866346635  0.40135931033103
 1  10.24418337693769 -1.07518583788379  1.40993193049305
 1  11.80428235933593 -1.59826714841484 -0.43042235003500
 1  11.10888682888289 -0.45799743524352 -1.49899074277428
 1  11.61236125422542  1.20828390019002  0.27360014961496
 1  12.26479723842384  0.08020930423042  1.23775295039504
 1  13.36154689698970  0.47141188398840 -1.54294049884988
 1  14.78465869306931 -0.77142015931593  0.91663676117612
 1  13.79819020552055 -1.72079525842584 -0.61328758285829
 1  15.59987984448445 -1.06224955265527 -0.82539494249425
 1  13.47505675127513  2.82452075127513 -0.12695257255726
 1  14.62344995719572  1.89229564406441  0.90636946424642
 1  16.36070479757976  1.30727618911891 -0.81155897089709
 1  15.49294408990899  1.92679093049305 -2.05830936183618
 1  15.44333579567957  4.25142835053505 -0.85034631463146
 1  16.11067070097010  3.42981894129413  0.52239469826983
 1  18.13657347414741  2.94291780028003 -1.45262965086509
 1  16.59450658745875  4.58456573547355 -3.34227850675067
 1  18.18925131503150  4.18080447364737 -3.41262869646965
 1  17.00434511981198  2.94121903310331 -3.28766932013201
 1  18.10891876587659  5.20948160116012  0.23630279597960
 1  18.59307691849185  5.65959218571857 -1.45000714181418
 1  16.94104667446745  5.77721213131313 -0.66796514861486
 1 -5.14873275787579 -8.12883398279828 -0.08013232923292
 1 -6.31749224052405 -7.05783516491649  0.82559240254025
 1 -4.50776299369937 -6.83526340254025  1.27610047844784
 8 -7.81661455675567  6.85569560096010 -0.45582901130113
 1 -9.34979836363636  6.34499191489149 -1.88713718121812

