%nproc=3
%Mem=2GB
# td=(NStates=1) iop(3/107=0140000000,3/108=0140000000) iop(3/107=0140000000,3/108=0140000000) CAM-B3LYP/6-31G(d,p) 

TD

0 1
12 -5.56139187038704  1.25040506820682  0.18082075087509
 6 -4.99753987578758 -2.08503246794679 -0.46633969906991
 6 -3.43930539043904  1.15956849834984  2.79678111631163
 6 -6.28039446174617  4.53128115121512  0.80452281348135
 6 -7.97895881388139  1.23093177557756 -2.44788888278828
 7 -4.46970405490549 -0.26859278237824  1.08294846184618
 6 -4.26158137853785 -1.63562474387439  0.67870158865887
 6 -3.25488689038904 -2.32618381698170  1.58233382198220
 6 -2.92709686508651 -1.38260893059306  2.66615340194019
 6 -3.64489128912891 -0.09130828342834  2.17386804540454
 6 -3.50063217121712 -1.73305999859986  4.04605246464646
 6 -1.96790163346335 -2.66794078727873  0.66736092219222
 6 -0.90184794769477 -3.40832592049205  1.44995887278728
 6  0.27190305770577 -3.72674754685469  0.62469063016302
 8  0.53160701460146 -3.25587527632763 -0.43884389978998
 8  1.07069875207521 -4.57442258705871  1.41872786128613
 7 -4.92297084808481  2.57346758345835  1.43798048464846
 6 -4.05235932313231  2.39290730673067  2.53155838163816
 6 -3.83687422462246  3.69423950645065  3.21439038343834
 6 -4.65692144784478  4.58699716521652  2.59107499169917
 6 -5.34696405880588  3.94988966546655  1.53847899979998
 6 -2.91106973187319  3.87305438913891  4.42101597209721
 6 -4.71682438243824  5.97840787498750  2.83806924372437
 8 -4.01231371867187  6.61097592779278  3.68498247074707
 7 -6.89431108070807  2.60850878337834 -0.65216788448845
 6 -7.03291548934893  3.87552795829583 -0.34696289938994
 6 -8.03920906110611  4.52160321712171 -1.21361417051705
 6 -8.48423145594559  3.60211934203420 -2.10969552195220
 6 -7.75809962146215  2.37651582568257 -1.73378714851485
 6 -8.41133341204121  5.92420379007901 -1.18733986858686
 6 -9.42281876027603  3.81630256855686 -3.22393494209421
 6 -8.75259424012401  3.96327769086909 -4.54108735543554
 7 -6.40050581788179 -0.12504768496850 -1.05568658905891
 6 -7.51098470517052 -0.05258616421642 -1.99778570117012
 6 -7.68589170577058 -1.29526467916792 -2.58105112971297
 6 -6.70308579227923 -2.09684345764576 -2.01398060796080
 6 -5.99597752125212 -1.36124015351535 -1.10871873657366
 6 -8.64668004270427 -1.73381316991699 -3.71618253765377
 6 -6.23856748384839 -3.54241334733473 -2.07356275017502
 8 -6.57164040464046 -4.48425339543954 -2.61691193689369
 6 -5.10349060256026 -3.53055482218222 -1.02402902370237
 6 -5.23922104970497 -4.57535273687369  0.09726687768777
 8 -5.65852003460346 -4.51698763216322  1.20012713301330
 8 -5.00446040924092 -5.81092497659766 -0.47319149054905
 6 -5.36636998619862 -7.03347693879388  0.28748628342834
 6  2.35942262386239 -5.09537579777978  0.77067504880488
 6  3.40989429952995 -4.01256275557556  1.08365965176518
 6  4.12266136983698 -3.31123094399440  0.06698907390739
 6  3.78219311661166 -3.23488667706771 -1.40652832163216
 6  5.18871307730773 -2.31742601080108  0.54444629552955
 6  6.60367597229723 -2.66640159315932  0.02456278217822
 6  7.66725585228523 -1.70623226902690  0.47469130373037
 6  9.09528813731373 -1.88486446844684 -0.17885459865987
 6  9.50957803790379 -3.29964986748675  0.02071519651965
 6  10.01425686128613 -0.89335995689569  0.35561352475248
 6  11.45449860716072 -0.90777357245725 -0.17989329992999
 6  12.29210683128313  0.33208239873987  0.28339912811281
 6  13.60520991509151  0.33587327422742 -0.47997775497550
 6  14.51926009900990 -0.84817554755476 -0.25243192839284
 6  14.32091202940294  1.78883365556556 -0.09846748914891
 6  15.53116239713971  2.02067400270027 -0.93122022972297
 6  16.15641526122612  3.53141565156516 -0.72801389438944
 6  17.44942933763376  3.80309922542254 -1.40236128392839
 6  17.50463944604461  3.80886644934493 -2.91538385838584
 6  17.92468588778878  5.23496162216222 -0.84156511351135
 1 -2.51897740364036  1.19672653625363  3.57138474967497
 1 -6.62974385728573  5.60256645884589  1.02280204290429
 1 -8.83458865796580  1.17913217471747 -3.12414779567957
 1 -3.64894195939594 -3.35343846054605  1.80060580268027
 1 -1.78331941794179 -1.18592620082008  2.76230839683968
 1 -2.83638296349635 -2.68702528342834  4.35709565546555
 1 -3.43168976907691 -1.00055217291729  4.82048818471847
 1 -4.47475915171517 -2.19538745674567  3.94845806840684
 1 -2.50009717531753 -3.31950499549955 -0.16970470507051
 1 -1.47788848854886 -1.95787441484148  0.18544938623862
 1 -0.52563695379538 -3.12701267356736  2.32411695279528
 1 -1.37499697829783 -4.36503333963396  1.87210624732473
 1 -1.87320597269727  3.50408509520952  4.25782816391639
 1 -2.91054870887089  5.05035467456746  4.54493015591559
 1 -3.30421035353535  3.39579277337734  5.32988996579658
 1 -5.38493235253525  6.61701968446845  2.19010112591259
 1 -10.29943392589259  3.19106625852585 -3.44509566416642
 1 -9.96419390229023  4.66303383788379 -2.89455244784478
 1 -9.49146490739074  3.95453335333533 -5.33477978857886
 1 -7.99709367536754  4.77401934253425 -4.51408108990899
 1 -8.15068534343434  2.96340065396540 -4.64843895859586
 1 -8.54125070667067 -1.45254851255126 -4.82758272727273
 1 -8.68099772767277 -2.84129118941894 -3.66650599449945
 1 -9.70968421752175 -1.39597623222322 -3.72416670177018
 1 -4.13285506150615 -3.80838666166617 -1.62036696679668
 1  2.45877382118212 -5.99481677477748  1.32567095499550
 1  2.19110243684368 -5.20837936433643 -0.23238867396740
 1  3.51106708910891 -3.95146526882688  2.14623298739874
 1  2.83709116101610 -3.79873142804280 -1.93392604270427
 1  3.77990532853285 -2.25031973257326 -1.93744196169617
 1  4.77905041244124 -3.71848370467047 -1.98931038833883
 1  4.80056392539254 -1.47752329692969  0.26057644874488
 1  5.32120447884788 -2.30706502370237  1.79828371467147
 1  6.68062728272827 -3.68784308380838  0.29748907060706
 1  6.48206704620462 -2.82254447044705 -1.18124781098110
 1  7.35129593119312 -0.64885143944394  0.27266601990199
 1  7.90783969416942 -1.71701995049505  1.59114658705871
 1  9.01608750835084 -1.64302234293429 -1.44902312101210
 1  8.90630279567957 -4.08010687058706 -0.51049351955196
 1  10.51375440484048 -3.47155050975098 -0.40061764366437
 1  9.51115786338634 -3.65421114971497  1.00216117911791
 1  9.28866992789279  0.10796920732073  0.33587276167617
 1  10.01624058265826 -1.12277059635964  1.59072000930093
 1  11.94212614371437 -1.75191251295130  0.14915560776078
 1  11.40710665086509 -0.94667630313031 -1.39490033373337
 1  11.62345236333633  1.36138921072107  0.18008079767977
 1  12.32084284298430  0.41046232953295  1.36913608870887
 1  13.38835957825783  0.53635837863786 -1.54321052585259
 1  14.54781500870087 -0.97048006530653  0.89831492899290
 1  14.17817820432043 -1.89435261416142 -0.80985723982398
 1  15.62785264176417 -0.71700502820282 -0.71393379637964
 1  13.67340658625863  2.69402770197020 -0.21151102840284
 1  14.53542115431543  1.52979939443944  0.89634846214621
 1  16.40535926302630  1.20276573807381 -0.68812662766277
 1  15.39110390589059  1.77406565796580 -2.06543007390739
 1  15.36272773487349  4.13341654935494 -1.12206348634863
 1  16.05214484838484  3.79359531893189  0.38731118991899
 1  18.25843566036604  3.05475898439844 -1.06312069997000
 1  16.83708084488449  4.49521680058006 -3.38610288918892
 1  18.47015940584058  4.13155954915492 -3.21981941554155
 1  17.16049073437344  2.94818973017302 -3.58078863206321
 1  17.78082595659566  5.12387304030403  0.18378754445445
 1  19.23479108990899  5.36986321282128 -1.18926106720672
 1  17.38617118691869  6.15911032113211 -1.34341269336934
 1 -5.09068695329533 -7.83572467186719 -0.29084340034003
 1 -6.39421991329133 -7.25964534593459  0.26243608690869
 1 -4.84815703310331 -7.11912178837884  1.29727259565957
 8 -8.02543543884388  6.79237926932693 -0.35681911031103
 1 -9.02804618841884  6.03676109180918 -2.09745821332133

