%nproc=3
%Mem=2GB
# td=(NStates=1) iop(3/107=0140000000,3/108=0140000000) iop(3/107=0140000000,3/108=0140000000) CAM-B3LYP/6-31G(d,p) 

TD

0 1
12 -5.64712044324432  1.25485551325133  0.22264493329333
 6 -5.06173629542954 -2.11059502420242 -0.41825489058906
 6 -3.38127958785879  1.17409995149515  2.76055749394940
 6 -6.33551997429743  4.61498952205221  0.70346270747075
 6 -7.92986390439044  1.20555923832383 -2.39672376627663
 7 -4.39170625512551 -0.29247517061706  1.10486065306531
 6 -4.33751897229723 -1.66174735613561  0.66119983848385
 6 -3.34334573627363 -2.38709990859086  1.53984957355736
 6 -2.96228038343834 -1.38624929462946  2.61473826042604
 6 -3.60094689468947 -0.07058621122112  2.14302496109611
 6 -3.52466457445745 -1.72471916451645  3.99523738313831
 6 -2.04639948324832 -2.58916290949095  0.70357454355436
 6 -0.95180294319432 -3.47971305920592  1.39875375227523
 6  0.24983085048505 -3.84485935803580  0.69082724382438
 8  0.48760261416142 -3.42490217901790 -0.44085410081008
 8  1.07517920012001 -4.65150029482948  1.30301629012901
 7 -4.97619617061706  2.72848308500850  1.45073175977598
 6 -3.92948703590359  2.42936095209521  2.42726795259526
 6 -3.72969350655065  3.75875595809581  3.05136408080808
 6 -4.65076083178318  4.65840430593059  2.60136602080208
 6 -5.25660502290229  4.01815649214921  1.57505265716572
 6 -2.67714633953395  3.82267935163516  4.24114798529853
 6 -4.84545724572457  6.05772580678068  2.91807724452445
 8 -4.16033852115212  6.62117694789479  3.78937290979098
 7 -6.91169281888189  2.63199113161316 -0.65256792449245
 6 -7.00712291009101  3.94845525102510 -0.29549775287529
 6 -7.91412655285529  4.56364742154215 -1.23240604970497
 6 -8.41371440424042  3.71650078017802 -2.14693924632463
 6 -7.80910472197220  2.43452162626263 -1.74308807860786
 6 -8.24791707040704  5.99431080078008 -1.15979711431143
 6 -9.46312279067907  3.87280821912191 -3.26644919351935
 6 -8.69945892659266  4.18943030613061 -4.60201344804480
 7 -6.35989175647565 -0.10033521372137 -1.08866988738874
 6 -7.32680628732873 -0.06809771537154 -2.06967288988899
 6 -7.55604872147215 -1.29771492419242 -2.65493851845185
 6 -6.71321680538054 -2.14517829112911 -2.05825503540354
 6 -5.96382430593059 -1.44993902340234 -1.11068893359336
 6 -8.48598397309731 -1.60153994259426 -3.77561848124813
 6 -6.18871249834983 -3.61658076407641 -1.97777317121712
 8 -6.46151939253925 -4.66218118821882 -2.53003324902490
 6 -5.01311156465647 -3.57946971367137 -0.92284890569057
 6 -5.22265939353935 -4.62913811541154  0.12764991599160
 8 -5.52238642124212 -4.45604153755376  1.25885300560056
 8 -4.87542750595060 -5.82353623772377 -0.41947611901190
 6 -5.28169151835184 -6.83981757285729  0.37193472827283
 6  2.35383206480648 -5.12783904410441  0.76533451475147
 6  3.35238854895490 -4.14800629992999  1.16870815661566
 6  4.12560166386639 -3.52258207910791  0.21530390539054
 6  3.81608650595060 -3.28437162556256 -1.25891356015602
 6  5.21143534953495 -2.57725199339934  0.70115196609661
 6  6.52394799949995 -2.84996994999500 -0.03426310041004
 6  7.69199832653265 -1.92253389918992  0.51264509910991
 6  9.07077568606861 -2.10894687668767 -0.05281199439944
 6  9.58646572667267 -3.64176407890789  0.07420054505451
 6  10.00359579517952 -1.09685030593059  0.53225118851885
 6  11.38386154345434 -0.92548534363436 -0.24794010461046
 6  12.23132075267527  0.28918810931093  0.20048083628363
 6  13.51313070717072  0.50891057795780 -0.72032178937894
 6  14.34857303030303 -0.69129985998600 -0.63126981218122
 6  14.20693063126313  1.82759753195320 -0.27925556795680
 6  15.46779606050605  2.11966390169017 -1.01643875157516
 6  16.05520514021402  3.50414292429243 -0.50937203020302
 6  17.22396679137914  4.01926084158416 -1.38761980978098
 6  17.10978996109611  4.18166372907291 -2.89214153415342
 6  17.82995641484148  5.35105323132313 -0.73262421942194
 1 -2.78813431933193  1.16274313791379  3.53697130833083
 1 -6.56795767866787  5.62673887608761  0.65081484418442
 1 -8.80687588668867  1.05285954745475 -2.99047442834283
 1 -4.00457752295230 -3.18002111881188  1.78714445654565
 1 -1.87858894489449 -1.22221983018302  2.97108927492749
 1 -3.13568289348935 -2.65226180708071  4.41821176707671
 1 -3.51388798889889 -0.66003812151215  4.53724986088609
 1 -4.58182985878588 -2.03155107310731  3.98661188378838
 1 -2.40855802140214 -3.31528457345735 -0.26733446804680
 1 -1.54999569926993 -1.76766539393939  0.34467530883088
 1 -0.56705109520952 -2.86932690499050  2.16557109820982
 1 -1.40785026362636 -4.40656749304930  1.77690672737274
 1 -1.58650730283028  3.74466915361536  4.14227660876088
 1 -2.76132378637864  4.92103174227423  4.52355801870187
 1 -2.99915984848485  3.18418161226123  5.00786776357636
 1 -5.43198705800580  6.54223220572057  2.21259337513751
 1 -10.09328331083108  2.84870202210221 -3.42629378397840
 1 -10.32228971187119  4.70355789028903 -3.11388438103810
 1 -9.55586134703470  4.52085998599860 -5.39881619221922
 1 -7.98280224622462  5.16062800340034 -4.48804848664867
 1 -7.93912418731873  3.60775508940894 -5.01558567326733
 1 -8.38860544214421 -1.02976623432343 -4.61492146114611
 1 -8.39365899379938 -2.67281434173417 -4.00215955985599
 1 -9.51484473357336 -1.26981361596160 -3.43734801990199
 1 -4.21741351735174 -3.89190501350135 -1.32713764386439
 1  2.52320026382638 -6.13164045714571  1.11504989288929
 1  2.11794512111211 -5.48481700810081 -0.31857729282928
 1  3.91511749414941 -4.14140426272627  2.10553891799180
 1  2.81777922982298 -3.60792234713471 -1.56444909500950
 1  3.95609294729473 -2.08229292989299 -1.52680089758976
 1  4.55513802120212 -3.73061491779178 -1.76805826312631
 1  4.99780364936494 -1.48648419301930  0.45269566066607
 1  5.47947030543054 -2.57174149134913  1.72182606890689
 1  6.93290251025102 -3.71651595109511  0.35824514621462
 1  6.28275711521152 -2.59829204520452 -1.01185087128713
 1  7.17900870247025 -0.97233378767877  0.22955170847085
 1  7.77897680788079 -2.24825307380738  1.58499597199720
 1  9.01863776337634 -1.88697673837384 -1.08044626332633
 1  9.04073623902390 -4.18535739563956 -0.46953942414241
 1  10.62082511191119 -3.61695505020502 -0.38644622652265
 1  9.59335608320832 -3.75390111871187  1.21451241424142
 1  9.53586464736474 -0.07022861246125  0.41990116451645
 1  10.40346930553055 -1.37024534383438  1.57106804410441
 1  12.12232416351635 -1.62892021372137  0.05244593679368
 1  11.08025396559656 -0.60373200870087 -1.39117996169617
 1  11.72050206830683  1.08651172297230  0.31778456805681
 1  12.43219397809781  0.08076936023602  1.22042121722172
 1  13.07789853215322  0.69287403020302 -1.86934313911391
 1  14.66895712291229 -1.26332935023502  0.45929102660266
 1  13.98985937243724 -1.55397857675768 -1.03036929102910
 1  15.21415127162716 -0.45937926562656 -0.94912731573157
 1  13.49103834943494  2.63896219541954 -0.37015689298930
 1  14.38836644884488  1.65746216071607  0.80284911221122
 1  16.19760848794879  1.32297775927593 -0.71743955895590
 1  15.52686748224822  2.06625487688769 -2.12891642254225
 1  15.24117557965796  4.24988819651965 -0.73488476847685
 1  16.30541017491749  3.39381534093409  0.69252171097110
 1  18.05226504330433  3.45879938843884 -1.14769915781578
 1  15.96039317611761  4.56078335723572 -3.06455073397340
 1  18.12631502140214  4.52714910811081 -3.17941537513751
 1  16.91453613891389  3.20471538273827 -3.32848340154015
 1  17.86213408740874  5.38783943694369  0.20645981168117
 1  18.64549216001600  5.75402162866287 -1.20548268936894
 1  16.91451402120212  5.92977738783878 -1.00749910201020
 1 -4.76298418301830 -7.86893799319932 -0.01761607760776
 1 -6.28167865916592 -6.97338672007201  0.46462630593059
 1 -4.81586380378038 -6.78531840804080  1.38054092249225
 8 -7.76661955725573  6.79951998339834 -0.37908133653365
 1 -8.89491287508751  6.22511992769277 -2.14215268276828

