%nproc=3
%Mem=2GB
# td=(NStates=1) iop(3/107=0140000000,3/108=0140000000) iop(3/107=0140000000,3/108=0140000000) CAM-B3LYP/6-31G(d,p) 

TD

0 1
12 -5.52013774497450  1.24757478517852  0.16284895369537
 6 -5.00234035583558 -2.11958592329233 -0.38141120622062
 6 -3.28659011891189  1.13915645714571  2.69787122532253
 6 -6.17054347664766  4.56616463956396  0.62200456165617
 6 -7.96974789278928  1.20530921332133 -2.29094318821882
 7 -4.29336642114211 -0.24590051315132  0.99644981198120
 6 -4.26763198359836 -1.64247542894289  0.60752447094709
 6 -3.27221862356236 -2.41609280788079  1.50695628422842
 6 -2.97685184058406 -1.35043571327133  2.70190697729773
 6 -3.60266706670667 -0.06534568716872  2.08138879747975
 6 -3.61700380838084 -1.73488018061806  4.01242910231023
 6 -2.01769661296130 -2.86077007020702  0.68522270837084
 6 -1.02960072297230 -3.71584667256726  1.55398927582758
 6  0.28111397879788 -4.01166603870387  0.65798395949595
 8  0.49489334323432 -3.52620230903090 -0.46369638503850
 8  1.08783046524652 -4.91627677247725  1.23667965646565
 7 -4.86682523352335  2.62987322402240  1.40699738633863
 6 -3.92829691689169  2.42211022702270  2.41644687048705
 6 -3.63084362156216  3.68440852335234  3.18827777217722
 6 -4.49635539123912  4.60557902340234  2.53827971217122
 6 -5.14567392979298  3.89123379987999  1.45802095399540
 6 -2.77362598749875  3.86910399409941  4.33146701720172
 6 -4.56602930293029  6.00314034823482  2.99310474727473
 8 -3.87413990129013  6.65098992919292  3.80285425792579
 7 -6.88213986358636  2.65636356885689 -0.67856052375238
 6 -6.86294849264926  3.99392979847985 -0.42719092219222
 6 -7.80403554375438  4.67395845264526 -1.34087689678968
 6 -8.37431046384638  3.62745187528753 -2.12677723012301
 6 -7.73705751725173  2.47366554065407 -1.78005177497750
 6 -8.19119139783978  6.05190656035604 -1.29855098969897
 6 -9.45367184558456  3.76513745204520 -3.11590413901390
 6 -8.84933391409141  4.02248361146115 -4.47328057475748
 7 -6.30388615591559 -0.07150233043304 -1.15741676207621
 6 -7.43594720142014  0.01085017941794 -2.09947587018702
 6 -7.57489060566057 -1.24779993269327 -2.68859188378838
 6 -6.67913339703970 -2.12612638593859 -2.04305351525153
 6 -6.00649857335734 -1.40372440194019 -1.16352421712171
 6 -8.72093746844685 -1.53421320992099 -3.73617453685369
 6 -6.16045967306731 -3.60288939493949 -1.92905829972997
 8 -6.63588682928293 -4.55896086618662 -2.52889313501350
 6 -5.03290354385439 -3.47241900860086 -0.87698431923192
 6 -5.32322945054505 -4.65169037063706  0.11991914291429
 8 -5.67195137773777 -4.41806774017402  1.25394251455146
 8 -4.95303526672667 -5.79653353745375 -0.40397456885689
 6 -5.28963231243124 -6.93612720382038  0.54475201000100
 6  2.33213989558956 -5.11811807200720  0.45144312561256
 6  3.35079838993899 -4.36874837413741  0.94946623242324
 6  4.07923702740274 -3.42495231613161  0.17827020202020
 6  3.79191408870887 -3.10731391979198 -1.27980564936494
 6  5.11815602160216 -2.49664393259326  0.91515336623662
 6  6.49294489918992 -2.80999595259526  0.13074340024002
 6  7.59116824352435 -1.90551219701970  0.83305714031403
 6  8.95411401990199 -1.92604858685869 -0.02822953615362
 6  9.73005008510851 -3.35787569006901 -0.02378925392539
 6  9.95396083168317 -0.87081770267027  0.43178114151415
 6  11.29071222852285 -0.76155895099510 -0.24320963156316
 6  12.14758237883788  0.42809199969997  0.19504029222922
 6  13.44053344744474  0.49718940584058 -0.66860661786179
 6  14.30501867486749 -0.72875360536054 -0.39854653985399
 6  14.11184112231223  1.78531330353035 -0.20905854825483
 6  15.35222450335034  2.20911284658466 -1.01431853955396
 6  15.90952057175718  3.59328183818382 -0.61224231723172
 6  17.31159555425543  3.97068598409841 -1.33133418121812
 6  17.21676065816582  3.96460202290229 -2.81713403340334
 6  17.65870929012901  5.42497062306231 -0.73036399339934
 1 -2.71421692759276  1.16329319291929  3.51343895509551
 1 -6.20878176107611  5.60026622882288  0.98299806250625
 1 -8.54741994109411  1.15113937543754 -3.08491387228723
 1 -3.58028509370937 -3.30549366606661  1.95352109420942
 1 -1.92475356135614 -1.24298190639064  3.03427559355936
 1 -3.17734705990599 -2.72916949784979  4.39870981688169
 1 -3.50107670777078 -0.88630074777478  4.57379351525153
 1 -4.49498117391739 -2.30862878087809  3.74459768236824
 1 -2.26196336193619 -3.31290433543354 -0.22545027962796
 1 -1.47393809350935 -1.90463909130913  0.26051689298930
 1 -0.76405079517952 -3.15871584388439  2.50681522262226
 1 -1.30879035763576 -4.68842567886789  1.91641067776778
 1 -1.94409306140614  3.44128881558156  4.17277965906591
 1 -2.75512316631663  4.88235787488749  4.56738240114011
 1 -3.18856878937894  3.41597479157916  5.27085406220622
 1 -5.45228908820882  6.49149713221322  2.35669778557856
 1 -10.03279726222622  2.78437558945895 -3.06911806640664
 1 -10.21229871277128  4.56968450295029 -2.84509750235024
 1 -9.49130489138914  4.12520042004200 -5.04344065466547
 1 -8.33898786478648  4.90018195879588 -4.28771845364536
 1 -8.28390866576658  3.16623093699370 -4.63925804050405
 1 -8.59144572617262 -0.80736399409941 -4.48161813081308
 1 -8.76224585248525 -2.66469352965297 -4.06342568646865
 1 -9.69576282538254 -1.40301693629363 -3.19154343944394
 1 -4.21250302630263 -3.78033385638564 -1.31647657775778
 1  2.56811475527553 -6.12109940304030  0.56016440434043
 1  2.10938426502650 -4.94807333373337 -0.67410284538454
 1  3.77591357375738 -4.58282840514051  1.93991235533553
 1  2.81160861276128 -3.45994754965497 -1.41189383948395
 1  3.94479181718172 -1.97756245684568 -1.51513973147315
 1  4.25101760916092 -3.77370922722272 -1.96654811211121
 1  4.79875374437444 -1.35342088668867  0.72169256035604
 1  5.34015637403740 -2.97802211941194  1.97877176347635
 1  6.84023324332433 -3.70392469196920  0.27920724242424
 1  6.27273611311131 -2.54657687368737 -0.95596528272827
 1  7.30928172977298 -0.84092064636464  0.94185293859386
 1  7.72192110231023 -2.21776002450245  1.90685815821582
 1  8.83050895049505 -1.82370041074107 -1.15942416111611
 1  9.15152731813181 -4.25704456435644 -0.32122459265927
 1  10.57716074547455 -3.42566592129213 -0.81925950785079
 1  10.00124687228723 -3.79371510011001  1.03733469646965
 1  9.36192725362536  0.06726513691369  0.23218239263926
 1  10.04251320992099 -0.90646896619662  1.52100303760376
 1  11.86810874197420 -1.74210153185319 -0.15542485028503
 1  11.23998993919392 -0.73237487298730 -1.39448029172917
 1  11.59250926902690  1.38865193699370 -0.25461267166717
 1  12.44132489118912  0.28893017631763  1.21309048414841
 1  13.27300804310431  0.48440318311831 -1.78023422822282
 1  14.51950217741774 -0.77386040334033  0.67759285678568
 1  13.67487787428743 -1.71935511441144 -0.48491474557456
 1  15.15482533903390 -0.89862319001900 -1.20034243724372
 1  13.34517376297630  2.59486778597860 -0.39148902620262
 1  14.61186879907991  1.63590000450045  0.78533736103610
 1  16.18885761286128  1.51307676917692 -0.97101491649165
 1  14.98620341584158  2.35001325272527 -2.03235676657666
 1  15.12275373747375  4.46655986368637 -0.90807208720872
 1  16.01899153305330  3.61206716611661  0.44717717651765
 1  18.02734255105511  3.14329783828383 -0.94585897379738
 1  16.50541767856786  4.71526880578058 -3.08114239313931
 1  17.93058544844484  4.50798719191919 -3.30096753035304
 1  16.86547123242324  3.04577948914891 -3.49891044424442
 1  17.86366424042404  5.30796144914491  0.20329949564957
 1  18.53016062686268  5.79837606410641 -1.33170531163116
 1  16.86753932373237  5.96745115521552 -0.94076242834283
 1 -4.99169705430543 -7.69183028242824  0.07169285328533
 1 -6.40619111041104 -6.88906828822882  0.90750059335934
 1 -4.96915913331333 -6.60975085128513  1.48668153655366
 8 -7.79729262456246  6.87719775117512 -0.51262469086909
 1 -8.95306869066907  6.49002641834184 -2.08916738423842

