%nproc=3
%Mem=2GB
# td=(NStates=1) iop(3/107=0140000000,3/108=0140000000) iop(3/107=0140000000,3/108=0140000000) CAM-B3LYP/6-31G(d,p) 

TD

0 1
12 -5.74671040224022  1.20243027072707  0.30828349714971
 6 -4.96496661846185 -2.16859082378238 -0.40705377047705
 6 -3.59593105300530  1.13878642014201  2.93277471567157
 6 -6.42780920322032  4.58167619071907  0.70608296949695
 6 -7.94719563756376  1.09869855225523 -2.35571966586659
 7 -4.38394547904791 -0.26410233333333  1.10533070007001
 6 -4.27360258065807 -1.60399158055806  0.66244996349635
 6 -3.20331173287329 -2.28687988658866  1.55814140274027
 6 -2.94847900330033 -1.29258992869287  2.67228401500150
 6 -3.69518631863186 -0.01053020562056  2.18794945354535
 6 -3.45810791879188 -1.90571726432643  3.93297115651565
 6 -1.91891673497350 -2.55363935713571  0.64772895899590
 6 -0.82561032393239 -3.38797388528853  1.38786266316632
 6  0.34473034043404 -3.82142701480148  0.51345950705071
 8  0.46742059595960 -3.27356704550455 -0.55879589498950
 8  1.07518920112011 -4.73429857465747  1.15686167466747
 7 -5.15876442744274  2.59852008870887  1.64357104370437
 6 -4.20254434163416  2.36725474147415  2.68077330313031
 6 -3.98351888908891  3.62426250875088  3.27994693909391
 6 -4.73582933863386  4.61416988248825  2.67777366156616
 6 -5.53803316571657  3.85155983248325  1.62423757565757
 6 -2.96802542744274  3.81864894859486  4.41366523702370
 6 -4.83104580458046  6.07609764396440  2.93594903170317
 8 -4.24998748604860  6.61916674687469  3.90274424692469
 7 -6.98424007360736  2.57551548404840 -0.63778644634463
 6 -7.17107930573057  3.92613301880188 -0.35539374247425
 6 -7.93519866006601  4.59284034083408 -1.26364917401740
 6 -8.51049408220822  3.59362849294929 -2.13015756815682
 6 -7.79598340984098  2.41336951105110 -1.72908667846785
 6 -8.36275855455546  6.03661503120312 -1.15750688528853
 6 -9.31411789018902  3.86662760106011 -3.29435198379838
 6 -8.67114609530953  3.92279364246425 -4.68739198589859
 7 -6.37366313361336 -0.17167234743474 -1.11174219461946
 6 -7.33833744044404 -0.09302020762076 -2.08720464306431
 6 -7.45481859845985 -1.29049420212021 -2.82304532913291
 6 -6.66480196389639 -2.20418419171917 -2.07644685458546
 6 -5.84841276477648 -1.37675170467047 -1.18269613431343
 6 -8.48041341604161 -1.58928871747175 -3.90066098549855
 6 -6.15634926202620 -3.54947405340534 -2.11494688858886
 8 -6.40388362896290 -4.57360233033303 -2.68793903960396
 6 -4.94298455195520 -3.54374614131413 -0.90250687148715
 6 -5.22761988958896 -4.56593179477948  0.06281343234323
 8 -5.58951313391339 -4.30057599099910  1.21241836213621
 8 -4.99326929012901 -5.87895177927793 -0.38571274267427
 6 -5.20424377357736 -6.93337692879288  0.48504603940394
 6  2.31580826242624 -5.01337759795980  0.59647762906291
 6  3.34153746384639 -3.95269676897690  0.99572085788579
 6  4.05293439713971 -3.15616543744374  0.20062243724372
 6  3.83145804310431 -3.06307949634963 -1.36992466126613
 6  5.10490469646965 -2.28919318751875  0.72846469736974
 6  6.48054365906591 -2.64215916891689  0.06946727262726
 6  7.66979610631063 -1.79984162996300  0.55248908350835
 6  9.01068967746775 -1.96394237623762 -0.00063677687769
 6  9.74448152825282 -3.35480538303830  0.33034615961596
 6  9.95052048764876 -0.82084270517052  0.43994195759576
 6  11.34085724302430 -0.80315311041104 -0.22119743034303
 6  12.29605722632263  0.29395858635864  0.17160794899490
 6  13.71439083318332  0.40963064996500 -0.52433219041904
 6  14.63165133813381 -0.79464019401940 -0.19319600480048
 6  14.39326926512651  1.77471224342434 -0.17791543394339
 6  15.55065434633463  2.02593452875288 -1.16010311801180
 6  16.17122674237424  3.41283379337934 -0.86681777477748
 6  17.46087048174817  3.74007292279228 -1.58642969076908
 6  17.28811779387939  3.80217578027803 -2.95320764076408
 6  18.09447286648665  4.93102122812281 -0.86184714171417
 1 -2.88660416631663  1.21026789038904  3.76227383858386
 1 -6.46633751665167  5.78142434463446  0.95843560626063
 1 -8.48127332643264  1.21914617611761 -3.21605698659866
 1 -3.49643670887089 -3.20717383408341  1.91688743084308
 1 -1.87220830683068 -1.06241384958496  2.94952711871187
 1 -2.94598392359236 -2.79661624252425  4.24518446434643
 1 -3.52137873797380 -1.08363048074807  4.85986212211221
 1 -4.63569524532453 -2.14802272027203  4.00679390199020
 1 -2.43093025862586 -3.18367141214121 -0.14969270387039
 1 -1.35342604230423 -1.75796442384238  0.23909475077508
 1 -0.29763415351535 -2.93194316661666  2.18982352345235
 1 -1.32978245684568 -4.23624046034603  1.91364040074007
 1 -2.13104175627563  3.41812649934994  4.15155753685369
 1 -2.95633328732873  4.92460209930993  4.81156681958196
 1 -3.40249018151815  3.00355354945495  5.24273124992499
 1 -5.51567542684268  6.72646062856286  2.32122423822382
 1 -10.28926290879088  3.09641679357936 -3.21087224182418
 1 -10.06030351325133  4.68227576207621 -2.99214220682068
 1 -9.33474923582358  4.00818871887189 -5.64099040964096
 1 -8.05408937493749  4.79470141074107 -5.00061974377438
 1 -8.07854812971297  3.03982829672967 -4.68616273097310
 1 -8.29086566816682 -1.01846510421042 -4.82042201120112
 1 -8.32436206410641 -2.60124718501850 -4.02600194409441
 1 -9.54844809390939 -1.25322195679568 -3.51429571467147
 1 -4.07906968296830 -3.75538136113611 -1.57997292739274
 1  2.73895183898390 -6.02073936703670  1.02639102700270
 1  2.14633796039604 -4.94803332973297 -0.48343377847785
 1  3.37903388578858 -3.98850897319732  2.07774613871387
 1  2.82431988388839 -3.22876443134313 -1.74254690479048
 1  3.91772911091109 -2.11840654125412 -1.68519673717372
 1  4.42047455485549 -3.76536839313931 -1.98370982828283
 1  4.69033290229023 -1.29535508010801  0.33090348144814
 1  5.22660501890189 -2.41635595279528  1.79131301760176
 1  6.70526974697470 -3.78555285478548  0.20595991769177
 1  6.44964380388039 -2.43117533353335 -0.96212589878988
 1  7.19900070167017 -0.92721927622762  0.37128588188819
 1  7.66317522772277 -1.74953320182018  1.64807227962796
 1  8.91648754835484 -1.94623266396640 -1.08462668136814
 1  9.02529469486949 -4.21837069696970  0.25924345414541
 1  10.70641367076708 -3.75458881358136 -0.15505308720872
 1  9.87777452505251 -3.36446217481748  1.39319028202820
 1  9.67743880478048  0.24448285868587  0.13459263366337
 1  10.16884584318432 -0.87002532183218  1.62364330163016
 1  11.85176710781078 -1.84128144984498  0.17705839803980
 1  11.39929586978698 -0.68549018451845 -1.30212105580558
 1  11.69476949504950  1.25842891469147  0.03973676327633
 1  12.59413017171717  0.24699598289829  1.18234740984098
 1  13.42332307460746  0.27304204700470 -1.53291949674968
 1  14.82470269746975 -0.70968398569857  0.91948704620462
 1  13.97465785228523 -1.81476465536554 -0.20305655975598
 1  15.58964882138214 -0.85243857155716 -1.01546394939494
 1  13.75292453805380  2.49884818401840 -0.47981785908591
 1  14.58949656185619  1.81723813831383  0.82952177947795
 1  16.32502122922292  1.23360882238224 -0.94863267826783
 1  15.27418221372137  1.93285153655366 -2.29619315021502
 1  15.44545600770077  4.16172938063806 -1.32373365336534
 1  16.26058569246925  3.72469842924293  0.28019047784778
 1  18.14849466626663  2.96253976247625 -1.57228161606161
 1  16.68412554935493  4.62015929482948 -3.42669694859486
 1  18.14670706060606  3.98687508070807 -3.73401083468347
 1  16.84254894019402  2.91846675787579 -3.37009756295630
 1  18.07613548754875  4.71232188518852  0.07290645634563
 1  18.92475008580858  5.45847207370737 -1.40616275737574
 1  17.11256382618262  5.63861827192719 -0.85774412651265
 1 -4.55874375897590 -7.66713781318132  0.17286297029703
 1 -6.36183667496750 -7.06643602500250  0.55841568486849
 1 -4.95348756615662 -6.66107598379838  1.61598446684668
 8 -7.88978187348735  6.79037906930693 -0.35274870327033
 1 -8.95258864266427  6.35409282498250 -2.00665913341334

