%nproc=3
%Mem=2GB
# td=(NStates=1) iop(3/107=0140000000,3/108=0140000000) iop(3/107=0140000000,3/108=0140000000) CAM-B3LYP/6-31G(d,p) 

TD

0 1
12 -5.54040977217722  1.25755578327833  0.17518018681868
 6 -4.98960908270827 -2.18010197489749 -0.34752781788179
 6 -3.38198965886589  1.18015055655566  2.77908934713471
 6 -6.09129555185519  4.58660668376838  0.62980534173417
 6 -7.95392631063106  1.21316999939994 -2.37300139403940
 7 -4.44658174267427 -0.34108003110311  1.09848001500150
 6 -4.27069228962896 -1.68394957635764  0.67761147964796
 6 -3.20103150485049 -2.35119631823182  1.53313890249025
 6 -2.98961311671167 -1.34843551325133  2.65080186678668
 6 -3.68236503650365 -0.08256740934093  2.17094775337534
 6 -3.44881698969897 -1.85784247684768  4.04905276467647
 6 -2.01178602190219 -2.68864285748575  0.69926411251125
 6 -0.89023678657866 -3.51444653255326  1.46526040294029
 6  0.23554942234223 -3.89167403950395  0.61954011511151
 8  0.46532038593859 -3.50404009280928 -0.50710072547255
 8  1.01217289948995 -4.80934607940794  1.35599158765877
 7 -4.87533608460846  2.65632586928693  1.42521920852085
 6 -3.95126921412141  2.43274129012901  2.45632085788579
 6 -3.62179271647165  3.69778986148615  3.14807375177518
 6 -4.41852760846085  4.69312777827783  2.52985887008701
 6 -5.20383974637464  3.93712838933893  1.51741689358936
 6 -2.68900752565257  3.90968805250525  4.23969784028403
 6 -4.71953465346535  6.05570560476048  2.97218265506551
 8 -4.08781126842684  6.55503033323332  3.97719169166917
 7 -6.84459610921092  2.66808474097410 -0.69906257395740
 6 -6.87419961776178  4.02461286678668 -0.35792399549955
 6 -7.68545368556856  4.67164822162216 -1.30493330243024
 6 -8.29562259505951  3.72787191729173 -2.10057460986099
 6 -7.74660847234724  2.42526070017002 -1.71185495529553
 6 -8.12049432813281  6.02344371407141 -1.20333146774678
 6 -9.34019049744975  3.84862580088009 -3.31848439703970
 6 -8.62600158085809  3.75192655575558 -4.69691293799380
 7 -6.24443021032103 -0.09080426062606 -1.15570659105911
 6 -7.33143675037504 -0.02508341394139 -2.08730465306531
 6 -7.73993711031103 -1.36651180388039 -2.54759778437844
 6 -6.76339182288229 -2.17740151345135 -2.04410362026203
 6 -6.01611953545355 -1.42406643614361 -1.03174103880388
 6 -8.62706808150815 -1.59302909150915 -3.75329624902490
 6 -6.25764939203920 -3.58091719771977 -1.95467086098610
 8 -6.70321356195620 -4.57290226032603 -2.48355860156016
 6 -5.07965821932193 -3.60412217891789 -0.94733135393539
 6 -5.35122224982498 -4.71040624222422  0.13804095509551
 8 -5.71202538513851 -4.49823575697570  1.25997311761176
 8 -4.94554451765176 -5.92347623172317 -0.41489566096610
 6 -5.44094744394439 -7.00617420852085  0.35229276407641
 6  2.29263594519452 -5.15367162736274  0.63041102240224
 6  3.37216052615262 -4.12681418071807  1.03375466126613
 6  4.03680278397840 -3.31046086698670  0.19012138713871
 6  3.64318921622162 -3.24458764716472 -1.33116078487849
 6  5.14163836983698 -2.37326159435944  0.72849470037004
 6  6.53103870857086 -2.71690664366437  0.05684601050105
 6  7.55519464616462 -1.81774342014201  0.46956079067907
 6  8.87561617011701 -2.00167614961496 -0.20315702890289
 6  9.57862494259426 -3.34262416491649  0.06152927792779
 6  9.90976641224123 -0.88409903080308  0.31935989938994
 6  11.36825998329833 -0.79970276537654 -0.34062937353735
 6  12.20800842144214  0.44986417691769  0.06601738993899
 6  13.53675306940694  0.51515120202020 -0.65665542274227
 6  14.41188936193619 -0.71735246524652 -0.35818250345035
 6  14.22575251345135  1.78377314951495 -0.14337197959796
 6  15.39765904680468  2.24748668396840 -0.94882198989899
 6  15.94174379407941  3.64528703870387 -0.65204629762976
 6  17.34135853055306  3.89008792429243 -1.34893594139414
 6  17.20611959405941  4.13314887758776 -2.78674099409941
 6  17.89889330853085  5.18476660266027 -0.66653761076108
 1 -2.86776228212821  0.93333019661966  3.79062667386739
 1 -6.35379626252625  5.64078028022802  0.71481124382438
 1 -8.97851305040504  1.32990725222522 -2.79096447734773
 1 -3.81199826502650 -3.20592370907091  2.10325606770677
 1 -1.95476656265627 -0.87474508270827  2.67879004500450
 1 -3.03526285148515 -2.82082866376638  4.26992693859386
 1 -3.10936753685369 -1.07980009770977  4.94577071297130
 1 -4.64639631543154 -2.01740965896590  4.22140536313631
 1 -2.21174834043404 -3.28845189018902 -0.28480621522152
 1 -1.50780147984798 -1.77478610601060  0.52935377667767
 1 -0.64124851495150 -2.94435440774077  2.24211875297530
 1 -1.44613409200920 -4.65270210651065  1.83721275797580
 1 -1.61397004910491  3.92035672237224  3.80591297239724
 1 -2.79594724872487  4.76931657075708  4.81300696359636
 1 -2.83531346384639  2.91446464056406  4.99140611741174
 1 -5.69301316061606  6.74552253475347  2.68197031283128
 1 -10.00711469396940  2.92002915481548 -3.19128028262826
 1 -9.89574705760576  4.85131266576658 -3.22354534713471
 1 -9.10938669956996  3.91950985098510 -5.66145245584558
 1 -8.03016698269827  4.63037497809781 -4.71140082188219
 1 -8.16304657955795  2.84814912881288 -4.68480259495950
 1 -8.33660024162416 -0.86161941964196 -4.56852682168217
 1 -8.66479610751075 -2.63059011931193 -4.02451179507951
 1 -9.71204445354535 -1.22685932053205 -3.45415970107011
 1 -4.21443321932193 -3.96057188018802 -1.34538946904690
 1  2.60434837863786 -6.06430372347235  1.16691507940794
 1  2.03496682328233 -5.49756828322832 -0.37184261936194
 1  3.82080806320632 -4.31152127442744  2.12420078417842
 1  2.53960141204120 -3.30440199509951 -1.40078272837284
 1  3.84438177617762 -2.22268696929693 -1.79364758225823
 1  4.18862136953695 -3.96164802110211 -1.88425988328833
 1  4.84589845884588 -1.42061760636064  0.80257064816482
 1  5.38503086148615 -2.78370268746875  1.75599948624863
 1  6.82098131813181 -3.76057035653565 -0.03750442874287
 1  6.27788662816282 -2.69218143414341 -1.11807149334933
 1  7.12972377397740 -0.83058961326133  0.29079783308331
 1  7.87407631783178 -1.63098134663466  1.52298977137714
 1  8.71022692229223 -1.78781682238224 -1.28189640834083
 1  8.82050421582158 -4.19295815571557 -0.36065853605361
 1  10.77458048744874 -3.31963531823182 -0.02583016491649
 1  9.32655940354035 -3.59376510511051  1.31032199519952
 1  9.47379844074407  0.12165057545755  0.04947412181218
 1  10.04376333493349 -1.02392071137114  1.43358429572957
 1  11.89266119721972 -1.77587490919092 -0.18097740554055
 1  10.90510645084508 -0.70541217671767 -1.47053789748975
 1  11.71123114121412  1.33305637743774  0.06100889048905
 1  12.35796655535554  0.20272155545555  1.12901207630763
 1  13.47192793509351  0.46489123192319 -1.50068627342734
 1  14.66819704690469 -0.86468948624863  0.76544164166417
 1  13.96291667816782 -1.63461664056406 -0.58560481458146
 1  15.22003185968597 -0.55610893859386 -0.99178158115812
 1  13.45068431403140  2.60584888408841 -0.04668454575458
 1  14.60102771497150  1.66890330483048  0.96487531483148
 1  16.16635536263626  1.50432589408941 -0.65159297429743
 1  15.27661245674567  2.22389064046405 -2.00204373527353
 1  15.12243370547055  4.39095230293029 -1.27793907390739
 1  16.01795142904290  3.71325728512851  0.54671713051305
 1  18.08786860366036  3.13981749024902 -1.16857124502450
 1  16.54703183998400  4.91466874577458 -2.82155643454345
 1  18.09946233613361  4.34723111631163 -3.16246367996800
 1  16.70632531783178  3.41821673287329 -3.40263081628163
 1  18.03070094409441  5.21826247924793  0.32737190289029
 1  18.75382299309931  5.39069529602960 -1.31422356345635
 1  17.27793036283628  5.94095850595060 -0.91317967006701
 1 -5.05995387998800 -7.89250034943494 -0.02679699569957
 1 -6.41730222152215 -6.80554993639364  0.29415925922592
 1 -5.15540775817582 -6.95422529872987  1.56218908730873
 8 -7.80766366166617  6.88897892929293 -0.42165559395940
 1 -8.88950233403340  6.24072148784879 -2.02237070457046

