%nproc=3
%Mem=2GB
# td=(NStates=1) iop(3/107=0140000000,3/108=0140000000) iop(3/107=0140000000,3/108=0140000000) CAM-B3LYP/6-31G(d,p) 

TD

0 1
12 -5.65813154435444  1.26631665936594  0.20400306910691
 6 -4.97565768756876 -2.10707467216722 -0.31763482858286
 6 -3.38388984888489  1.23329587108711  2.77569900810081
 6 -6.13482990529053  4.57308533163316  0.61967432863286
 6 -7.94162508050805  1.11710039243924 -2.29849394329433
 7 -4.42536962146215 -0.21926784988499  1.15184535153515
 6 -4.27675289568957 -1.57607878927893  0.74611833033303
 6 -3.25502690439044 -2.32647384598460  1.59102469106911
 6 -2.97490164556456 -1.28566923662366  2.63319010561056
 6 -3.64557135713571 -0.01452060466047  2.27038769736974
 6 -3.37737984598460 -1.75416210881088  4.00818867826783
 6 -1.96362120542054 -2.61059505270527  0.72476666276628
 6 -1.05551331423142 -3.61090617851785  1.49127300420042
 6  0.24673054045405 -3.87624249634964  0.80822898399840
 8  0.36033988788879 -3.51870155895590 -0.41425144054405
 8  1.09048073027303 -4.68428357315732  1.41866785528553
 7 -4.80110866186619  2.63465370207021  1.45726241284128
 6 -3.94159824702470  2.42038005400540  2.44519974577458
 6 -3.68564910211021  3.64367444994499  3.11228017241724
 6 -4.41992774847485  4.65998446394639  2.47034291849185
 6 -5.15262462486249  3.94809948644864  1.40817596949695
 6 -2.85829445434543  3.86146323002300  4.33915778627863
 6 -4.64946764676468  6.03818385258526  2.89112454925493
 8 -4.08296078337834  6.61907673787379  3.81204517701770
 7 -6.80021167076708  2.65035296779678 -0.72921558925893
 6 -6.90271246904690  3.91710211571157 -0.32841104420442
 6 -7.87372251245124  4.59684074087409 -1.23971678077808
 6 -8.39062209500950  3.69819894999500 -2.06047059945995
 6 -7.72221603310331  2.37589576367637 -1.76665043484348
 6 -8.23403568226823  6.02630400010001 -1.16424755935594
 6 -9.45282176057606  3.78282922122212 -3.17823037163716
 6 -8.87397637833783  3.83632499559956 -4.56727997469747
 7 -6.31059682698270 -0.14270945114511 -1.13441446184618
 6 -7.26955056175618 -0.01118202380238 -2.14264018661866
 6 -7.52058517511751 -1.31148630133013 -2.77134015861586
 6 -6.71802728642864 -2.23288706200620 -2.07893710361036
 6 -5.93089101260126 -1.40364439393939 -1.22022988768877
 6 -8.58730410511051 -1.55104489308931 -3.80331125052505
 6 -6.26374000110011 -3.55023412941294 -1.98163355725573
 8 -6.60872411301130 -4.59060403050305 -2.61112135783578
 6 -5.07255750925092 -3.55921768846885 -0.80549717051705
 6 -5.26758388598860 -4.69331453305331  0.13308045904590
 8 -5.79842402500250 -4.47435336873687  1.19433655395540
 8 -5.03274323752375 -5.84814869896990 -0.35715988738874
 6 -5.40916426562656 -7.03329692079208  0.43423095789579
 6  2.32338902050205 -5.03530979117912  0.69629761106111
 6  3.34811812191219 -4.07033853315331  0.94425571137114
 6  4.02486158985899 -3.27411723262326  0.01742411741174
 6  3.67081197849785 -3.29800298869887 -1.43198086688669
 6  5.10726493249325 -2.40160442864286  0.54148599949995
 6  6.62797840254025 -2.84505945894589 -0.05995566966697
 6  7.66684581128113 -1.90642228802880  0.46892072667267
 6  9.05624423292329 -2.09206518851885 -0.15011172437244
 6  9.62781986208621 -3.48272817531753  0.02720584558456
 6  9.91991742734274 -0.84066468736874  0.37453541694169
 6  11.25074823212321 -0.76817961306131 -0.26169147974797
 6  12.25906352695270  0.30970016051605  0.27994878307831
 6  13.51274066816682  0.47747743464346 -0.61782153935394
 6  14.51991016401640 -0.60641137113711 -0.48176486168617
 6  14.21173111131113  1.78548332053205 -0.22037968036804
 6  15.50475975687569  2.14735667096710 -1.03110021772177
 6  15.99921954165417  3.53443595359536 -0.57623871687169
 6  17.28503289798980  3.83619253475348 -1.27732878067807
 6  17.06002498459846  4.12588815151515 -2.71923424342434
 6  17.94622804200420  5.24534266026603 -0.63315427242724
 1 -2.63499900580058  1.15514237783778  3.55837344854485
 1 -6.39257013991399  5.53356955915592  0.80547030973097
 1 -8.57166236533653  1.18113237473747 -3.28840422132213
 1 -3.71416848204820 -3.37942105880588  1.94096983908391
 1 -1.88857994399440 -0.86589419761976  2.73148531453145
 1 -2.97072639783978 -2.54407098799880  4.33301324722472
 1 -2.96204280438044 -1.06746886458646  4.88153428932893
 1 -4.61505318111811 -1.84083200120012  4.01958518111811
 1 -2.27152431803180 -3.12620566556656 -0.13537127172717
 1 -1.51857255695570 -1.74124275167517  0.57782862416242
 1 -0.61299568966897 -3.28736870917092  2.46142068316832
 1 -1.69157863646365 -4.61736857315732  1.59767880458046
 1 -1.78676732883288  3.84182886958696  4.01633401450145
 1 -2.92995064906491  4.83527316641664  4.66744240714071
 1 -3.17193712621262  3.21615480958096  5.15957293409341
 1 -5.30542440174017  6.84948293079308  2.50154227002700
 1 -10.06262024452445  2.82170932283228 -3.09629078367837
 1 -10.26997448034803  4.45394292879288 -2.90122311491149
 1 -9.69665542644264  3.93864176417642 -5.45615192579258
 1 -8.16196016201620  4.83152509310931 -4.59737941974197
 1 -8.12337261216122  2.96323063696370 -4.75754986968697
 1 -8.46110269186919 -1.11957521522152 -4.80712068106811
 1 -8.71394102200220 -2.64933199349935 -3.93743308720872
 1 -9.55801905100510 -1.13051968656866 -3.24824911001100
 1 -4.43404518051805 -3.96316213921392 -1.35318024812481
 1  2.43899184298430 -6.05561285438544  0.97709609750975
 1  2.10014334093409 -5.21073960036004 -0.38984441954195
 1  3.60565654805481 -4.09591971427143  1.99756812091209
 1  2.59842729462946 -3.61097265216522 -1.62415506560656
 1  3.81454879287929 -2.18597329792979 -1.74169238673867
 1  4.46828933633363 -3.79119097539754 -2.01467292459246
 1  5.22221609060906 -1.38130367496750  0.20698108920892
 1  5.11328368676868 -2.15096941414141  1.81723560986099
 1  6.53742296229623 -3.95335963546355  0.24988431013101
 1  6.64492333183318 -2.90240245624562 -1.10354004020402
 1  7.49309011061106 -0.81934848914891  0.36301505480548
 1  7.64996390659066 -2.08960720922092  1.56195366776678
 1  9.06904280388039 -1.89142718341834 -1.32440065876588
 1  9.13184534993499 -4.22965182508251 -0.56710918111811
 1  10.83373640304030 -3.40500385508551 -0.26860444234423
 1  9.61191793939394 -3.57021274987499  1.19332029502950
 1  9.25873693459346  0.15841425182518  0.28242741714171
 1  9.99857881648165 -0.94188250755075  1.47978891619162
 1  11.81178310941094 -1.65984330603060 -0.21088039583958
 1  11.06457239743974 -0.70548218371837 -1.28487933163316
 1  11.86922694079408  1.27292036383638  0.22974576417642
 1  12.40271102980298  0.02394367766777  1.32129130423042
 1  13.52576331863186  0.30206494929493 -1.71794799959996
 1  14.72276250345035 -0.84274729202920  0.50322542004200
 1  14.24212459895990 -1.57140031893189 -1.00735698979898
 1  15.35282513901390 -0.42644597229723 -1.25904830783078
 1  13.66842608820882  2.66129442864286 -0.43839371667167
 1  14.40053766596660  1.59080549504950  0.84453328062806
 1  16.11290001710171  1.11175663716372 -1.04559237423742
 1  15.26167096259626  2.16605485688569 -2.09359289018902
 1  15.28740020212021  4.36524973267327 -0.72197347734773
 1  16.08385801970197  3.60355631503150  0.57757021582158
 1  18.18161797859786  3.32627613611361 -1.13283767166717
 1  16.37523466026603  5.08828610751075 -2.65897017591759
 1  18.01203359325932  4.48917531073107 -3.28566600020002
 1  16.72472715801580  3.27114202540254 -3.38123867706771
 1  18.12558043204320  5.12437309030903  0.42658182388239
 1  18.87894550535054  5.47346357285728 -1.21019316041604
 1  17.14837740754075  5.94435884598460 -0.82509086118612
 1 -4.86056394099410 -7.91408250765076 -0.18906322232223
 1 -6.52529302060206 -7.03005238663866  0.44765460876088
 1 -4.92820503790379 -7.04874475067507  1.42055492389239
 8 -7.86412930823082  6.81411144254425 -0.36954038243824
 1 -8.86679006280628  6.36683409910991 -1.97061552905291

