%nproc=3
%Mem=2GB
# td=(NStates=1) iop(3/107=0140000000,3/108=0140000000) iop(3/107=0140000000,3/108=0140000000) CAM-B3LYP/6-31G(d,p) 

TD

0 1
12 -5.57071280248025  1.22130215791579  0.17376004480448
 6 -4.97387750955096 -2.11693565826583 -0.43866693179318
 6 -3.40602206210621  1.17824036553655  2.76973841204120
 6 -6.15196161846185  4.59880790389039  0.69239160036004
 6 -7.90365128312831  1.12268095049505 -2.39139323322332
 7 -4.32645973047305 -0.20822674577458  0.99824999199920
 6 -4.18426364676468 -1.50287146854685  0.63241696019602
 6 -3.11724312601260 -2.30184138273827  1.48689427802780
 6 -2.86919107450745 -1.28949961966197  2.65942272887289
 6 -3.52542934293429 -0.06508566116612  2.13212387098710
 6 -3.19428153615361 -1.78413510611061  4.02554041344134
 6 -1.91205604890489 -2.71101509470947  0.63632781888189
 6 -1.00258802170217 -3.64105919381938  1.34882875977598
 6  0.32211807920792 -3.85792066416642  0.59925808690869
 8  0.56652050595059 -3.46462615141514 -0.44501451685169
 8  1.00857253945395 -4.74832997779778  1.29737572607261
 7 -4.96094464546455  2.60347058375838  1.50219690629063
 6 -4.05195928312831  2.33402141814181  2.49815504130413
 6 -3.76369690689069  3.70147022952295  3.15652459685969
 6 -4.51968772447245  4.57279574507451  2.48860474467447
 6 -5.24984434683468  3.90470514701470  1.47761291319132
 6 -2.74365299019902  3.81641872557256  4.27870174067407
 6 -4.52798549854985  6.03243327752775  2.79432486928693
 8 -4.02473496079608  6.56317114731473  3.82435640814081
 7 -6.83739538913891  2.66379431193119 -0.75912858055806
 6 -6.94311650945095  4.04129453495350 -0.34167237033703
 6 -7.93869901010101  4.69069012581258 -1.20656346544654
 6 -8.45504853765376  3.69613874397440 -2.07257180958096
 6 -7.63685749724972  2.44077225132513 -1.80322409220922
 6 -8.38100037873788  6.04639600930093 -1.19745087968797
 6 -9.46225270367037  3.82433337163716 -3.10457300590059
 6 -8.66350533123312  3.94677604070407 -4.52261550825082
 7 -6.36658242554255 -0.11302648284828 -1.10686170657066
 6 -7.32698630533053 -0.03878478407841 -2.04373029562956
 6 -7.50312342894289 -1.33859901260126 -2.72088511311131
 6 -6.70818630233023 -2.20910468376838 -1.98051726162616
 6 -5.95495341884188 -1.42194622412241 -1.08061592629263
 6 -8.61465684038404 -1.66890667926793 -3.79103002240224
 6 -6.17287091419142 -3.56227533353335 -2.07355274917492
 8 -6.63895713631363 -4.52880785088509 -2.65927617331733
 6 -4.97624787828783 -3.46834860156016 -0.98078469926993
 6 -5.33130025762576 -4.58477367896790  0.06812396339634
 8 -5.75697988058806 -4.38848478187819  1.17704482478248
 8 -4.92044200740074 -5.87204108820882 -0.34360853225323
 6 -5.21892524172417 -6.93906749784979  0.67758529332933
 6  2.30242692429243 -5.14349060926093  0.55618359965997
 6  3.41225453555356 -4.19062056135613  1.04956624242424
 6  3.97678678237824 -3.27159698059806  0.28023039803980
 6  3.73496839413941 -3.07521070947095 -1.20237790659066
 6  5.14834904090409 -2.48973324152415  0.76293814471447
 6  6.52061766646665 -2.80934588758876  0.05016534243424
 6  7.52223134983498 -1.76523816961696  0.49441327592759
 6  8.93937254575458 -2.03627960996100 -0.02795950915092
 6  9.38157523762376 -3.31705160766077  0.32520564556456
 6  9.97126256185619 -0.99259988088809  0.50563852725273
 6  11.25586874417442 -0.89862265736574 -0.16980229082908
 6  12.13765138573857  0.27966715721572  0.12402319051905
 6  13.46332572667267  0.44654434133413 -0.54641439863986
 6  14.40090826382638 -0.77189791979198 -0.58242492769277
 6  14.22823276147615  1.73043781598160 -0.14512215461546
 6  15.44634391529153  2.09709164446445 -1.00498760646065
 6  15.91311093079308  3.52553506350635 -0.70359145214521
 6  17.25940033473347  3.94568348384839 -1.31431247904790
 6  16.97740672277228  4.30488605130513 -2.89408172817282
 6  17.84964838403840  5.18783690969097 -0.67943890089009
 1 -2.70412591849185  1.07532439603960  3.67116472767277
 1 -6.43845472837284  5.66781298349835  0.73600336303630
 1 -8.79714491359136  1.02877713921392 -3.25704108500850
 1 -3.49405647084708 -3.16911002770277  2.00869661176118
 1 -1.72912399839984 -1.05627323552355  2.69785195119512
 1 -2.52647197239724 -2.66876345724572  4.16228617451745
 1 -2.77776437653765 -1.07292941064106  4.71565770167017
 1 -4.42908458425843 -1.90630854885489  4.43397662026203
 1 -2.33375054065407 -3.28027107210721 -0.28059579417942
 1 -1.42992369206921 -1.72190081748175  0.39600044134413
 1 -0.92149653975398 -3.20489046134613  2.43636817791779
 1 -1.54840431903190 -4.62965980228023  1.42665170187019
 1 -1.77269592169217  3.48272295899590  3.87998037913791
 1 -2.71945959996000  4.81173081218122  4.51905756865686
 1 -3.11701163366337  3.29218241234123  5.06352332913291
 1 -5.08213207250725  6.65645362786279  2.12861497729773
 1 -10.03296727922792  2.84649180108011 -3.21903305790579
 1 -9.96027351025103  4.77757529202920 -3.02436542914291
 1 -9.49506526742674  3.93479137913791 -5.38891520212021
 1 -8.09747371337134  4.90546248684868 -4.41585126692669
 1 -8.15384565946595  3.05569988388839 -4.67134124882488
 1 -8.54281086268627 -1.07230048774877 -4.70919088808881
 1 -8.51121074897490 -2.74611167146715 -4.16429577347735
 1 -9.52318556765677 -1.37549418401840 -3.61488577367737
 1 -4.15994777077708 -3.81064688768877 -1.59830476057606
 1  2.58457640144014 -6.23717101020102  0.67904629252925
 1  2.03631695829583 -5.31595012141214 -0.41316675177518
 1  3.41479746214621 -3.87155727802780  2.14626299039904
 1  2.67897534943494 -3.11298285318532 -1.61107375747575
 1  4.16370370837084 -2.06029072967297 -1.39628784628463
 1  4.31343385078508 -3.77683954025403 -1.54082553985399
 1  4.98811268026803 -1.35806135073507  0.54094448554855
 1  5.37202956135614 -2.65283960116012  1.83179706600660
 1  6.89280850085008 -3.75849014851485  0.29275859755976
 1  6.58068690819082 -2.62618483448345 -1.04589427562756
 1  7.11412221382138 -0.81034758905891  0.20818957225723
 1  7.69946885708571 -1.71478972747275  1.75101257365737
 1  9.09261516111611 -1.83585162586259 -1.17529574827483
 1  8.74379654505451 -4.20144900480048 -0.14715718591859
 1  10.43966699609961 -3.47728108280828 -0.13656123802380
 1  9.17042378997900 -3.78074380298030  1.31567253025303
 1  9.59952101300130  0.01012942334233  0.23232240664066
 1  9.89553851245124 -0.98964728402840  1.51834277157716
 1  11.84188611971197 -1.99582690439044 -0.06975628342834
 1  10.87660360056006 -0.89468110361036 -1.08480932463246
 1  11.50175019311931  1.27642071387139  0.03761655125513
 1  12.22571333003300  0.18784006730673  1.27929710481048
 1  13.11966270857086  0.45338008080808 -1.52235844064406
 1  14.67783801100110 -1.07243026032603  0.50378547604760
 1  13.97332771927193 -1.75206838573857 -1.14562081618162
 1  15.33821367786779 -0.79366269396940 -1.12332473547355
 1  13.44225347094709  2.51207950715072 -0.24312418971897
 1  14.41645925812581  1.82313872837284  0.84128295559556
 1  16.32560128722872  1.48077353885389 -0.94069188418842
 1  15.11289608510851  1.89035728712871 -2.15404893579358
 1  15.06382784488449  4.26133934163416 -1.03279455945595
 1  16.04059369326933  3.56341230063006  0.43949640844084
 1  18.09678949574958  3.04155766426643 -1.53713810171017
 1  16.27582471927193  5.01270854975498 -3.08330260916092
 1  17.97200959085908  4.66414280748075 -3.52651008460846
 1  16.64989967526753  3.50294520572057 -3.40986153935393
 1  18.01205907990799  5.16193684668467  0.58704787048705
 1  19.08605621642164  5.09260548704871 -1.13608574967497
 1  17.26268883868387  6.22890730083008 -0.87416576867687
 1 -5.37076496109611 -7.77441854125413  0.05332101610161
 1 -6.38135862716272 -6.88603798519852  0.91802164546455
 1 -4.30206242364236 -7.02380225642564  1.36874974337434
 8 -7.91599449474947  6.85086511791179 -0.35296872527253
 1 -9.05451883568357  6.12021943764377 -1.80932940044004

