%nproc=3
%Mem=2GB
# td=(NStates=1) iop(3/107=0140000000,3/108=0140000000) iop(3/107=0140000000,3/108=0140000000) CAM-B3LYP/6-31G(d,p) 

TD

0 1
12 -5.65734146534654  1.16895692339234  0.31168383718372
 6 -4.94381450325032 -2.20372433713371 -0.45544860996100
 6 -3.36793825372537  1.28299084058406  2.65849728792879
 6 -6.26107252955296  4.61193921702170  0.63781614281428
 6 -8.05978689668967  1.11593027542754 -2.31933602750275
 7 -4.25543262776278 -0.22842876597660  0.93825399239924
 6 -4.21659688008801 -1.63613479487949  0.59959367786779
 6 -3.18236963866387 -2.28812001060106  1.52124771337134
 6 -2.93530768616862 -1.28419908960896  2.63276006260626
 6 -3.50578737873787 -0.03478263086309  2.08667932653265
 6 -3.42114422242224 -1.72870956355636  3.97553541294129
 6 -1.97281212451245 -2.65064905810581  0.63788797489749
 6 -0.97566532943294 -3.52073716161616  1.46959083598360
 6  0.27179304670467 -3.84056892899290  0.61101926302630
 8  0.43489734363436 -3.46873656245625 -0.56423643904390
 8  1.12439412161216 -4.65982112691269  1.32432842134213
 7 -4.95453400440044  2.63465370207021  1.48287497409741
 6 -4.02628671587159  2.46047406340634  2.42900812661266
 6 -3.68358889608961  3.73602368486849  3.13816276067607
 6 -4.56591234693469  4.64818328382838  2.59114499869987
 6 -5.31042040444044  4.04990966746675  1.49130428232823
 6 -2.87019564446445  3.85958304200420  4.40839470997100
 6 -4.61467416741674  6.13067310151015  2.84447988478848
 8 -3.97244973227323  6.59996482668267  3.73871784428443
 7 -6.90469211881188  2.58650658315832 -0.71980464816482
 6 -6.93215541334133  3.98367877337734 -0.44224242734273
 6 -7.96127126732673  4.59161021782178 -1.18093090219022
 6 -8.51854488728873  3.59222835293529 -1.98464301670167
 6 -7.71807561906191  2.36712488658866 -1.67001077087709
 6 -8.44499677837784  5.93027439713971 -1.00987212181218
 6 -9.56927340574057  3.68615955425543 -3.07492004060406
 6 -8.98518749944995  3.97816918001800 -4.48734198089809
 7 -6.23702947024702 -0.13479866006601 -1.15137615801580
 6 -7.23868747544754 -0.05204611021102 -2.11578750135013
 6 -7.47610072667267 -1.27724287698770 -2.71686471107111
 6 -6.72532801650165 -2.21971574487449 -2.08367757765777
 6 -5.90732865636564 -1.41125515501550 -1.17669553425343
 6 -8.52109748444845 -1.65292508110811 -3.82225314471447
 6 -6.25831945904590 -3.56988609460946 -2.08568396229623
 8 -6.60047328792879 -4.63335830593059 -2.64730497619762
 6 -5.07755800930093 -3.64195596229623 -1.01598821962196
 6 -5.29368649624962 -4.66744194579458  0.03951110211021
 8 -5.67221140374037 -4.43642957635764  1.20534765506551
 8 -5.01742170537054 -5.87355123922392 -0.41713588498850
 6 -5.34624797399740 -7.01902549364936  0.60336787158716
 6  2.30212689428943 -4.99547580778078  0.63018099939994
 6  3.46026933703370 -4.13534503380338  1.02272355815582
 6  3.98501760546055 -3.17093691459146  0.26899927492749
 6  3.81321621892189 -2.96905009340934 -1.30021769056906
 6  5.15617982398240 -2.35978024622462  0.67190904180418
 6  6.44749035373537 -2.59290424342434  0.01464179007901
 6  7.59928905560556 -1.71408305410541  0.53859769436944
 6  8.93511211971197 -1.97979396139614 -0.05216192939294
 6  9.37411449154915 -3.47608751125113  0.16514963996400
 6  10.00531596719672 -0.94710533143314  0.52022998639864
 6  11.37695085238524 -0.96166896199620 -0.26158146874687
 6  12.17401502210221  0.28665785628563  0.15231601980198
 6  13.57200659475948  0.39200888778878 -0.60552030923092
 6  14.48934710771077 -0.82400313031303 -0.32035872107211
 6  14.25625556375638  1.77944271647165 -0.25049269166917
 6  15.52231151205121  2.06438837413741 -0.99515662336234
 6  16.13052267196720  3.49855236523652 -0.64643573657366
 6  17.41070546524653  3.81290020552055 -1.30859190699070
 6  17.22404138623862  4.05048061076108 -2.79941226122612
 6  18.11950536973697  5.11302942894289 -0.79624058105811
 1 -2.79289479537954  1.24883174677468  3.54367197839784
 1 -6.25043592649265  5.66929313151315  0.79030879357936
 1 -8.80101530063006  1.18751301280128 -3.00634601550155
 1 -3.60439750495050 -3.23707682438244  1.98162390449045
 1 -1.95327641364136 -0.98543615181518  2.80998316431643
 1 -2.93907323252325 -2.81001758265827  4.29767971387139
 1 -3.45130173027303 -0.88571068876888  4.64630076597660
 1 -4.57691936773677 -1.72682060006001  3.80373359595960
 1 -2.16348351395140 -3.27373041804180 -0.25108284288429
 1 -1.62811351105110 -1.57910653805381  0.12111295259526
 1 -0.49484387448745 -2.93506347864786  2.19308384948495
 1 -1.43054253285328 -4.28763559985999  1.89480851755175
 1 -1.74036268836884  3.68588327502750  4.13710609170917
 1 -2.99343699769977  4.92286192529253  4.94010967386739
 1 -3.37272720522052  3.06061925602560  5.05204218101810
 1 -5.40822468176818  6.70685866836684  2.30068218401840
 1 -10.24583856635664  2.65858301020102 -3.03619477407741
 1 -10.16900438333833  4.51018855335534 -2.90648364096410
 1 -9.81306706760676  4.21315921592159 -5.21372768336834
 1 -8.52061602760276  4.93711565216522 -4.57074675647565
 1 -8.28729900480048  3.11831614551455 -4.86467058175818
 1 -8.61505808740874 -1.28192144984498 -4.91302127112711
 1 -8.28334796269627 -2.77790485078508 -4.27109645354535
 1 -9.59718296739674 -1.55382201680168 -3.59748403350335
 1 -3.98667044304430 -3.97248307130713 -1.51565649574957
 1  2.50689863366337 -5.97978527162716  0.89857824572457
 1  2.16920024662466 -4.99460798719872 -0.36201163626363
 1  3.91860784318432 -4.04756487878788  2.00228859295930
 1  2.76254370627063 -3.18183973887389 -1.71250390049005
 1  4.19199653765377 -1.75335003560356 -1.53602181968197
 1  4.52407491489149 -3.62015387168717 -1.72708416571657
 1  4.88990285928593 -1.09349489408941  0.63508389948995
 1  5.24584694309431 -2.41818613581358  1.74053794009401
 1  6.95317453745374 -3.54213851335134  0.09570889258926
 1  6.24632347184718 -2.56806902290229 -1.04253393959396
 1  7.42540334193419 -0.55861241554155  0.50907966126613
 1  7.64194310451045 -1.91435968446845  1.53471094349435
 1  8.91354725432543 -1.83712175287529 -1.11109932863286
 1  8.70432259765977 -3.97097595749575 -0.26142861306131
 1  10.28865189458946 -3.73185654035404 -0.43513109500950
 1  9.32748949654965 -3.55730145874587  1.31228219121912
 1  9.53525458635863 -0.07911950155015  0.56861603600360
 1  10.06829578817882 -1.02041036033603  1.49379031633163
 1  11.99031096219622 -1.90942826452645 -0.17669697749775
 1  11.33892983318332 -0.80236187168717 -1.33123396709671
 1  11.78811882998300  1.30558363016302 -0.06499370977098
 1  12.28545930463046  0.47733901720172  1.27788696379638
 1  13.27004774707471  0.27950269306931 -1.66133233803380
 1  14.53789401660166 -0.80967398469847  0.64095919341934
 1  13.91652203870387 -1.58966214511451 -0.83436969106911
 1  15.54913476997700 -0.75437876557656 -0.72929533253325
 1  13.53534277987799  2.68932723192319 -0.54038391569157
 1  14.49611722392239  1.89305572007201  0.80047887518752
 1  16.32066079317932  1.32046750825083 -0.69832764776478
 1  15.44374917041704  2.01198945034503 -2.19131266216622
 1  15.44681614371437  4.23409661736174 -0.96471775177518
 1  16.30937057095709  3.70622658205821  0.44388684748475
 1  18.05779559635964  2.98178168666867 -1.04048843674367
 1  16.62695983278328  4.96985426432643 -2.90708498739874
 1  18.18743113301330  4.43775016821682 -3.11149858345835
 1  16.63284797009701  3.28673358455846 -3.35333588678868
 1  18.06954482848285  5.02388304130413  0.30142930863086
 1  19.28711632243224  4.96717294379438 -1.03173531463146
 1  17.51483405320532  6.02485689578958 -1.17571592369237
 1 -5.20858874347435 -8.04687578697870  0.08604428842884
 1 -6.50080057135714 -6.96430581198120  0.75258510181018
 1 -4.72235445284528 -6.83256313251325  1.43415628402840
 8 -7.93161605690569  6.80008003940394 -0.29102253065307
 1 -9.36780016381638  6.32444986068607 -1.61694016151615

