%nproc=3
%Mem=2GB
# td=(NStates=1) iop(3/107=0140000000,3/108=0140000000) iop(3/107=0140000000,3/108=0140000000) CAM-B3LYP/6-31G(d,p) 

TD

0 1
12 -5.70581631283128  1.25735576327633  0.26950961976198
 6 -5.01298141994199 -2.12166613131313 -0.37762082718272
 6 -3.47827928782878  1.14669721122112  2.78424986318632
 6 -6.20303672597260  4.48273629672967  0.56919928112811
 6 -8.02069298729873  1.14886356875688 -2.32574666856686
 7 -4.40675776027603 -0.27164308740874  1.13696386338634
 6 -4.22407762816282 -1.61363254465447  0.71508522702270
 6 -3.18973037473747 -2.37586878547855  1.42644823342334
 6 -2.94943909930993 -1.31699236893689  2.59322610921092
 6 -3.53753055305531 -0.05407456005601  2.20098075667567
 6 -3.57219932793279 -1.82515920852085  3.88281614101410
 6 -1.98855369866987 -2.56680067326733  0.62041622772277
 6 -1.06862462536254 -3.56006109400940  1.38797267416742
 6  0.23718958635864 -3.91379625172517  0.65474363546355
 8  0.39102295619562 -3.64176386518652 -0.58451846724672
 8  1.12720440264026 -4.70086523132313  1.27129311781178
 7 -4.98752730373037  2.61388162486249  1.50595728232823
 6 -4.07810189738974  2.39994801080108  2.53849907570757
 6 -3.72310284748475  3.70274035653565  3.13072201660166
 6 -4.42252800850085  4.58917738323832  2.39982586678668
 6 -5.24866422882288  3.96102077857786  1.40985613751375
 6 -2.69430805570557  3.86049313301330  4.23838770927093
 6 -4.52344504450445  6.11255128932893  2.83335877267727
 8 -3.98368085538554  6.55929075927593  3.87608158065807
 7 -6.87999964956496  2.59251718421842 -0.79288195589559
 6 -6.99949214701470  3.89021942744274 -0.31690989408941
 6 -8.01351649184918  4.61474253105311 -1.20431324042404
 6 -8.52602563536354  3.64672380248025 -1.91909646204620
 6 -7.88941275277528  2.36359453355336 -1.69654342414241
 6 -8.44460673937394  6.03451482118212 -1.16325746034603
 6 -9.54445092349235  3.77161810011001 -3.19763231183118
 6 -8.79848882958296  4.01676303940394 -4.49456270297030
 7 -6.35137090439044 -0.09066424662466 -1.08466948734873
 6 -7.39411301800180 -0.12332323792379 -2.08584450705070
 6 -7.57501061766177 -1.31724687738774 -2.64298732333233
 6 -6.65022050575058 -2.17440121342134 -2.10070928082808
 6 -6.00052797629763 -1.36991102060206 -1.10872873757376
 6 -8.45373074777478 -1.59525931453145 -3.78914983438344
 6 -6.22774640174017 -3.55647475347535 -1.97154254815482
 8 -6.61249449004900 -4.54152912301230 -2.58164841054105
 6 -5.04682493599360 -3.47278904560456 -0.97605422622262
 6 -5.31102823042304 -4.69330453205321  0.05398254925493
 8 -5.65949013161316 -4.41858779217922  1.21775889618962
 8 -4.93947391059106 -5.85560944504450 -0.44378855025503
 6 -5.46259960916092 -6.98550214131413  0.28046558135814
 6  2.28778546014601 -5.05822208240824  0.70024800610061
 6  3.43787709780978 -4.05104660396039  1.12009329512951
 6  4.05659476317632 -3.28707852875288  0.31202357735774
 6  3.79203410071007 -3.20600378877888 -1.20865853465347
 6  5.31108531453145 -2.45450971917192  0.80300215111511
 6  6.63087869256926 -2.70253520652065  0.05597592349235
 6  7.66385551225123 -1.68929057485749  0.63158699329933
 6  8.95060366886689 -1.90746672867287 -0.05688240144014
 6  9.57286436653665 -3.29072897539754  0.03348647364736
 6  9.99185462106211 -0.86838745964596  0.43250121352135
 6  11.30260341764176 -0.77852064716472 -0.27909321992199
 6  12.23822144274427  0.42012120262026  0.20782157035704
 6  13.64475386948695  0.49468915581558 -0.53329308650865
 6  14.44472264526453 -0.82682341234123 -0.23816050125013
 6  14.39491943014301  1.74967974017402 -0.11945958835884
 6  15.53368264916492  2.12302423772377 -1.04560166786679
 6  16.24639425912591  3.37741025102510 -0.71108220122012
 6  17.42083647834783  3.85857477297730 -1.43786483428343
 6  17.09625860796080  4.11034659735974 -2.89820214021402
 6  17.95604902410241  5.11499962596260 -0.80046100310031
 1 -2.62416792269227  1.25977284088409  3.62507011821182
 1 -6.34476535943594  5.51818802100210  0.67806756945695
 1 -8.68668386748675  1.16333059455946 -3.10549593049305
 1 -3.53009007420742 -3.19724284098410  1.88023376547655
 1 -1.82549363536354 -1.00279788798880  2.73295546154616
 1 -3.25779510471047 -2.87315389628963  4.16013595949595
 1 -3.38696529662966 -1.16399851755176  4.93043917981798
 1 -4.69683135893589 -1.87194511251125  3.99794301690169
 1 -2.11707887348735 -3.08146119111911 -0.31734946954695
 1 -1.36218691839184 -1.59330795819582  0.32804364566457
 1 -0.77382177227723 -3.08075804810481  2.42461700280028
 1 -1.55358483708371 -4.60322715901590  1.53475251195120
 1 -1.68967761986199  3.72217690439044  3.99501188228823
 1 -2.69938759275928  4.79473911301130  4.72720838373837
 1 -2.82497242974297  2.90324351845185  4.96078305510551
 1 -5.25406926622662  6.78486646914691  2.36106822262226
 1 -10.25852983548355  2.81725887778778 -3.29641079567957
 1 -10.21886936983698  4.56722425692569 -3.04299729232923
 1 -9.54353011391139  4.07796569656966 -5.39364567516752
 1 -8.27135110111011  4.92104404500450 -4.30890057185719
 1 -8.06600687558756  3.30968528242824 -4.46496061076108
 1 -8.07701428302830 -0.96903016071607 -4.62597256625663
 1 -8.78553818171817 -2.69796685698570 -3.93050239413941
 1 -9.47941119021902 -1.13273990859086 -3.54051833693369
 1 -3.97468924492449 -3.77637346034603 -1.26036096619662
 1  2.36446439023902 -6.15511280438044  0.96498488638864
 1  2.18666199279928 -5.00511903830383 -0.42316775187519
 1  3.61731771417142 -4.12841296359636  2.18496686078608
 1  2.78901635353535 -3.39989154405441 -1.41779442954295
 1  4.07504484248425 -2.24568926952695 -1.54682289978998
 1  4.52409491689169 -4.03048490479048 -1.86184764206421
 1  4.90160402940294 -1.42607815241524  0.65887627872787
 1  5.52858521692169 -2.45871018821882  2.03833772007201
 1  6.84809402940294 -3.73197749724973  0.23563288498850
 1  6.47519635913591 -2.38505072107211 -0.97583726992699
 1  7.18880968256826 -0.67255380968097  0.42760151345134
 1  7.92438134833483 -1.92641088958896  1.79825729812981
 1  8.87728362796280 -1.61182922362236 -1.03045126382638
 1  8.94497666306631 -4.09533839373937 -0.34317678787879
 1  10.52208523792379 -3.37874122882288 -0.45316289818982
 1  9.45284203180318 -3.53242897149715  1.23264422742274
 1  9.43845490639064  0.04778318871887  0.18501767616762
 1  9.99599855845585 -1.02146046534653  1.35588652595260
 1  11.74836676777678 -1.63013033473347 -0.03604291209121
 1  11.52919886008601 -0.82918455395540 -1.27098794249425
 1  11.71632165026502  1.40758383018302  0.16780957055706
 1  12.53667442614261  0.16511779507951  1.20426960206021
 1  13.40212095439544  0.56154089688969 -1.64893109790979
 1  14.78270849804981 -0.88382139943994  0.82814791229123
 1  13.84178456495650 -1.74056723562356 -0.75584183828383
 1  15.43572342884288 -0.59896322402240 -0.78213061606161
 1  13.70195944154415  2.52371067026703 -0.41652152945295
 1  14.65118273047305  1.62712912741274  0.97437626492649
 1  16.33511223832383  1.31477693919392 -1.24749256425643
 1  15.12029682518252  1.99796804820482 -2.03934746564657
 1  15.39944140624062  4.10218342604260 -0.71546282628263
 1  16.54086372027203  3.40461642104210  0.52512497129713
 1  18.16627644444445  3.04581809030903 -1.28978336623662
 1  16.23182031883188  4.89001628052805 -3.01683596249625
 1  18.01676406630663  4.32057845104510 -3.47722515611561
 1  16.72541722702270  3.17446235743574 -3.49220977417742
 1  18.04690256425642  5.09246989999000  0.30526969266927
 1  18.91849946074608  5.36714294079408 -1.32741488258826
 1  17.35276784658466  6.13572798289829 -1.08938729082908
 1 -5.28760664526453 -7.91125222462246 -0.35907022302230
 1 -6.50625111641164 -6.68846822822282  0.66767661096110
 1 -4.83421563896390 -6.87266714291429  1.37217008540854
 8 -7.90403329862986  6.83972400380038 -0.44233766216622
 1 -9.15963934773477  6.34288170387039 -1.80996946444644

