%nproc=3
%Mem=2GB
# td=(NStates=1) iop(3/107=0140000000,3/108=0140000000) iop(3/107=0140000000,3/108=0140000000) CAM-B3LYP/6-31G(d,p) 

TD

0 1
12 -5.61764749594960  1.30456048374837  0.14427709650965
 6 -4.98384850665067 -2.05004896959696 -0.30486355145515
 6 -3.41136259615962  1.22527506900690  2.83262470067007
 6 -6.28497491979198  4.49854787788779  0.67022938413841
 6 -8.00383130113011  1.14486316871687 -2.27329142304230
 7 -4.42435952045204 -0.24733065616562  1.11293146014601
 6 -4.17292251265127 -1.42141332273227  0.60427414591459
 6 -3.14955635733573 -2.22999419801980  1.47656324492449
 6 -2.81771592699270 -1.22402307200720  2.64093087968797
 6 -3.53528032803280 -0.01123027562756  2.12553321192119
 6 -3.36934904290429 -1.68164485708571  3.96706456585659
 6 -1.91686652995300 -2.73826781998200  0.66904109020902
 6 -0.90818858175818 -3.60496558445845  1.42891676857686
 6  0.20785665306531 -3.93868874097410  0.62435059615962
 8  0.41741559545955 -3.48278796759676 -0.49807982338234
 8  1.08936061826183 -4.65421056585659  1.30935692419242
 7 -5.04507305830583  2.63408364506451  1.51348803540354
 6 -4.08307239443944  2.47218523452345  2.52273749954995
 6 -3.82893343054305  3.75335541804180  3.17234617901790
 6 -4.52209796549655  4.68760722622262  2.53252913711371
 6 -5.27456681908191  3.91350602710271  1.48065321722172
 6 -2.84141276617662  3.95660274397440  4.32348621912191
 6 -4.62811551155116  6.07676771097110  2.81418685548555
 8 -3.96773926122612  6.67788261846185  3.68734270677068
 7 -6.86688833843384  2.62822075457546 -0.71714438213821
 6 -7.03102530033003  3.99442984848485 -0.34794299739974
 6 -7.98668380858086  4.63941499829983 -1.15815862496250
 6 -8.58829186198620  3.54520365046505 -1.94224877727773
 6 -7.83567737923792  2.39695786988699 -1.66790055985599
 6 -8.45711799049905  5.94619598929893 -1.12101323592359
 6 -9.61856833523352  3.66044698299830 -2.96438898749875
 6 -9.05155413611361  3.64262562566257 -4.42616586328633
 7 -6.33150891819182 -0.04644982518252 -1.10271129152915
 6 -7.25959956665667  0.01276037043704 -2.03056897949795
 6 -7.45070818741874 -1.32939809250925 -2.67231025562556
 6 -6.50913639733973 -2.21027480078008 -2.12723193309331
 6 -5.90774869836984 -1.41578560806081 -1.15017288198820
 6 -8.49794516921692 -1.72014180278028 -3.69526044544454
 6 -6.00550417751775 -3.51448055405541 -2.04870026392639
 8 -6.36897013761376 -4.42663763386339 -2.77467771347135
 6 -4.97321757525753 -3.50004177087709 -0.89982660346035
 6 -5.29667679527953 -4.66279148074807  0.10743789478948
 8 -5.59689387198720 -4.46236216961696  1.19151627192719
 8 -5.02968293149315 -5.84497838193819 -0.50451462286229
 6 -5.28622197139714 -6.97734132523252  0.30687822262226
 6  2.28411509310931 -5.04094035423542  0.54583256455646
 6  3.27743105320532 -4.02914441374137  0.99951123692369
 6  3.95306441014101 -3.15735555645565  0.17302967796780
 6  3.68032292959296 -3.12833602200220 -1.29163683248325
 6  5.09927413341334 -2.27488175637564  0.65167701860186
 6  6.49143474817482 -2.61695664866487  0.15357568346835
 6  7.62652177887789 -1.88244989078908  0.68112194679468
 6  8.91603021152115 -2.07439342134213 -0.10558727192719
 6  9.67267434753475 -3.39757966046605  0.16539966496650
 6  9.91281671727173 -0.87724834573457  0.38184614801480
 6  11.31683484078408 -0.87617041214121 -0.34260957155716
 6  12.21522914351435  0.30339953045305  0.13979476767677
 6  13.61323071717172  0.26640632753275 -0.66671642884288
 6  14.55135330833083 -0.96468719871987 -0.35170185538554
 6  14.32903284148415  1.58447321952195 -0.12317996039604
 6  15.50397967886789  2.07994993029303 -0.93354046174617
 6  16.07287690739074  3.44835734573457 -0.62177327032703
 6  17.38001239593959  3.89313822932293 -1.29048009580958
 6  17.24958394049405  3.97479304200420 -2.79181150115011
 6  17.82295571477147  5.30943906990699 -0.81287224422442
 1 -2.82630813671367  1.33065992959296  3.54689230043004
 1 -6.36763764666467  5.47059326152615  0.58067783048305
 1 -8.71081628072807  0.98430269176918 -3.13833921482148
 1 -3.61668873407341 -3.02526564326433  2.09362510461046
 1 -1.71052213821382 -1.32650025822582  2.61268343434343
 1 -2.97861718691869 -2.73558013891389  4.29498944484448
 1 -3.14030063016302 -0.96723884158416  4.86328246414641
 1 -4.50211188698870 -1.92356027402740  3.94088731133113
 1 -2.32564973057306 -3.23947699269927 -0.20777851245125
 1 -1.41754245394539 -1.80683931133113  0.28514935623562
 1 -0.45861025112511 -3.35211518381838  2.34759930103010
 1 -1.28396787538754 -4.68851568786879  1.73593262996300
 1 -1.68125677777778  4.18660334703470  3.94659704080408
 1 -3.10430808480848  4.83483312241224  4.82267793069307
 1 -2.68695862836284  3.00478367246725  4.96462343914391
 1 -5.59059291859186  6.60851883438344  2.35213732953295
 1 -10.29953393589359  2.81819897179718 -3.10176133073307
 1 -10.47081456435644  4.38751628612861 -2.93309630223022
 1 -9.78787454835484  3.81530943094309 -5.21664797539754
 1 -8.33082704870487  4.41958389898990 -4.59914959675968
 1 -8.59294956985699  2.67220153405341 -4.58931304600460
 1 -8.60111669326933 -1.22293555125513 -4.87960792979298
 1 -8.38759838773877 -2.90624768506851 -4.05039438333833
 1 -9.53280652975297 -1.39686632123212 -3.39573385848585
 1 -3.90183195919592 -3.85421124412441 -1.46377130723072
 1  2.38473641744174 -6.12595988908891  0.75943433133313
 1  2.18962228882888 -4.88830735713571 -0.51566700180018
 1  3.58505448784878 -3.98901902420242  2.16516488058806
 1  2.51272872477248 -3.16509806470647 -1.48394104420442
 1  4.08943628162816 -2.23486818741874 -1.77229544704470
 1  4.18357086448645 -3.82042389868987 -2.00826228352835
 1  4.52655652465246 -1.15797134173417  0.40932132323232
 1  5.18080043844385 -2.38396271347135  1.75452933923392
 1  6.55824504450445 -3.75051935143514  0.11264058575858
 1  6.39338817831783 -2.56008822482248 -0.91562124832483
 1  7.56739754135414 -0.62264881918192  0.74766351965197
 1  7.89316822702270 -2.28761701020102  1.69001647404740
 1  8.90764666426643 -1.81562960366037 -1.21332955165517
 1  8.95880804620462 -4.28423728362836  0.05041257105711
 1  10.54492752215221 -3.42345570027003 -0.42762034393439
 1  9.86782352995299 -3.56104183278328  1.21489245224522
 1  9.60507156805680  0.09704811521152 -0.05307613321332
 1  10.07810676927693 -0.82498081738174  1.56594753205321
 1  11.81428335943594 -1.94083140484048 -0.22527183498350
 1  11.13756969716972 -1.02642427792779 -1.43330417411741
 1  11.64682470057006  1.28373144494449 -0.03496070647065
 1  12.28814957365737  0.13396467976798  1.13216239133913
 1  13.29297003930393  0.61420616341634 -1.73770997579758
 1  14.79006923412341 -1.03281629892989  0.72754785228523
 1  13.80790117661766 -1.88106128502850 -0.71214746884689
 1  15.49190904740474 -1.05280860856086 -0.96865926892689
 1  13.63048229382938  2.41420972017202 -0.11060093739374
 1  14.66362397459746  1.52041845634563  0.92719154645465
 1  16.08395712281228  1.19404486598660 -0.86928474347435
 1  15.50158495399540  2.03153140454045 -1.98769230013001
 1  15.08712017411741  4.06685989368937 -1.01902318231823
 1  16.17168680258026  3.70222618201820  0.51153361216122
 1  18.24309412621262  3.44318782728273 -0.88239262716272
 1  16.61299843664366  4.88164544344435 -3.10286456535654
 1  18.36806919681968  4.26465285848585 -3.28713614721472
 1  16.89283396869687  3.04108902010201 -3.30528108130813
 1  17.82726060006000  5.26112676567657  0.38635780148015
 1  18.98932654345435  5.62513874037404 -1.00059220032003
 1  17.21373394319432  6.21765617571757 -0.90833918601860
 1 -5.01553943854385 -7.85972707210721 -0.37215153115312
 1 -6.42995348664866 -7.16386576797680  0.47498734203420
 1 -4.79572178957896 -6.94757463366337  1.21393426182618
 8 -7.91612450775077  6.84641467286729 -0.46235966436644
 1 -9.34908829262926  6.02594000970097 -1.64476294379438

