%nproc=3
%Mem=2GB
# td=(NStates=1) iop(3/107=0140000000,3/108=0140000000) iop(3/107=0140000000,3/108=0140000000) CAM-B3LYP/6-31G(d,p) 

TD

0 1
12 -5.65999173037304  1.28713874157416  0.11238390719072
 6 -5.01000112191219 -2.24193815851585 -0.37354041914191
 6 -3.46269772967297  1.15094763626363  2.76395783398340
 6 -6.12432885518552  4.53474149724973  0.70145250645064
 6 -8.04619553755376  1.12841152355236 -2.30101419531953
 7 -4.32850993549355 -0.26775269836984  0.96213638063806
 6 -4.28009322972297 -1.65533671507151  0.56909062756276
 6 -3.30205160686069 -2.36899809840984  1.38070365896590
 6 -2.98030218561856 -1.38778944864486  2.48267505410541
 6 -3.54535133513351 -0.11272042464246  2.10147080568057
 6 -3.68202031003100 -1.75853254585459  3.78559641904190
 6 -2.00327517081708 -2.70653464666467  0.54480866696670
 6 -1.01702946584658 -3.50928601650165  1.45468934583458
 6  0.22720858825883 -3.89848472057206  0.62733089418942
 8  0.41974582848285 -3.49448913771377 -0.50774078947895
 8  1.02199388158816 -4.68057320212021  1.34477046554655
 7 -4.76450500150015  2.53530376707671  1.46395308190819
 6 -3.91264535173517  2.35556357235724  2.45064028982898
 6 -3.65554609180918  3.57712779527953  3.19634857925793
 6 -4.54570032573257  4.48873733923392  2.60265614981498
 6 -5.21771113351335  3.89235391189119  1.51659681158116
 6 -2.65924454935494  3.80193727742774  4.22614648514852
 6 -4.57027972797280  5.95999603380338  3.00053549034904
 8 -3.89440192749275  6.57100193039304  3.78497246974697
 7 -6.83279492909291  2.69759769226923 -0.67051971967197
 6 -6.90895309310931  3.94795520102010 -0.31298950205020
 6 -7.83800894109411  4.64484554135413 -1.25592840194019
 6 -8.42831586438644  3.65118424852485 -1.96931148354835
 6 -7.80470428192819  2.40022819691969 -1.62634640444044
 6 -8.15713799249925  6.03952532223222 -1.25960709530953
 6 -9.52802928132813  3.82216315461546 -3.01716426502650
 6 -8.94605358605861  4.08642000510051 -4.54532777947795
 7 -6.35398116541654 -0.15318049824982 -1.16985800620062
 6 -7.40409401610161 -0.03963486908691 -1.98219414201420
 6 -7.56356947354735 -1.32697785048505 -2.68007103170317
 6 -6.56187167086709 -2.12867664096410 -2.08765797569757
 6 -5.96672459595960 -1.40630465996600 -1.09916778147815
 6 -8.48802417711771 -1.67354714331433 -3.77433835323532
 6 -6.24233786088609 -3.50676978297830 -2.06878227212721
 8 -6.71420466106611 -4.42671764186419 -2.67686793249325
 6 -5.08822907640764 -3.70631239793979 -0.98485510631063
 6 -5.39269639723972 -4.74399960156016  0.15812296329633
 8 -5.82043622622262 -4.56934286768677  1.28793591389139
 8 -5.03689365256526 -5.86176006010601 -0.38845301670167
 6 -5.41552490169017 -6.95966955805581  0.41868940374037
 6  2.28300498209821 -5.03414967516752  0.63943192449245
 6  3.43734704480448 -4.09521102040204  0.96452773857386
 6  4.03892299599960 -3.20057987888789  0.23517589258926
 6  3.70389528682868 -2.98936212461246 -1.26355402420242
 6  5.19570377637764 -2.36185045324532  0.84991684258426
 6  6.53617922262226 -2.66411136413641  0.25545587148715
 6  7.72060118681868 -1.72185383118312  0.72008584318432
 6  9.11429003750375 -1.89990597259726  0.02262554935494
 6  9.47780486058606 -3.42428233073307  0.30750387538754
 6  10.09774521012101 -0.88868948984899  0.52972093549355
 6  11.36405956325632 -0.81994478957896 -0.23237854845485
 6  12.16146376697670  0.35392458295830  0.16503729192919
 6  13.53332272637264  0.55942562946295 -0.52852260946095
 6  14.48035620862086 -0.66219694969497 -0.22816950215022
 6  14.27554749294930  1.80997576977698 -0.04980262266227
 6  15.39683896479648  2.19318125342534 -1.03549065676568
 6  16.09813943364336  3.62733524352435 -0.71370246324632
 6  17.33473786848685  3.89462837833783 -1.53973502130213
 6  17.02012099419942  3.86052161486149 -3.06535885588559
 6  17.88842226142614  5.18287641364136 -0.96988794579458
 1 -2.62411791769177  1.14353121672167  3.36794440564056
 1 -6.35425630853085  5.56163236543654  0.83152291499150
 1 -8.67453265236524  1.09875413691369 -3.19992537343734
 1 -3.65609267446745 -3.31957507420742  1.73861960406041
 1 -1.91294238023802 -1.30732834103410  2.81604377037704
 1 -3.18586791199120 -2.86749333023302  4.06632657855786
 1 -3.57103370347035 -0.97561967966797  4.69597573347335
 1 -4.90811248704870 -1.91736965496550  3.55216843944394
 1 -2.27626479207921 -3.36380942594260 -0.39532726732673
 1 -1.46305700540054 -1.67430605800580  0.36455729702970
 1 -0.52371676177618 -2.94454442674267  2.28996353745375
 1 -1.40198967756776 -4.48541537783778  1.60295933263326
 1 -1.58655730783078  3.35540022672267  3.90828320942094
 1 -2.45743339733973  4.91060069916992  4.36203186608661
 1 -2.95659559205921  3.40839403350335  5.23956093289329
 1 -5.44963882318232  6.49913789628963  2.56914903070307
 1 -10.24621860436044  2.94519167106711 -3.17299845444544
 1 -10.09235671857186  4.68085562006201 -2.68705169776978
 1 -9.77770353125313  3.89904780478048 -5.37864417501750
 1 -8.49999396539654  4.99868180878088 -4.54022370417042
 1 -8.07266754165417  3.26417073097310 -4.59725384008401
 1 -8.38639522112211 -1.29230248794879 -4.95179514851485
 1 -8.85254488238824 -2.68851591189119 -3.65024436833683
 1 -9.45882913201320 -1.17926456105611 -3.50960524562456
 1 -4.08723049904990 -4.21356717971797 -1.33556848694870
 1  2.42568051185118 -6.09051634473447  0.89854824272427
 1  2.06986031263126 -4.85842436883688 -0.38843427852785
 1  3.62236821922192 -4.10234035633563  1.95436380048005
 1  2.76799425132513 -3.41827338223822 -1.62335498559856
 1  3.66360369836984 -1.85931063166317 -1.62482069956996
 1  4.38329083648365 -3.60813266956696 -1.95041649894989
 1  4.87274114311431 -1.51054659925993  0.65654604570457
 1  5.22012437083708 -2.50409472667267  1.96900078637864
 1  6.88080730073007 -3.71382568206821  0.46739606130613
 1  6.32419125862586 -2.56590880688069 -0.74647433363336
 1  7.38163896549655 -0.78876543084308  0.57139589288929
 1  7.80246915711571 -2.10849909840984  1.66796426882688
 1  8.85449134873487 -1.89934797549755 -1.11551977067707
 1  8.55555772117212 -4.19228808870887 -0.04134660486049
 1  10.50069309870987 -3.65762911761176  0.13948636673667
 1  9.58790553815381 -3.52660838943894  1.43719468246825
 1  9.70370143104310  0.19007741814181  0.59195837023702
 1  10.32754171277128 -1.15719403870387  1.56577751505150
 1  11.76273820492049 -1.74885220692069 -0.06075538333833
 1  11.10182612281228 -0.57526916241624 -1.19449029272927
 1  11.51849186728673  1.17286035783578  0.13367615721572
 1  12.45912667136714  0.33419470277028  1.22118129322932
 1  13.36212695499550  0.63887863066307 -1.44831103590359
 1  14.84914514171417 -0.71768478577858  0.82734783228323
 1  14.04774516101610 -1.65829900880088 -0.59952620672067
 1  15.23715357185718 -0.63306663436344 -0.94776717971797
 1  13.50493973957396  2.61275957515752 -0.03785366266627
 1  14.63469108130813  1.82016843134313  1.06823565086509
 1  16.30196892399240  1.59170463196320 -0.95465328032803
 1  15.08050284578458  2.45232348374837 -2.06070960186019
 1  15.47476893899390  4.42525573327333 -0.99897117711771
 1  16.34810444434443  3.64476043544354  0.28633109190919
 1  18.16747656445645  3.09750325882588 -1.25747013491349
 1  16.43267040384038  4.77572485138514 -3.37079135803580
 1  17.92052444234423  3.83162955615561 -3.52391982558256
 1  16.48226291159116  3.10040495169517 -3.28131868506851
 1  18.19808768276827  5.02201285428543 -0.03427426172617
 1  18.73045065586559  5.75349157565757 -1.42105424652465
 1  17.11738430823082  6.04755916601660 -0.84230258235824
 1 -5.11162904750475 -7.92646374577458 -0.08880319631963
 1 -6.45426591789179 -6.94725410681068  0.65918576187619
 1 -4.79541175857586 -7.03114299049905  1.42399526792679
 8 -7.56829972527253  6.81434146554655 -0.43121655005501
 1 -8.84051743554355  6.37603501920192 -2.08713718121812

