%nproc=3
%Mem=2GB
# td=(NStates=1) iop(3/107=0140000000,3/108=0140000000) iop(3/107=0140000000,3/108=0140000000) CAM-B3LYP/6-31G(d,p) 

TD

0 1
12 -5.56931266246625  1.19069909760976  0.15137780658066
 6 -4.99332945474547 -2.12401636633663 -0.37021008610861
 6 -3.50679213911391  1.03234577607761  2.86514795299530
 6 -6.07912433473347  4.50159818291829  0.58310067126713
 6 -8.08784970297030  1.12020070247025 -2.37036113001300
 7 -4.41938902340234 -0.33177910101010  0.99894006100610
 6 -4.23201842224222 -1.67052823422342  0.62525624412441
 6 -3.20039144084408 -2.30622182078208  1.40017560616062
 6 -2.98578273367337 -1.35678634833483  2.63989077567757
 6 -3.62712951295129 -0.11711086368637  2.11226188478848
 6 -3.60058216621662 -1.95941263386339  3.91874973437344
 6 -1.97233207650765 -2.65125911911191  0.70932511861186
 6 -0.81631939483948 -3.57176226412641  1.45014889178918
 6  0.27790365776578 -3.90837570967097  0.59696785788579
 8  0.45332918681868 -3.43470315911591 -0.50332034743474
 8  1.08284996719672 -4.73829897469747  1.24046003450345
 7 -5.02706125712571  2.56668690539054  1.60701738833883
 6 -4.17199128632863  2.33988200420042  2.53565879167917
 6 -3.80946148334833  3.56773685618562  3.25608455285529
 6 -4.53325908160816  4.54421288678868  2.71834771897190
 6 -5.30594995739574  3.91846652315231  1.58969412131213
 6 -2.76113473837384  3.72567965166517  4.40315418591859
 6 -4.61952465246525  6.04391442564256  2.92721815861586
 8 -3.86377886518652  6.58382321252125  3.62287626012601
 7 -6.74010566016602  2.60258819131913 -0.77955062276228
 6 -6.83199539733973  3.88136854235424 -0.48422662576258
 6 -7.77668280848085  4.65177623442344 -1.24503731283128
 6 -8.36237927072707  3.73331246134613 -2.08907345974597
 6 -7.73532734423442  2.42351052515252 -1.74764853465347
 6 -8.07854013271327  6.08190956065607 -1.21885301990199
 6 -9.47938441684168  3.89503044134413 -3.13440598919892
 6 -8.88842782348235  4.23146450955096 -4.60448369506951
 7 -6.40014578187819 -0.20446562676268 -1.11959297969797
 6 -7.39142274897490 -0.10217112271227 -2.04634055665567
 6 -7.60676379297930 -1.34183933663366 -2.76503952855286
 6 -6.69861534523452 -2.13894766806681 -2.19770898079808
 6 -6.02842076557656 -1.49527355685569 -1.10087795249525
 6 -8.55149052375238 -1.59856964556456 -3.76478739813981
 6 -6.27452107920792 -3.64609371537154 -2.00812620652065
 8 -6.65126836743674 -4.66484145424542 -2.55081532723272
 6 -5.12631288478848 -3.63295506220622 -0.94693131393139
 6 -5.43187031463146 -4.67155235683568  0.22647979897990
 8 -5.71711589418942 -4.39000493389339  1.32295941624162
 8 -5.16551651485149 -5.88287217131713 -0.33397756915692
 6 -5.62341569076908 -6.96058965006501  0.45263279807981
 6  2.46108278987899 -5.06466272647265  0.61076905820582
 6  3.53946725682568 -4.07554905420542  1.02065335113511
 6  4.09115821952195 -3.18802862376238  0.22131450645064
 6  3.66941183848385 -2.89469265766577 -1.22930059885989
 6  5.17155136113611 -2.25539980818082  0.78625047594759
 6  6.46573217791779 -2.59380433343334  0.09231955785579
 6  7.59357848454845 -1.72804445024502  0.55592942754275
 6  9.08504711321132 -1.88959494149415 -0.10827754095410
 6  9.53944102420242 -3.38015791829183  0.07040016501650
 6  9.99353478907891 -0.79363998489849  0.54346230963096
 6  11.38556171347135 -0.83227602270227 -0.11211652225223
 6  12.24794241484148  0.35128431893189  0.26778756695670
 6  13.60291968606861  0.48913860076008 -0.53897365456546
 6  14.46012418541854 -0.70243097309731 -0.31805849104910
 6  14.31311124932493  1.80638541074107 -0.13050069246925
 6  15.41768104900490  2.09235117041704 -1.00272738043804
 6  16.09552917261726  3.49114162416242 -0.66470756375638
 6  17.33884827952795  3.86506542204220 -1.49020006780678
 6  16.99366834893489  4.01815737843784 -2.92757507750775
 6  17.98515193439344  5.21423954995500 -0.97047800480048
 1 -2.54981048694870  1.05199206280628  3.67700531173117
 1 -6.24360524342434  5.49682588478848  0.58869863256326
 1 -8.75176037513751  1.18732299379938 -3.28003338423842
 1 -3.49753681888189 -3.37562067876788  1.65094083618362
 1 -1.91828291429143 -1.14733234143414  2.64731689768977
 1 -3.02004132933293 -2.86573315421542  4.36338628452845
 1 -3.63726032613261 -1.17932004970497  4.71425756165617
 1 -4.63138481428143 -2.32966088408841  3.63031625422542
 1 -2.33521068666867 -3.54817786278628 -0.08253598819882
 1 -1.27058775847585 -1.85564419181918  0.26044688598860
 1 -0.49516390649065 -3.20725069736974  2.42454699579958
 1 -1.23606308490849 -4.54182101840184  1.89704874157416
 1 -1.80196884898490  3.36756144284428  3.95338771987199
 1 -2.72752040604060  4.78736837593759  4.59901556445645
 1 -2.74391432393239  3.01954514861486  5.36619359615962
 1 -5.27099095839584  6.66257423992399  2.39799191499150
 1 -10.31687567006701  3.24356150805081 -3.05966712131213
 1 -10.04982246514652  4.83401093559356 -2.77910090269027
 1 -9.67153291419142  4.30201810181018 -5.45111142174217
 1 -8.16231019701970  5.07052899349935 -4.63320300210021
 1 -8.16477675257526  3.44989930383038 -4.82582669736974
 1 -8.34682126372637 -1.03295655335533 -4.69005897489749
 1 -8.44365399329933 -2.62367942824282 -3.98493783768377
 1 -9.64027727682768 -1.21543817841784 -3.47540182528253
 1 -3.99378115411541 -3.93349917291729 -1.35347027712771
 1  2.73259120292029 -6.03311060416042  1.24478286618662
 1  2.31390471707171 -5.24045257165717 -0.46580201530153
 1  3.71142712511251 -3.94383450575057  2.01941030513051
 1  2.67951540344034 -3.49875143004300 -1.51611426152615
 1  3.44142148014801 -1.81528622922292 -1.41449966746675
 1  4.48522102950295 -3.16054791109111 -2.15032648994899
 1  4.98114198319832 -1.19991553615362  0.49610000110011
 1  5.36277863626363 -2.41576589378938  1.85799968626863
 1  6.72700192019202 -3.64635893539354  0.30881020272027
 1  6.38300714021402 -2.41039325532553 -0.94361404760476
 1  7.45661646324633 -0.55094164846485  0.52344109740974
 1  7.86642555275527 -1.93417166566657  1.64058153055306
 1  8.85475137473747 -1.65028306900690 -1.23085130383038
 1  8.98507067246725 -4.04150301020102 -0.58053052325233
 1  10.54076710611061 -3.43374672937294 -0.45324290619062
 1  9.68527527512751 -3.65405113371337  1.05153611661166
 1  9.29143020392039  0.08620703110311  0.49296847124713
 1  10.18870782938294 -0.91930024932493  1.57980891819182
 1  11.71856378747875 -1.91715903760376  0.00771146334633
 1  11.20166610681068 -0.67044868036804 -1.13615445914591
 1  11.69283930203020  1.32002507430743  0.15464825442544
 1  12.55540629932993  0.26816810011001  1.33235241034103
 1  13.53839458175817  0.74352909570957 -1.62932913771377
 1  14.46062628982898 -0.84573759105911  0.85855095259526
 1  13.81404179067907 -1.48602178107811 -0.67482373647365
 1  15.40659051555155 -0.52081540924092 -0.65105750875087
 1  13.47996724232423  2.38986728592859 -0.19317919521952
 1  14.70264787698770  1.84778119261926  0.90252908020802
 1  16.17879660676067  1.21187664916492 -1.21312912791279
 1  15.12220701620162  2.39902815421542 -2.00814434533453
 1  15.34904636673667  4.22209541724172 -0.81541282128213
 1  16.25323495739574  3.53316927632763  0.25451791059106
 1  18.14999481628163  3.11427493599360 -1.25593998189819
 1  16.15354249104911  4.73802108100810 -3.14556883578358
 1  17.79584197409741  4.49099549274928 -3.25550298389839
 1  16.72194687998800  3.10470538173817 -3.51105165836584
 1  18.33652152615262  5.25078573157316  0.04733389908991
 1  18.98908651945194  5.42280850735074 -1.37869001010101
 1  17.11885445524553  5.89659406950695 -0.85370372247225
 1 -5.24702258685869 -7.87511861126113  0.11492717671767
 1 -6.71518200950095 -6.90952033343334  0.78624846814681
 1 -5.14389660706071 -6.97171704790479  1.53416628502850
 8 -7.62015491079108  6.91131116251625 -0.46855028342834
 1 -9.01011439523952  6.33393080878088 -1.93606207370737

