%nproc=3
%Mem=2GB
# td=(NStates=1) iop(3/107=0140000000,3/108=0140000000) iop(3/107=0140000000,3/108=0140000000) CAM-B3LYP/6-31G(d,p) 

TD

0 1
12 -5.67726345754576  1.21793182088209  0.13834650345034
 6 -5.12448257005701 -2.20835480018002 -0.32175524062406
 6 -3.41526298619862  1.14653719521952  2.80727216541654
 6 -6.11342776507651  4.53707173027303  0.64025638683868
 6 -7.99138005600560  1.19082776517652 -2.29172326622662
 7 -4.47244432893289 -0.38129405250525  1.14156432343234
 6 -4.37437265766577 -1.64614579597960  0.78671238973897
 6 -3.18583998569857 -2.37232843144314  1.47747333593359
 6 -2.93815797119712 -1.33733440314031  2.59147593419342
 6 -3.76559335933593 -0.09780893349335  2.26378703730373
 6 -3.33169527752775 -1.73524021662166  4.08361622102210
 6 -1.87514235753575 -2.68850284348435  0.55801998809881
 6 -1.01661942484248 -3.66255134303430  1.41308518541854
 6  0.20746661406141 -3.88098297039704  0.54386254735474
 8  0.50993484738474 -3.40875056385639 -0.53799381478148
 8  1.14427610981098 -4.70298544334433  1.26381236973697
 7 -4.88478702970297  2.60299053575358  1.43012969956996
 6 -3.90122420962096  2.38334635063506  2.44726995279528
 6 -3.59652018921892  3.70111019351935  3.17724666906691
 6 -4.35432118781878  4.59907837333733  2.53261914611461
 6 -5.18211757415742  3.92983766026603  1.40117526942694
 6 -2.62647127202720  3.89760684438444  4.28871274177418
 6 -4.51086378637864  6.07683771797180  2.86456189298930
 8 -3.83044553185319  6.56049087928793  3.75057903040304
 7 -6.81595324492449  2.59745767826783 -0.78736140384038
 6 -6.76675887368737  3.93563396889689 -0.39621782488249
 6 -7.79428456865687  4.54930598739874 -1.21529433853385
 6 -8.49482251505150  3.57581671177118 -2.05165971837184
 6 -7.75906971847185  2.40183835793579 -1.68879264906491
 6 -8.25408768746875  5.92779414911491 -1.21070220482048
 6 -9.60689716811681  3.84441537983798 -3.09533208180818
 6 -9.01841082178218  4.11176253935394 -4.44819806650665
 7 -6.41063683098310 -0.15229040924092 -1.17851887228723
 6 -7.33551715841584 -0.01247215281528 -2.17401332393239
 6 -7.54914803140314 -1.34184933763376 -2.76766979157916
 6 -6.69687517121712 -2.23691746504650 -2.06385559545955
 6 -6.00329825332533 -1.43854788428843 -1.08523638833883
 6 -8.49580495519552 -1.67096688528853 -3.79235015441544
 6 -6.29198282538254 -3.59049815581558 -2.07845323922392
 8 -6.69578281888189 -4.60597556765677 -2.64622486818682
 6 -5.17870812431243 -3.66264803150315 -0.86325294609461
 6 -5.43596072367237 -4.68250345194519  0.15203235423542
 8 -5.83928811141114 -4.51572750615061  1.31998911921192
 8 -5.15518548174818 -5.84549843394339 -0.35267943934393
 6 -5.49619296849685 -7.01593518461846  0.54634216901690
 6  2.33017969956996 -5.02733899409941  0.51629961126113
 6  3.39180249034903 -3.97308880818082  0.96691797759776
 6  4.00293939763976 -3.11615143604360  0.14162653765377
 6  3.68699359665967 -3.12133532193219 -1.37553522232223
 6  5.07411161716172 -2.24416868506851  0.62753460436044
 6  6.50636624132413 -2.53375832883288  0.03812413831383
 6  7.63084221092109 -1.65931757755776  0.65115895049505
 6  8.99343795229523 -1.94178016001600 -0.01593830703070
 6  9.54429150925092 -3.43066296879688  0.15720884588459
 6  10.03021845744574 -0.85587620852085  0.49926789018902
 6  11.40718387568757 -0.91022381748175 -0.23997930853085
 6  12.26447406800680  0.26765595609561  0.28278906710671
 6  13.60472986708671  0.40365005190519 -0.55067482468247
 6  14.53208138113811 -0.63788451845185 -0.20871755695570
 6  14.24664460266027  1.76971174337434 -0.23081072347235
 6  15.51194047494749  2.15880781608161 -1.09237634533453
 6  16.02320193989399  3.52876538653865 -0.57803889688969
 6  17.33883827852785  3.90824974047405 -1.34040508830883
 6  17.16024500660066  4.04870043274327 -2.84071639163916
 6  17.89468288748875  5.20804893089309 -0.74086504350435
 1 -2.68117362326233  1.09429629322932  3.77796540774077
 1 -6.29927080998100  5.58333453565357  0.70552031473147
 1 -8.80140533963396  1.31713597509751 -3.02258763966397
 1 -3.41347841304130 -3.30865398209821  1.77969371147115
 1 -1.88027911391139 -0.91647925612561  2.53696586258626
 1 -2.99507883308331 -2.62523910481048  4.31259120502050
 1 -3.38263486358636 -1.14859697739774  4.85313144904490
 1 -4.26890856665667 -2.14521243924392  3.98069129172917
 1 -2.30807797339734 -3.33117616261626 -0.27838557315732
 1 -1.38379907960796 -1.87857648504850  0.20296113741374
 1 -0.97450184028403 -3.32699267156716  2.40146468756876
 1 -1.51690116871687 -4.65385222152215  1.49999903660366
 1 -1.49810846294629  3.75494018071807  3.94749713081308
 1 -2.78968662266227  5.07673731283128  4.61071673457346
 1 -2.77358729122912  3.19511270537054  4.97879485628563
 1 -5.43549740904090  6.76820480298030  2.48762087788779
 1 -10.20791477397740  2.91474862676268 -3.12071322592259
 1 -10.20227771067107  4.84267180168017 -2.81414440704070
 1 -9.95593135403540  4.14238213821382 -5.05654196479648
 1 -8.59147311331133  5.15866780738074 -4.52711239303930
 1 -8.37583785868587  3.43765807970797 -4.86074018871887
 1 -8.27545412701270 -1.17862111981198 -4.84209417841784
 1 -8.64347397529753 -2.72526958725873 -3.95549489338934
 1 -9.49443269236924 -1.17629426402640 -3.57310159525953
 1 -4.19452122812281 -3.75329115211521 -1.27320225032503
 1  2.73061100490049 -5.87205449854986  1.02748113601360
 1  2.35649897649765 -5.16254478087809 -0.62698813391339
 1  3.70908689108911 -4.22534265656566  1.97830619471947
 1  2.63250070197020 -3.06722827772777 -1.57997064716472
 1  4.22372971097110 -2.32644734533453 -1.97540575807581
 1  4.09206171357136 -3.85780763706371 -2.06279773707371
 1  5.06660052905291 -1.04961050565056  0.57715810691069
 1  5.01228358675868 -2.22379669686969  1.76869075537554
 1  6.92426164616462 -3.58054235373537  0.20886020772077
 1  6.29081792129213 -2.37143935993599 -1.06483616981698
 1  7.56261706330633 -0.66594314861486  0.43202195549555
 1  7.79660857105711 -1.89134738323832  1.76801427382738
 1  9.00149604920492 -1.81804984568457 -1.12118033673367
 1  8.61631379677968 -3.91834069396940 -0.07323979417942
 1  10.29586261566157 -3.60082343704370 -0.47550513241324
 1  9.76379312691269 -3.55329105770577  1.28869983298330
 1  9.57714877577758  0.25671408180818  0.35506468086809
 1  10.03743270187019 -1.06719503880388  1.60601153845385
 1  11.90448237933794 -1.85906322802280 -0.00315962376238
 1  11.11552749294929 -0.95264690019002 -1.39146999069907
 1  11.55953597169717  1.09716278807881  0.14218700830083
 1  12.55568632733273  0.26518780208021  1.43225240034003
 1  13.37843858615862  0.57130187298730 -1.79646585138514
 1  14.89033926112611 -0.58953197049705  0.84017911541154
 1  14.12241262776278 -1.66484966386639 -0.53926018011801
 1  15.40556041254125 -0.59859318701870 -0.90249265226523
 1  13.59426867246725  2.77138543774377 -0.13307318461846
 1  14.45554316651665  1.81480789528953  0.78534736203620
 1  16.22825155225522  1.41207666916692 -0.79961777677768
 1  15.23445824132413  2.33409166056606 -2.25955948684869
 1  15.27778924102410  4.39447265496550 -0.47053833383338
 1  16.33069270317031  3.13536949634963  0.49960241904190
 1  18.23369318611861  3.04094760326033 -1.28748313621362
 1  16.60707784458446  4.75901318021802 -3.17347162606261
 1  18.40153254315431  4.02247864106411 -3.35587302090209
 1  16.71564624992499  3.11742665386539 -3.26007656085609
 1  18.30056793079308  5.12174282728273  0.18617778347835
 1  18.68361597239724  5.53839006550655 -1.44990713181318
 1  17.15482805260526  5.87605201530153 -0.80790914301430
 1 -4.95925380998100 -8.02840393979398 -0.00116443244324
 1 -6.65763625492549 -6.93011239263926  0.39269911321132
 1 -5.12361457885789 -6.96666654285429  1.42417528592859
 8 -7.77891078637864  6.82132216361636 -0.42503593199320
 1 -8.91874525832583  6.19613702940294 -1.97882635013501

