%nproc=3
%Mem=2GB
# td=(NStates=1) iop(3/107=0140000000,3/108=0140000000) iop(3/107=0140000000,3/108=0140000000) CAM-B3LYP/6-31G(d,p) 

TD

0 1
12 -5.62041777297730  1.25071509920992  0.25125779457946
 6 -4.95657577937794 -2.02170613531353 -0.35149821492149
 6 -3.34137559745975  1.22730527202720  2.68066950515052
 6 -6.24128055035504  4.49008703180318  0.76247860906091
 6 -7.98292921092109  1.21479016141614 -2.37476157005701
 7 -4.36311339583958 -0.27252317541754  1.04687485448545
 6 -4.17319253965397 -1.55537671907191  0.67666138463846
 6 -3.15668707040704 -2.21426262486249  1.49197478607861
 6 -2.90827498289829 -1.23296396609661  2.59644643124312
 6 -3.58709550955095  0.03287413481348  2.11257191579158
 6 -3.38923103110311 -1.70208690129013  3.94554241364136
 6 -1.83375821912191 -2.67925191839184  0.66972115821582
 6 -0.98964672757276 -3.68663375127513  1.30990486738674
 6  0.24715058245825 -3.96954182628263  0.66458461956196
 8  0.53035688958896 -3.53848353715372 -0.44399441484148
 8  1.11038272047205 -4.77468261306131  1.36225221372137
 7 -4.92027057805781  2.63988422512251  1.46733341994199
 6 -3.98115220242024  2.49168718471847  2.48090331613161
 6 -3.72944348154815  3.66726680918092  3.14384332873287
 6 -4.55070082578258  4.73745221072107  2.55801168536854
 6 -5.31201056345635  3.93406808330833  1.55810096199620
 6 -2.75485411031103  3.97268435213521  4.24282815331533
 6 -4.68565126512651  6.04725475967597  2.90970640744074
 8 -3.97535002230223  6.74776960716072  3.62888686118612
 7 -6.90862251185118  2.52707063956396 -0.56410907860786
 6 -6.89693189098910  3.95528593409341 -0.25981418451845
 6 -7.82198733893389  4.53109416621662 -1.17090990009001
 6 -8.28170120292029  3.63459258935894 -2.14692924532453
 6 -7.70586439793979  2.42519069316932 -1.75723949374937
 6 -8.35489776847685  5.97451882158216 -1.19542067666767
 6 -9.30962744114411  3.72732367066707 -3.18814136273627
 6 -8.68347732843284  3.95651701480148 -4.59046229292929
 7 -6.36047181448145 -0.14654983518352 -1.08165918631863
 6 -7.35288889558956 -0.05133603920392 -2.01353727632763
 6 -7.54719783638364 -1.29989514221422 -2.80889391399140
 6 -6.70528601230123 -2.23212698599860 -2.05683489338934
 6 -5.97535545904590 -1.41307533703370 -1.13151101580158
 6 -8.52029740444044 -1.60397018561856 -3.83601452085209
 6 -6.18361198829883 -3.53523262926293 -1.96884227812781
 8 -6.51408464906491 -4.58254322442244 -2.59344959065907
 6 -5.00835108860886 -3.52161392809281 -0.84839145994599
 6 -5.20188731633163 -4.65916111771177  0.09027617861786
 8 -5.75040922352235 -4.48019395279528  1.26423354365437
 8 -4.99911987518752 -5.83521740584058 -0.40970514191419
 6 -5.13783713291329 -7.00871446254625  0.41481901670167
 6  2.33651033263326 -5.03627988818882  0.55726370767077
 6  3.42859616971697 -4.16261776107611  1.02075336113611
 6  3.97729683338334 -3.22951277217722  0.16471884688469
 6  3.62456735403540 -3.03050623902390 -1.25927359615962
 6  5.12466667266727 -2.35147941614161  0.67133898479848
 6  6.48946455115512 -2.84251920492049  0.08033835973597
 6  7.61032015871587 -1.79185083088309  0.54762859745975
 6  8.98934754325433 -2.05368135013501 -0.10928764196420
 6  9.52996007610761 -3.40903080558056  0.31752487748775
 6  9.93446888248825 -0.93442406330633  0.32249021242124
 6  11.24338749604960 -0.97212000710071 -0.32573788438844
 6  12.22384000460046  0.15727491799180  0.16601738993899
 6  13.40668006210621  0.47599728662866 -0.64260401760176
 6  14.34294246724673 -0.83216394639464 -0.61918860406041
 6  14.06048598679868  1.80562533473347 -0.22545018741874
 6  15.28753803470347  2.15721765706571 -0.99848695639564
 6  15.94437405710571  3.51921443144314 -0.65371646464646
 6  17.26408080278028  3.87121603710371 -1.28484953275328
 6  17.16914589668967  4.14610017271727 -2.78956127612761
 6  17.86330975017502  5.19342746874687 -0.54542549954995
 1 -2.61147665356536  1.30926779037904  3.29325693689369
 1 -6.59912079497950  5.54644084628463  1.01227098979898
 1 -8.76514171327133  1.16742100360036 -3.28593397429743
 1 -3.73778084328433 -3.06514963166317  1.63597934003400
 1 -1.85763684968497 -1.06311391959196  2.51563372937294
 1 -2.75801512671267 -2.44985156605661  4.25678562446245
 1 -3.39821642174217 -0.81074319201920  4.74814094999500
 1 -4.34970664646465 -2.17847576557656  3.98046126872687
 1 -2.42354952055206 -3.38289133413341 -0.27456519111911
 1 -1.17747844754475 -1.91886051345135  0.45130597189719
 1 -0.82030642074207 -3.44647461976198  2.37931247234723
 1 -1.59854933353335 -4.74941177747775  1.29787882458246
 1 -1.61035968806881  3.97343202990299  4.13013539463946
 1 -2.89909756375638  4.98252789188919  4.77281294419442
 1 -2.82352228472847  3.12922611671167  5.01638861566157
 1 -5.41786564586459  6.70567855035504  2.20458257405741
 1 -9.84681866436644  2.71879903180318 -3.01200235483548
 1 -9.96244372727273  4.63039057355736 -3.07257024962496
 1 -9.39319508040804  3.91496939693969 -5.41236754735474
 1 -8.13608757475748  4.76837877847785 -4.51585126692669
 1 -8.15610588548855  3.11117543144314 -4.86432054675468
 1 -8.19213579517952 -1.18016127382738 -4.80574054305431
 1 -8.62182181008101 -2.79151621192119 -3.99141848574857
 1 -9.70437368646865 -1.23383001760176 -3.49139342444244
 1 -4.26214799079908 -3.71055687868787 -1.52093702380238
 1  2.61310925472547 -6.03744103720372  1.05133352125213
 1  2.13604693129313 -4.72810133653365 -0.45959139423942
 1  3.79829581198120 -4.27329745204520  2.11652001610161
 1  2.66924437633763 -3.07393894879488 -1.60265291539154
 1  3.60788812681268 -1.75715041564156 -1.36484470197020
 1  4.21149365676568 -3.58884074037404 -1.83079453675368
 1  5.07050091909191 -1.26432197679768  0.37633802490249
 1  5.19623198159816 -2.43139745694569  1.91098498479848
 1  6.63775299529953 -3.79794409390939  0.30624994669467
 1  6.48775761526153 -2.71467368336834 -1.03647333353335
 1  7.28157895949595 -0.64580113441344  0.06682543584358
 1  7.84388329852985 -2.02759100760076  1.60771824422442
 1  9.07612351195120 -2.16229427012701 -1.27954617331733
 1  8.83727589298930 -4.30605946584658 -0.03422589278928
 1  10.51298432783278 -3.18379173387339 -0.29154673657366
 1  9.91898864646465 -3.64989071767177  1.39788075107511
 1  9.28928998989899 -0.02786437603760  0.39754892929293
 1  10.32014097269727 -1.06568488778878  1.48597953525353
 1  11.59531146224623 -1.95958328002800 -0.06773608140814
 1  11.11612755295530 -1.00627226272627 -1.60025086878688
 1  11.57092711081108  1.05728880068007  0.39295208480848
 1  12.47252801150115  0.13484476777678  1.33523269836984
 1  13.14899564186419  0.46632137493749 -1.71517772257226
 1  14.98517874507451 -0.60791380868087  0.28762385988599
 1  13.76717710421042 -1.89838301720172 -0.78806506060606
 1  15.23022287878788 -0.65426875457546 -1.44931733473347
 1  13.39297854345435  2.69894819401940 -0.37298717601760
 1  14.14766237843785  1.70555697019702  0.82481130843084
 1  15.97870659775977  1.26277173867387 -0.84695251025103
 1  15.06378117361736  2.22029028042804 -2.06698022892289
 1  15.10689215131513  4.52422563026303 -0.66297757775778
 1  16.24477411131113  3.43888984838484  0.34972743154315
 1  17.66292610941094  2.83834734323432 -1.17704209210921
 1  16.69533667046705  5.13172045094509 -2.96356063496350
 1  18.19225161506150  4.36087248044804 -3.04574200780078
 1  16.82396708200820  3.33390830203020 -3.52222277547755
 1  18.24461233523352  4.92615326832683  0.49810897659766
 1  18.71212882368237  5.61790801730173 -1.08345048614861
 1  17.00002257205720  6.06095050515052 -0.49040739283928
 1 -5.34296218081808 -7.89072017141714 -0.36224054005401
 1 -6.14059455075508 -6.80613999539954  1.07208705200520
 1 -4.12395461286129 -6.88573845004500  1.20802367076708
 8 -7.99477237253725  6.80926095749575 -0.29692312071207
 1 -9.07853123692369  6.28975639133913 -2.06725519301930

