%nproc=3
%Mem=2GB
# td=(NStates=1) iop(3/107=0140000000,3/108=0140000000) iop(3/107=0140000000,3/108=0140000000) CAM-B3LYP/6-31G(d,p) 

TD

0 1
12 -5.64612034323432  1.24397442514251  0.17342001080108
 6 -5.04152427422742 -2.10696466116612 -0.35935900100010
 6 -3.36051751165117  1.19354189568957  2.71814325252525
 6 -6.17291371367137  4.61255927902790  0.65082744394439
 6 -7.93797471547155  1.19322800520052 -2.41594568846885
 7 -4.39118620312031 -0.23310923402340  1.03015318231823
 6 -4.20607582798280 -1.57125830723072  0.65960967946795
 6 -3.16910831253125 -2.29979117771777  1.53766935553555
 6 -2.94801895729573 -1.32923359305931  2.57029381598160
 6 -3.53749054905491 -0.06055520812081  2.07006766536654
 6 -3.54198630663066 -1.80763745634563  3.97115497489749
 6 -1.99038388168817 -2.56841083428343  0.65058924502450
 6 -0.95167293019302 -3.58600368826883  1.46905078197820
 6  0.23124899229923 -3.93143801590159  0.60633879497950
 8  0.47354120802080 -3.56318600740074 -0.42180219561956
 8  1.17753943614361 -4.55959110391039  1.36156214471447
 7 -4.90281883288329  2.67629786648665  1.38328501510151
 6 -4.12419650685069  2.40205822182218  2.45483070887089
 6 -3.79762029922992  3.58474855735574  3.14455339973997
 6 -4.39832558825883  4.61928039353935  2.55266115031503
 6 -5.19465882828283  4.00147482398240  1.45705085698570
 6 -2.82379100400040  3.75785286898690  4.31555542604260
 6 -4.54057675767577  6.02944297849785  2.99600503730373
 8 -4.04426691399140  6.52677750795080  4.01986595909591
 7 -6.85586723632363  2.60071800430043 -0.72607527522752
 6 -6.91889408720872  3.96828723422342 -0.35751395449545
 6 -7.91602674287429  4.54296535333533 -1.17080989008901
 6 -8.44393742654265  3.63440257035704 -2.03943849624963
 6 -7.69872368386839  2.34665283938394 -1.75841961176118
 6 -8.34491677037704  6.01233260296030 -1.09780091469147
 6 -9.44170064846485  3.92154309260926 -3.23810635923592
 6 -8.83722270297030  4.03357472057206 -4.61074432113211
 7 -6.30361612891289 -0.16868204840484 -1.16343736413641
 6 -7.28703230993099  0.00234932933293 -2.08906482908291
 6 -7.56094921152115 -1.26950210291029 -2.75591861646165
 6 -6.71223670737074 -2.11080485378538 -2.08614782468247
 6 -5.92193011651165 -1.40844487398740 -1.15092295699570
 6 -8.59140451515152 -1.77307709630963 -3.75208612801280
 6 -6.26890051715171 -3.54673377937794 -2.09651504540454
 8 -6.49445268586859 -4.54177914801480 -2.82752299799980
 6 -4.99088934243424 -3.56998876557656 -0.88428504930493
 6 -5.24693182078208 -4.59697489908991  0.17252440344034
 8 -5.74054823742374 -4.47248318171817  1.26655377567757
 8 -5.15177514071407 -5.82804668876888 -0.37468163956396
 6 -5.66088943814381 -6.91507509860986  0.53355088988899
 6  2.35212189378938 -5.05196145634563  0.83735171647165
 6  3.48856216631663 -4.10526202550255  1.16688797459746
 6  4.04426353005300 -3.39504932583258  0.24510688568857
 6  3.80152504980498 -3.28825201360136 -1.16897456625663
 6  5.19496370237024 -2.47205147334733  0.67583943484348
 6  6.58422402710271 -2.77540249324933 -0.07388706280628
 6  7.70633976067607 -1.77624927072707  0.54611844644464
 6  9.00429903840384 -2.07020300230023 -0.11313802700270
 6  9.43060014011401 -3.42212211471147  0.31167429242924
 6  9.98102353795380 -0.95977659855986  0.44445240864086
 6  11.37133029032903 -0.90196299139914 -0.30186549714972
 6  12.15059267986799  0.38646783728373  0.06439722792279
 6  13.48224761886189  0.42848253515352 -0.74562431963196
 6  14.42498067106711 -0.77056778677868 -0.38214489968997
 6  14.14760469866987  1.80104487668767 -0.32114975737574
 6  15.62366164706471  2.25397733303330 -1.02786989468947
 6  15.95791541124112  3.54119662966297 -0.65189628262826
 6  17.22501689638964  4.05997491299130 -1.29617066486649
 6  17.21907088918892  4.06548211091109 -2.86025834583458
 6  17.89025244444444  5.27350547654765 -0.78847980498050
 1 -2.60683618951895  1.35716257985799  3.42467007820782
 1 -6.39409029192919  5.49453565576558  0.84081384408441
 1 -8.60498569766977  1.11534579607961 -3.27681306220622
 1 -3.73185025022502 -3.21456457315732  1.88924466656666
 1 -1.80827191319132 -1.21168877707771  2.70205237123712
 1 -2.77648697389739 -2.50906748764876  4.38907885378538
 1 -3.51041764186419 -0.84601671937194  4.58010414631463
 1 -4.54695637143714 -2.19273719171917  3.78578180078008
 1 -2.22295946154615 -3.23981702670267 -0.29625736033603
 1 -1.40723142284228 -1.64329295669567  0.32519336063606
 1 -0.75436982708271 -3.01341131343134  2.31020556165617
 1 -1.30012949154915 -4.58129496579658  1.80814985168517
 1 -1.82743139523952  3.46697138383838  3.77729011011101
 1 -2.97432508650865  4.66826646574657  4.74015967886789
 1 -3.29619955245525  3.08626182028203  4.96561353815382
 1 -4.97188104740474  6.72561054355436  2.11488360416042
 1 -10.07541152365236  2.96051320322032 -3.14768592319232
 1 -10.14192167506751  4.71897943244324 -2.77876086868687
 1 -9.36595235613561  4.28526642664266 -5.23120943154315
 1 -8.09211317731773  4.85529747034703 -4.65187486928693
 1 -8.35627590249025  3.15813012691269 -4.89433354805481
 1 -8.38741532313231 -1.01439469716972 -4.58709867886789
 1 -8.48436806470647 -2.81512857315732 -3.93502284618462
 1 -9.59459270837084 -1.63596023062306 -3.27976226132613
 1 -4.22197397339734 -3.95595141814181 -1.59896482658266
 1  2.52455039883988 -5.98297559065907  1.42012039993999
 1  2.36494982158216 -5.22384091049105 -0.09397483258326
 1  3.88515449784978 -3.81039116141614  2.17526589068907
 1  2.72918036993699 -3.55740729562956 -1.40956360646065
 1  3.87913525152515 -2.30093479407941 -1.70009822732273
 1  4.46965947334733 -4.11489334563456 -1.66034749204921
 1  5.00632450145015 -1.35208075267527  0.46212660376038
 1  5.25677803620362 -2.60070438763876  1.75359924622462
 1  6.92769198919892 -3.73304760426043  0.12791211291129
 1  6.44705354485449 -2.74920713671367 -1.08235792199220
 1  7.36145694729473 -0.59263581788179  0.44589334263426
 1  7.85000391059106 -1.89927817631763  1.54818229062906
 1  9.07526342594259 -1.95870391109111 -1.15478369706971
 1  8.81031319671967 -4.33958281818182  0.24483201300130
 1  10.18623165256526 -3.72683603830383 -0.33094067596760
 1  9.53670041764176 -3.49597532613261  1.37707867086709
 1  9.36799786068607  0.10123853425343  0.32905207960796
 1  10.22803176177618 -1.20902922222222  1.50566150345034
 1  11.92929486058606 -1.60780810251025  0.03614430663066
 1  11.15685162536254 -1.10814244974497 -1.40341118481848
 1  11.57371738983898  1.27667073887389 -0.11021823222322
 1  12.29035979467947  0.29998128142814  1.18728790389039
 1  13.52697343964396  0.39986472927293 -1.82913911871187
 1  14.52814304150415 -0.84236725402540  0.70247534503450
 1  14.00261064756476 -1.75109828872887 -0.72863911801180
 1  15.45789564606461 -0.89778310601060 -0.79242164516452
 1  13.42052129772977  2.68122642184218 -0.71926180348035
 1  14.14405201740174  1.86631304580458  0.92211103840384
 1  16.32145087218722  1.50959642114211 -0.87036485148515
 1  15.42834763026303  2.19838809020902 -2.26521005190519
 1  15.06482794489449  4.21917512521252 -0.96989826982698
 1  15.93756339023902  3.75107106650665  0.33682614141414
 1  17.95291510831083  3.30452396089609 -0.85943033093309
 1  16.54373150995099  4.79118639753975 -3.14434871377138
 1  18.22412480238024  4.16283267646765 -3.24280171377138
 1  16.86298098339834  3.09726463766377 -3.26768732193219
 1  18.26990486448645  5.32402305530553  0.30392955865587
 1  18.79239685048505  5.39083531003100 -1.43304544564456
 1  17.32916548634864  6.13749815991599 -0.76568492059206
 1 -5.19707759235924 -7.74033513291329 -0.01021533753375
 1 -6.74487497879788 -6.90932031343134  0.58926877017702
 1 -5.08640085748575 -7.00502037823782  1.59975284368437
 8 -7.80447334263426  6.82033206460646 -0.32671610001000
 1 -9.21332471627163  6.32041945764577 -1.63961242874287

