%nproc=3
%Mem=2GB
# td=(NStates=1) iop(3/107=0140000000,3/108=0140000000) iop(3/107=0140000000,3/108=0140000000) CAM-B3LYP/6-31G(d,p) 

TD

0 1
12 -5.59293502470247  1.26242627032703  0.22775544434443
 6 -5.02341246304630 -2.14381834653465 -0.34831789688969
 6 -3.35640710061006  1.14031657315732  2.72203364156416
 6 -6.14509093139314  4.50415843894389  0.66701906310631
 6 -7.94102502050205  1.19431811421142 -2.37324141804180
 7 -4.41826891139114 -0.25110103320332  1.07029719671967
 6 -4.34660988138814 -1.63427460886089  0.72923664216422
 6 -3.34197559925993 -2.32470366896690  1.54778036663666
 6 -2.97220137553755 -1.38331900160016  2.61860864746475
 6 -3.61583838383838 -0.09965911851185  2.17166782538254
 6 -3.45870797879788 -1.82375906850685  4.12700055945595
 6 -2.12667751105111 -2.70572456565657  0.69906409250925
 6 -1.18975673857386 -3.63271835973597  1.39683356025603
 6  0.15203107050705 -4.01611648374837  0.57069523062306
 8  0.24436829072907 -3.64939462826283 -0.63086310171017
 8  1.00446212841284 -4.72966811161116  1.29189517801780
 7 -4.88521707270727  2.65746598329833  1.49138582518252
 6 -3.84163825102510  2.44643265926593  2.40123534933493
 6 -3.51813235043504  3.65442552505251  3.05020396479648
 6 -4.50705646134613  4.58492695819582  2.44229011321132
 6 -5.10402976537654  3.97522219871987  1.43802895479548
 6 -2.64519314421442  3.90592767646765  4.34073794429443
 6 -4.48877157715772  6.00895092929293  2.90773621042104
 8 -3.79293178047805  6.53661849204920  3.74355832833283
 7 -6.77135878547855  2.70263819631963 -0.78285095279528
 6 -6.92040423822382  3.93448385388539 -0.42344054715472
 6 -7.90350549074908  4.53866492329233 -1.27635044414441
 6 -8.41877491029103  3.65716484658466 -2.09640419281928
 6 -7.69464327582758  2.43773194729473 -1.86212998279828
 6 -8.28591086978698  5.96988835853585 -1.18268940354035
 6 -9.55604208260826  3.82086302460246 -3.05326787538754
 6 -8.98227720842084  4.06097746084609 -4.42242548924892
 7 -6.30747651495150 -0.03237841804180 -1.17559858025803
 6 -7.26733033973397  0.00150924532453 -2.13553947654765
 6 -7.53074619121912 -1.25821097379738 -2.73021604620462
 6 -6.67251273497350 -2.14129790309031 -1.95004421432143
 6 -5.90959888338834 -1.35523955345535 -1.09100696539654
 6 -8.40315569026903 -1.70701048964896 -3.83383430283028
 6 -6.22294592169217 -3.52485159115912 -1.98291368526853
 8 -6.62299554015402 -4.56406137623762 -2.51452169786979
 6 -5.07748800230023 -3.51786355305531 -0.84581120192019
 6 -5.34495162276228 -4.58758395999600  0.21804895589559
 8 -5.90518470107011 -4.42708864226423  1.23364048434843
 8 -4.86307627082708 -5.81234511861186 -0.22176634803480
 6 -5.28130147934793 -6.99506309740974  0.65309284408441
 6  2.30658734033403 -5.03115937613761  0.51611959325933
 6  3.40419372947295 -4.08706020532053  0.91970325612561
 6  4.09323842754275 -3.28299812071207  0.07928030303030
 6  3.79683458075808 -3.34940812921292 -1.33181084988499
 6  5.18281248724873 -2.38156242444244  0.60200205110511
 6  6.49237484218422 -2.68632358535854 -0.07765743984398
 6  7.61250037673767 -1.82376402220222  0.59296313091309
 6  8.98455706420642 -2.16696267826783  0.01709499629963
 6  9.58042512261226 -3.49882978547855  0.29021214621462
 6  9.91529696529653 -0.91753237413741  0.40061802520252
 6  11.30580373767377 -0.94987778287829 -0.19624493509351
 6  12.12382000260026  0.33037222772277  0.06699748794879
 6  13.48469786388639  0.48505819271927 -0.69780953815382
 6  14.53662183518352 -0.66606733673367 -0.44467115231523
 6  14.16582652085208  1.80816558875888 -0.26269391179118
 6  15.53999328022802  2.16652858815882 -0.98350545824582
 6  15.92529214891489  3.63586609660966 -0.63029412241224
 6  17.27836223092309  4.03085200070007 -1.19394044184418
 6  17.20647963006301  4.20139570227023 -2.73537585758576
 6  17.65882930213021  5.36586471247125 -0.61384234123412
 1 -2.84321982788279  1.24343120672067  3.56401401260126
 1 -6.42452333523352  5.51220742294229  0.69258902160216
 1 -8.72532773187319  1.07129139063906 -2.87907328822882
 1 -3.90893795899590 -3.24520763746375  2.07841358345835
 1 -1.92935402140214 -1.07266487468747  2.67903006900690
 1 -2.93044236943694 -2.63013959485949  4.56327627352735
 1 -3.40131673177318 -1.00317243494349  4.78908504440444
 1 -4.43137481328133 -2.01674959295930  3.86237946054605
 1 -2.39708687428743 -3.23562660766077 -0.25592332693269
 1 -1.52721342104210 -1.78158678607861  0.38423926522652
 1 -0.83285767586759 -3.34476444874487  2.42113665476548
 1 -1.68403788238824 -4.69392622892289  1.57618665536554
 1 -1.64840349244925  3.62132681938194  4.15044742584258
 1 -2.77406506050605  4.98551819091909  4.60351601450145
 1 -2.90151008350835  2.93983717781778  4.99049602640264
 1 -5.16833069236924  6.73620160266027  2.12188430423042
 1 -10.17655163766377  2.91909906180618 -3.03267442204220
 1 -10.11466894979498  4.66913444794479 -2.76205919851985
 1 -9.79313507440744  4.06799469946995 -5.28143445404540
 1 -8.36419038503850  4.80450239083908 -4.56918660046005
 1 -8.53479375427543  3.27261157505751 -4.99958407310731
 1 -7.87072365396540 -1.42258551625163 -4.82747271627163
 1 -8.37613724162416 -2.80784784508451 -4.19105844974498
 1 -9.56133938303830 -1.42272890749075 -3.68126241134113
 1 -4.12508428442844 -3.84572039503950 -1.55547047714772
 1  2.73258120192019 -5.85596288938894  0.97644603250325
 1  2.00647397399740 -4.97738626502650 -0.41495693079308
 1  3.67747372977298 -4.07129725202520  2.06185454955496
 1  2.66203365526553 -3.29361091599160 -1.82608525862586
 1  3.91917925592559 -2.32089679027903 -1.62351056855685
 1  4.37598010541054 -4.10845270157016 -1.94428588588859
 1  4.90033390239024 -1.49377492209221  0.30719111021102
 1  5.25664802320232 -2.50239455665567  1.78194208050805
 1  6.65937515751575 -3.78448274777478 -0.23138381668167
 1  6.60007884738474 -2.54271648764876 -1.14119380558056
 1  7.19917071867187 -0.82506906120612  0.44839359265927
 1  7.44117302750275 -2.08549679817982  1.73429090149015
 1  9.07288318791879 -2.13126116681668 -1.03720193889389
 1  8.87338950435043 -4.16665552545255 -0.30808327852785
 1  10.66456948634863 -3.56076943164316 -0.34727230913091
 1  9.82582933053305 -3.76557228582858  1.34504546754675
 1  9.71803286418642 -0.02327391699170  0.31065023942394
 1  10.10279923852385 -1.03196151545155  1.49006994429443
 1  11.70708263936394 -1.88669599129913  0.26113680588059
 1  11.21357729792979 -1.09140077557756 -1.34456530023002
 1  11.41715173327333  1.08730180198020  0.01187397699770
 1  12.26616737543754  0.27291857515752  1.11393056815682
 1  13.35025576787679  0.52849759255926 -1.78531473627363
 1  14.51704193139314 -0.62141515881588  0.68940403790379
 1  14.32004239073907 -1.56261944084408 -1.10359661376138
 1  15.72583243974397 -0.37399072677268 -0.83377578057806
 1  13.46942618821882  2.72416071527153 -0.36674655195520
 1  14.42562017421742  1.63183959845985  0.75688451575158
 1  16.12750147724772  1.32345780728073 -0.77944575957596
 1  15.29352414791479  2.09657790919092 -2.19466299719972
 1  15.20942240434043  4.17314052175217 -1.06262754275428
 1  16.02915254915492  3.91994795419542  0.45052751155116
 1  17.93179299609961  3.18393190169017 -1.09860424832483
 1  16.31396853365337  4.97182446134614 -2.95634991389139
 1  18.08120050995100  4.66704309750975 -3.04345177877788
 1  17.03890857615761  3.28544345554555 -3.29713026622662
 1  18.03489136313631  5.40963161616162  0.49228839453945
 1  18.56494410521052  5.89063529002900 -0.94728686978698
 1  17.00427299709971  6.14099850995099 -0.85028338043804
 1 -5.28460634523452 -7.80494159355936 -0.16069038503850
 1 -6.33223371467147 -7.03309269066907  0.94562440574057
 1 -4.55340755815581 -7.31968184438444  1.61388425682568
 8 -7.71618451375137  6.79284931633163 -0.39472290069007
 1 -8.95068845264526  6.21676909260926 -2.04894336183618

