%nproc=4
%Mem=2GB
# td(NStates=1) B3LYP/6-31G(d,p) nosymm

AlQ3Abs Single Point

0 1
Al  -0.55471147  -1.19173268   0.38105623
O   0.77119602  -2.39858523   0.22683879
O  -2.01980834  -2.10335137  -0.27898643
O  -0.94661989  -1.40877428   2.26023420
C  -0.18779568  -0.78237966   3.03439202
C  -0.30563051  -0.87558213   4.48186125
C   0.61170216  -0.12803057   5.29038294
C   1.38683126   0.77335688   4.68526106
C   1.49173091   1.00751134   3.34797388
C   0.76199552   0.18821389   2.51846710
C   2.37571961   1.78595057   2.69141404
C   2.33283865   1.94134182   1.35663660
C   1.43069980   1.09696164   0.60554648
N   0.71679314   0.28992499   1.20502038
C   1.36790191  -2.39230757  -0.98597524
C   2.42795679  -3.29077117  -1.30162913
C   2.97923905  -3.41465226  -2.61841199
C   2.57677665  -2.49034033  -3.59566701
C   1.61178089  -1.43492814  -3.30419751
C   0.95825652  -1.49091392  -2.04300628
C   1.00900420  -0.58099322  -4.29245132
C   0.03638569   0.33497280  -3.89485122
C  -0.40265177   0.29072669  -2.51040812
N   0.00465044  -0.72945890  -1.67580961
C  -3.10983118  -1.46277067  -0.54372880
C  -4.31684385  -2.05888074  -1.02857069
C  -5.47036161  -1.27296315  -1.10979562
C  -5.56422315   0.13162913  -0.86710793
C  -3.21642863  -0.11666867  -0.29941362
C  -4.40462273   0.73992184  -0.48739377
C  -4.20389762   2.11345623  -0.10306471
C  -3.11052271   2.66351974   0.44566877
C  -1.93765900   1.78022050   0.54745284
N  -2.05417039   0.49660178   0.24666599
H  -4.39912636  -3.20860798  -0.99068094
H  -6.18419828  -1.90148718  -1.27584749
H  -6.53253177   0.85042080  -1.31849472
H  -5.22552995   2.76413156  -0.14313520
H  -3.07244345   3.80746105   0.82553828
H  -1.12285986   2.37218114   1.08007425
H  -0.90645219  -1.46235922   4.84124629
H   0.57123737  -0.23529193   6.34830005
H   2.10752390   1.32662861   5.43119298
H   3.15484137   2.75301823   3.29056592
H   2.89780621   2.55672009   0.69644146
H   1.26514986   1.01718185  -0.57709334
H   2.85863249  -3.96576556  -0.30570059
H   3.86585978  -4.17759806  -2.95033646
H   2.96874973  -2.36778474  -4.45471313
H  -1.05851867   1.08911004  -2.27032373
H   1.40574522  -0.37306825  -5.34088550
H  -0.35583495   1.06298404  -4.47808785




