%nproc=4
%Mem=2GB
# td=(NStates=1) CAM-B3LYP/6-31G(d,p) 

TD

0 1
<<<<<<< HEAD
12 -7.22471304430443  0.56695544364436  0.07252493989399
 6 -4.89275389338934 -1.94211538993899  0.48674520722072
 6 -4.83484341324132  2.81985043234323  1.21239760466047
 6 -9.42040677617762  3.14211970747075 -0.26405926562656
 6 -9.51632194589459 -1.73702921392139 -0.96360278937894
 7 -5.14596802140214  0.37897771587159  0.78194861316132
 6 -4.30694040014001 -0.76163598559856  0.80185820902090
 6 -2.95914491989199 -0.45938536423642  1.24774512871287
 6 -3.14534797319732  1.08417108540854  1.66580731143114
 6 -4.47293428832883  1.45480622942294  1.15092212211221
 6 -2.94167925002500  1.29083137123712  3.18645005390539
 6 -1.93988744974497 -0.57306256765677  0.20239419771977
 6 -0.48432585518552 -0.41801614881488  0.57470159945995
 6  0.50136127332733 -0.64754826772677 -0.61215659615962
 8  0.22304354445445 -0.87091249884988 -1.73123945564556
 8  1.80574238473847 -0.48597599399940 -0.20687747664766
 7 -7.15366581448145  2.61852744254425  0.39692838833883
 6 -6.08657793679368  3.30418139393939  0.78767230083008
 6 -6.36923417651765  4.87615190459046  0.68071875907591
 6 -7.74260696769677  4.83812444394439  0.31651004230423
 6 -8.14443871547155  3.46461565686569  0.06748929522952
 6 -5.39656761346135  5.92329479537954  0.89213397389739
 6 -8.50942874047405  5.98718975267527  0.13020000540054
 6 -8.37759165046505  7.22827894649465  0.76917316711671
 7 -9.19741201380138  0.66706956805681 -0.49317335103510
 6 -9.82662892259226  1.79391934503450 -0.60421674577458
 6 -11.19240833743374  1.45861420052005 -1.03021474097410
 6 -11.19583198709871  0.11769713381338 -1.30042875687569
 6 -9.93674935563556 -0.46389836413641 -0.91277629372937
 6 -12.35136396009601  2.43143371437144 -1.29075585038504
 6 -12.41653619991999 -0.75725313541354 -1.73708451695170
 6 -12.37316480488049 -1.04988739993999 -3.21781690029003
 7 -7.36065553385339 -1.36981659525953 -0.08050272727273
 6 -8.32573281308131 -2.31889706180618 -0.40684563976398
 6 -7.86130227582758 -3.65272353985399 -0.49937721502150
 6 -6.54450833493349 -3.53473781078108 -0.04048578047805
 6 -6.30981357775778 -2.22342062336234  0.16006881108111
 6 -8.66421388878888 -4.84582742514251 -0.74269274767477
 6 -5.37842231253125 -4.32639652315232  0.15859873247325
 8 -5.21699053695369 -5.55788027142714  0.16748377907791
 6 -4.20870444984498 -3.30464625442544  0.51215108040804
 6 -3.62947357825783 -3.63423864516452  1.94780515341534
 8 -3.75661726232623 -3.04299103530353  2.99296197729773
 8 -2.85828702240224 -4.82209693209321  1.74799338023802
 6 -2.33016360426043 -5.28153238233823  2.97260219571957
 6  2.83086559825983 -0.61991978657866 -1.24467566796680
 6  4.13294538353835 -0.51824000030003 -0.57086723572357
 6  5.16200968536854  0.22745901130113 -1.04121389408941
 6  5.12568099109911  0.87613026232623 -2.50786495179518
 6  6.49805413821382  0.27949980018002 -0.34279076427643
 6  7.74085162306231 -0.20653100000000 -1.14336128662866
 6  9.02694456705671 -0.00069519991999 -0.28015982878288
 6  10.25813643814381 -0.47838491019102 -1.02419338983898
 6  10.12703940414041 -1.96963789988999 -1.43535700070007
 6  11.42173505040504 -0.17603138393839 -0.06605573697370
 6  12.85021992969297 -0.51582563366337 -0.69770979387939
 6  14.05287475587559 -0.11968317111711  0.19935700320032
 6  15.47959408430843 -0.08285201430143 -0.43060129992999
 6  15.83508517741774 -1.50033766756676 -1.00708032573257
 6  16.50326443234323  0.47643200320032  0.49623413061306
 6  17.91834642404240  0.62279367776778 -0.05854166876688
 6  18.87555792529253  1.36994521152115  0.93320375337534
 6  20.26692536173617  1.33266359985999  0.33463822702270
 6  20.53478483228323  2.08509680688069 -0.94487548024802
 6  21.16274720552055  1.93519645594559  1.43569893329333
 1 -4.02070355485549  3.40740626202620  1.42018660556056
 1 -10.38106849954995  3.71587242224222 -0.33154854635464
 1 -10.23319660906090 -2.48868820962096 -1.33616026822682
 1 -2.68392484938494 -1.02346065996600  1.90650134133413
 1 -2.31056466166617  1.80929451205120  1.23977462786279
 1 -1.97840229772977  0.83862431533153  3.72019573307331
 1 -3.07025208520852  2.31079513701370  3.42042420782078
 1 -3.61797524022402  0.81474615861586  3.91269368216822
 1 -2.06004848974897 -1.63866382678268 -0.20283419261926
 1 -2.18907057955796  0.04109135953595 -0.60496053565357
 1 -0.21429494689469  0.68963357725773  0.59849024812481
 1 -0.11150895289529 -0.97360187538754  1.48660261546155
 1 -5.63023179857986  6.70030867496750  0.40342605180518
 1 -5.60433742314231  6.37240060316032  1.96701299839984
 1 -4.44960891689169  5.69844101050105  0.67701087668767
 1 -9.49271132363236  6.01029717781778 -0.61737196539654
 1 -8.93307452335234  8.16433717261726  0.45113473527353
 1 -7.63580304610461  7.35047144664466  1.48869725522552
 1 -11.94186829192919  3.28669899589959 -2.30609361406141
 1 -13.24040370957096  2.04999889108911 -1.64967615911591
 1 -12.49392112321232  2.97651630633063 -0.30971221522152
 1 -12.39702448084808 -1.83511295639564 -1.21017597249725
 1 -13.18088680758076 -0.06391312811281 -1.29696522402240
 1 -13.28722507510751 -1.69948463466347 -3.55125501000100
 1 -12.33921748594859 -0.28653319091909 -3.80853434913491
 1 -11.56786306560656 -1.50713558065807 -3.51341996199620
 1 -8.93677328032803 -4.74840558345835 -1.76158942304230
 1 -8.18441780658066 -5.85259526372637 -0.63395300830083
 1 -9.39309919481948 -4.91050607190719 -0.02097391999200
 1 -3.34265496139614 -3.36928017871787 -0.21427669916992
 1 -1.79583775027503 -4.67930437013701  3.52018493379338
 1 -3.04256386498650 -5.81647326492649  3.78142098099810
 1 -1.82402051355135 -6.13728300150015  2.70846479937994
 1  2.43414271837184 -1.53792562846285 -1.41645561056106
 1  2.61530900850085  0.07269154875488 -2.10986413861386
 1  4.38754966056606 -1.01834404960496  0.31439465546555
 1  4.06982594609461  1.09587829822982 -3.09994836453645
 1  5.69523493519352  1.92683294219422 -2.22071854005401
 1  5.76110341794179  0.42733384088409 -3.28170690169017
 1  6.79203126602660  1.37298129812981 -0.24437179437944
 1  6.45706982638264 -0.24044208160816  0.67002671937194
 1  7.65191257595760 -1.13258249344935 -1.31536285988599
 1  7.97888032393239  0.20806401450145 -1.93034595819582
 1  9.08537058865886  1.12676056105611  0.06373400560056
 1  8.96366485518552 -0.52634814101410  0.69921778547855
 1  10.39208676007601  0.20347288498850 -2.02537742724272
 1  9.28413339883988 -2.12347032353235 -2.13348927372737
 1  11.03091564726473 -2.28292507640764 -1.96228047194719
 1  9.94531741774177 -2.73046498849885 -0.61438087778778
 1  11.18366604750475  0.77610984118412  0.19093058055806
 1  11.30014306770677 -0.65216117741774  0.76199682128213
 1  13.01986530543054 -1.43178133933393 -1.09448711631163
 1  12.95954970747075  0.27940863186319 -1.53245660696070
 1  13.83774521122112  0.82939549554956  0.64599194219422
 1  14.01811456455646 -0.87740734543454  0.92844936143614
 1  15.54504779327933  0.60226971197120 -1.34351870987099
 1  15.83407084998500 -2.24122441454145 -0.02927438133813
 1  14.98261131183118 -1.96376875247525 -1.62316973207321
 1  16.80944057345735 -1.74884040894089 -1.59551102060206
 1  16.37038223892389  1.49811764546455  0.71615816011601
 1  16.61487593479348 -0.24266344144414  1.28176093729373
 1  18.24309524822482 -0.53102965036504 -0.47308064846485
 1  17.86240330483048  1.10092741164116 -0.93891746754675
 1  18.40679147174718  2.42656681438144  1.00873887918792
 1  18.80276743704371  0.89184336533653  1.77545754605461
 1  20.61513642634263  0.23243939213921  0.17226429042904
 1  20.47333143974397  3.15494905680568 -0.90870446384639
 1  21.56453070517052  1.84230088288829 -1.38605996929693
 1  19.69701360576058  1.74599641044104 -1.67285425442544
 1  20.97812378757876  1.45530363946395  2.37246686388639
 1  22.17219892619262  1.66039726942694  1.15256022232223
 1  20.88400813071307  2.98461854515452  1.39314975547555
=======
12 -7.16620719371937  0.61190993909391  0.03172085948595
 6 -4.82016663466347 -1.99571074947495  0.41737827052705
 6 -4.91366129502950  2.84183263056306  1.28343470837084
 6 -9.39520425592559  3.10067556305631 -0.46149900960096
 6 -9.50728104180418 -1.80130564156416 -0.99370579967997
 7 -5.15490891549155  0.54319413751375  0.64033445174517
 6 -4.37418712481248 -0.70738056005601  0.81127915111511
 6 -2.94273327872787 -0.34590401610161  1.29945029922992
 6 -3.06904034243424  1.02169483778378  1.79830056075608
 6 -4.51494848974897  1.55370611941194  1.22772980288029
 6 -3.05860094219422  1.17776006410641  3.27107851675168
 6 -1.91831529252925 -0.45214047544754  0.13451741004100
 6 -0.43102052465247 -0.28437278447845  0.59513364266427
 6  0.47362850005000 -0.73941745464546 -0.53314869536954
 8  0.14158539863986 -1.18119352695270 -1.58573490519052
 8  1.79510132063206 -0.31971936833683 -0.22366915581558
 7 -7.07750819871987  2.60365595539554  0.33350204570457
 6 -6.10135941494149  3.37915889168917  0.75654918851885
 6 -6.48936618971897  4.81812610201020  0.76786747394739
 6 -7.72434514151415  4.89788041954195  0.35473386468647
 6 -8.12985725732573  3.53419261456146  0.01672421872187
 6 -5.56931488818882  5.89294176007601  1.28600336083608
 6 -8.56197399499950  6.06459749344935  0.24777176257626
 6 -8.35123901520152  7.32536865546555  0.77492374217422
 7 -9.05408768136814  0.56622948404841 -0.66487052075208
 6 -9.74174043374337  1.76158611171117 -0.75333165726573
 6 -11.14679377597760  1.45358369746975 -1.23224494399440
 6 -11.22285468936894  0.09643500760076 -1.32616133013301
 6 -9.90669635033503 -0.45888786308631 -1.04829984608461
 6 -12.17160598429843  2.50336090709071 -1.62677945274528
 6 -12.34800934723472 -0.74869227932793 -1.67143795229523
 6 -12.30887837623762 -1.07003941514151 -3.22451757035704
 7 -7.22189165746575 -1.47043665726573 -0.18142281928193
 6 -8.27873811361136 -2.23770894299430 -0.56284123932393
 6 -7.77331347694769 -3.64174244174417 -0.55004228152815
 6 -6.48764264836484 -3.58347268426843 -0.12785451735174
 6 -6.18914151055105 -2.18813709500950 -0.01661885768577
 6 -8.60684815221522 -4.86626946934693 -0.83917239563956
 6 -5.29290376067607 -4.38221210471047  0.21724459705971
 8 -5.10396923482348 -5.53294777817782  0.19544657535754
 6 -4.14497807720772 -3.32755854565457  0.58499836513651
 6 -3.52268289918992 -3.65227044834483  1.97368774167417
 8 -3.82613421402140 -3.21134787098710  3.06675935703570
 8 -2.61849304300430 -4.58069279167917  1.80962954385439
 6 -2.19268985688569 -5.26104033313331  3.06500143564356
 6  2.83216572827283 -0.76803459805981 -1.11824302470247
 6  4.15734782378238 -0.49658783508351 -0.43625377437744
 6  5.18599208360836  0.42510877627763 -0.97840761346135
 6  4.99598802180218  1.22459510881088 -2.18373253855386
 6  6.41670600340034  0.45490734093409 -0.19884636983698
 6  7.65905344324432 -0.19421976887689 -0.95578252875288
 6  8.99075094769477 -0.18831396179618 -0.09294110691069
 6  10.16435706020602 -0.58079515121512 -0.87939891039104
 6  10.05717241744174 -2.04058499459946 -1.34426789178918
 6  11.50263314021402 -0.49788356915692 -0.00742987438744
 6  12.83479838753875 -0.60190424152415 -0.72354237713771
 6  13.96265573397340 -0.19963116591659  0.17840490799080
 6  15.39332545744574 -0.10246397549755 -0.53065130493049
 6  15.72361403030303 -1.54606224002400 -0.89632925062506
 6  16.42464657055706  0.42828718871887  0.40174468166817
 6  17.79092368176818  0.64570596899690 -0.21240705530553
 6  18.81955232473247  1.33758197519752  0.65530596359636
 6  20.19986865606560  1.31664199769977  0.15452021522152
 6  20.27671902570257  2.14993329052905 -1.12226321902190
 6  21.06020695149515  2.00834377067707  1.20399576297630
 1 -4.09178066256626  3.52791831323132  1.76948153505351
 1 -10.19078947164716  3.81587242224222 -0.36322171367137
 1 -10.19524281368137 -2.53219256005601 -1.16466311851185
 1 -2.83555001190119 -1.06153446734674  1.95018570977098
 1 -2.28114171937194  1.76406998959896  1.32734338473847
 1 -2.12201665916592  0.84339479237924  3.66594030753075
 1 -3.28623368336834  2.19102315981598  3.87520968636864
 1 -3.68562200490049  0.67342202620262  3.73221563436344
 1 -1.97859034393439 -1.53183314371437 -0.36310021922192
 1 -2.16155782828283  0.16532378277828 -0.68706874647465
 1 -0.34959847724772  0.80841545544554  0.78645904500450
 1 -0.34884268626863 -0.81739625482548  1.39320327552755
 1 -6.15486426182618  6.95643428752875  1.00524623382338
 1 -5.58682567196720  5.86295965906591  2.42032832993299
 1 -4.45519947594759  5.63085425182518  1.19301247684768
 1 -9.48528058055806  6.01491763986399 -0.36465669386939
 1 -8.93599481538154  8.21579231813181  0.78269789158916
 1 -7.52605207100710  7.44145054455446  1.34800318581858
 1 -12.15311941704170  3.13857418341834 -2.57634063876388
 1 -13.19385905510551  1.86302019321932 -1.74401559305931
 1 -12.68958068916892  3.10040869556956 -0.71118236223622
 1 -12.41043582198220 -1.82289173427343 -1.28613356825683
 1 -13.40713943284328 -0.47703444024402 -1.43679920742074
 1 -13.13065941854185 -1.92126681288129 -3.21743162766277
 1 -12.48132169636964 -0.15723026062606 -4.00461395709571
 1 -11.44865114441444 -1.62341720882088 -3.56673529352935
 1 -8.65775537853786 -4.98355909880988 -1.93287655175518
 1 -8.05804516931693 -5.77404740894089 -0.27667728072807
 1 -9.79401928682868 -4.49005402670267 -0.60963278587859
 1 -3.33819451535154 -3.41953520422042 -0.13072834433443
 1 -1.52503066956696 -4.51146758645865  3.44267718301830
 1 -3.00955056365637 -5.56357797539754  3.76246908580858
 1 -1.66963507500750 -6.18122739593959  2.56962091499150
 1  2.86333563766377 -1.91563339923992 -1.34298826382638
 1  2.75294277187719 -0.25918163856386 -1.96767992019202
 1  4.45757666326633 -1.06740895609561  0.52120533653365
 1  3.98210717421742  1.06813552395240 -2.55062343204320
 1  5.25376078777878  2.18739899879988 -1.83684015221522
 1  5.82083939153915  1.12118322582258 -3.08241697269727
 1  6.71594365726573  1.55826982698270 -0.00326768396840
 1  6.25200932033203 -0.12584062146215  0.77512722942294
 1  7.44568195289529 -1.18651788698870 -1.23485480908091
 1  7.75016745264526  0.39029223732373 -1.85292821642164
 1  8.99569162076208  0.77748563356336  0.17783541574157
 1  8.86327481618162 -0.81774728092809  0.73778164186419
 1  10.29271682308231 -0.12389985228523 -1.81276616611661
 1  9.17389237473747 -2.43599157565757 -1.92123804860486
 1  10.98521107680768 -2.28640542444244 -2.00276452035204
 1  9.88488137413741 -2.64677661966197 -0.34992443214321
 1  11.51845952685269  0.55499772997300  0.26256774427443
 1  11.40596364976498 -1.26384234553455  0.69620024162416
 1  12.78483180208021 -1.54628278947895 -1.27660532813281
 1  12.82982673517352  0.24797548854885 -1.55782914421442
 1  13.75499693639364  0.58553110911091  0.88454579757976
 1  14.04131688478848 -1.20299990469047  0.90023654015402
 1  15.23881717021702  0.39620910591059 -1.45543990199020
 1  15.85667311021102 -2.32446273837384  0.01274982108211
 1  15.09094214491449 -2.31870424602460 -1.59485690079008
 1  16.74349397879788 -1.81963748864886 -1.22789425892589
 1  16.01257645834583  1.32341017471747  0.78055459975998
 1  16.41081552875287 -0.19841901700170  1.25409817101710
 1  18.23081402010201 -0.30485703310331 -0.42980632103210
 1  17.53002006650665  1.04701202010201 -1.24724830063006
 1  18.32842363496350  2.27325148284828  0.98785679097910
 1  18.55036219651965  0.97558173917392  1.63195319561956
 1  20.38276318901890  0.19917606580658 -0.05294823082308
 1  20.04927903450345  3.24952851475147 -0.72447604100410
 1  21.26293054515451  2.17075372817282 -1.61297266056606
 1  19.58433233763376  1.79916172697270 -1.97139410841084
 1  21.10153612881288  1.42691080018002  2.08394801200120
 1  22.13584529082908  1.99266049574958  0.85449041534153
 1  20.66015574547455  2.99449953325333  1.21046148664867
>>>>>>> 8e03b5b5abfc0030b3aa597dc0de36371bfbd096

