%nproc=4
%Mem=2GB
# td=(NStates=1) CAM-B3LYP/6-31G(d,p) 

TD

0 1
<<<<<<< HEAD
12 -7.15748632163216  0.56117486558656  0.12572025942594
 6 -4.92300691869187 -1.92183336173617  0.68113464616462
 6 -4.82738266716672  2.82454090139014  1.14550091499150
 6 -9.31322605810581  3.06407190269027 -0.42609546924692
 6 -9.48448876257626 -1.63727923892389 -0.91514794389439
 7 -5.21926535113511  0.49686950505051  0.86527694599460
 6 -4.35668537463746 -0.66651647364736  1.00212823602360
 6 -2.89240824622462 -0.40100952665267  1.35978633283328
 6 -3.03125656405641  1.08246091439144  1.83614434513451
 6 -4.35492248714871  1.51934268306831  1.15111214111411
 6 -3.11313639573957  1.26245853395340  3.29855126402640
 6 -1.95904936593659 -0.57648290969097  0.17601155945595
 6 -0.44044146674667 -0.46317066426643  0.61592572187219
 6  0.49552068926893 -0.63893740664066 -0.59475485598560
 8  0.14475571567157 -1.02782819041904 -1.64799113081308
 8  1.73326513701370 -0.29637703410341 -0.22904969386939
 7 -7.10402084998500  2.62898848864887  0.35137383288329
 6 -6.09997927692769  3.37602857865787  0.75964949854985
 6 -6.44384163726373  4.72782707210721  0.82291297849785
 6 -7.68327103410341  4.87238787028703  0.25609400070007
 6 -8.12016628822882  3.42178137343734  0.01691423772377
 6 -5.59286724342434  5.87012947884789  1.16437119761976
 6 -8.64285208280828  5.89626065976598  0.06784376977698
 6 -8.59160305160516  7.17213333193319  0.64323057285729
 7 -9.03851612421242  0.71607446854685 -0.54898893259326
 6 -9.84395065476548  1.81223117621762 -0.70500682478248
 6 -11.20306940354035  1.45834417351735 -1.17133885338534
 6 -11.12902530643064  0.12627799189919 -1.37847656165617
 6 -9.90306598729873 -0.27468944324432 -0.87821283738374
 6 -12.36550537423742  2.49489006000600 -1.44280105490549
 6 -12.25263981028103 -0.80074748484848 -1.73036384488449
 6 -12.22957044544454 -1.11321373257326 -3.24765988458846
 7 -7.19703917221722 -1.39981959555956 -0.08177285428543
 6 -8.27808804860486 -2.26360153225323 -0.53597855305531
 6 -7.75088123372337 -3.64694296179618 -0.57529480678068
 6 -6.49670355445545 -3.54449878687869 -0.10040177207721
 6 -6.21524412081208 -2.18241652295230  0.13371617581758
 6 -8.53949141654165 -4.73879672207221 -0.97321579998000
 6 -5.20252472277228 -4.33625750925092  0.13392626522652
 8 -5.05597443534353 -5.58202268566857  0.15540257095710
 6 -4.14947852725273 -3.28105389518952  0.66388625392539
 6 -3.52575320622062 -3.65851107240724  1.94634500740074
 8 -3.72409401000100 -3.11082781898190  3.04156683778378
 8 -2.55985717941794 -4.62065678807881  1.71103968486849
 6 -2.14836542444244 -5.19876410551055  2.84402933843384
 6  2.72978549024902 -0.66703449804981 -1.14062526292629
 6  4.10082217121712 -0.41733991029103 -0.53772392139214
 6  5.14572805720572  0.31829809520952 -0.94490426312631
 6  5.06944536753675  1.13235588488849 -2.21373553885389
 6  6.42793712651265  0.35926777697770 -0.12751923712371
 6  7.60212775067507 -0.01368171507151 -1.04200115061506
 6  8.94465633823382 -0.04692982338234 -0.33169498229823
 6  10.16582720722072 -0.62360943264326 -1.04650562106211
 6  10.08816551675167 -2.09333026912691 -1.38092155715572
 6  11.40876375327533 -0.34529831063106 -0.07754688608861
 6  12.75311021872187 -0.55409946104610 -0.78937896079608
 6  13.98398786718672 -0.12350355315532  0.10317738523852
 6  15.34245036993699 -0.34536826592659 -0.54056229602960
 6  15.74505617451745 -1.80253788758876 -0.74874449214921
 6  16.45714982088209  0.34229858985899  0.40018452565257
 6  17.83837842724272  0.42570396879688 -0.04648046264626
 6  18.84250461996200  1.23953217021702  0.74422485548555
 6  20.24954362356236  1.42749308280828  0.22403716691669
 6  20.17563891769177  2.25672396959696 -1.03795478817882
 6  21.13708463926393  2.03654659095910  1.32360772417242
 1 -4.17169865436544  3.45552107350735  1.34535912281228
 1 -10.04784517721772  3.88118895389539 -0.58695408690869
 1 -10.32464575397540 -2.41319065986599 -1.31545819801980
 1 -2.70262671957196 -1.20328864276428  2.14289498069807
 1 -2.11981558675868  1.63378696129613  1.35148579897990
 1 -2.03060751825182  0.96409686258626  3.73705741924192
 1 -3.30619567956796  2.19018307580758  3.50326249164916
 1 -3.83199664236424  0.61365604960496  3.63501591439144
 1 -2.08653113801380 -1.58444840524052 -0.23834774397440
 1 -2.17321899439944  0.18966621702170 -0.51039107870787
 1 -0.31334485188519  0.56556117001700  1.05326572567257
 1 -0.28850665266527 -1.14828934413441  1.38718267346735
 1 -5.88896767216722  6.81799044314431  0.72414812401240
 1 -5.48141513091309  5.85013837693769  2.38416471357136
 1 -4.54652860886089  5.62580374677468  0.76882005760576
 1 -9.42093414591459  5.76685283338334 -0.79191942014201
 1 -9.03679489538954  7.91286202510251  0.47465708750875
 1 -7.99138860466047  7.00046644614461  1.48202658815882
 1 -12.21819592469247  3.09890021602160 -2.39061206590659
 1 -13.27277694689469  1.68051194239424 -1.55128632013201
 1 -12.86935866696670  3.15119377407741 -0.58094933893389
 1 -12.26694147254726 -1.59806925202520 -1.22739769466947
 1 -13.20942966186619 -0.31788852565257 -1.67281280878088
 1 -13.23230958355836 -1.57755244144414 -3.60108999349935
 1 -12.11501506570657 -0.14062860046005 -3.62827632333233
 1 -11.38018429772977 -2.01746661376138 -3.44054267426743
 1 -8.75456505950595 -4.81741248414841 -2.09915317941794
 1 -8.13889325412541 -5.80056006020602 -0.81217083008301
 1 -9.43053293819382 -4.82226724802480 -0.45783760636064
 1 -3.28187888378838 -3.27369061976198 -0.14175944744474
 1 -1.44864303080308 -4.53645008470847  3.59180209550955
 1 -2.94427403600360 -5.68603022062206  3.52843568246825
 1 -1.76067417891789 -6.26523579677968  2.68769272217222
 1  2.51214051815181 -1.66581841774177 -1.69337330233023
 1  2.60600807840784 -0.18312403280328 -2.21865501770177
 1  4.34513541914191 -1.02152436763676  0.53104632063206
 1  4.11792075557556  1.33871258165817 -2.76282465216522
 1  5.46054146584658  2.14882514141414 -2.07786425462546
 1  5.83116042364236  0.81360246774678 -3.03606233723372
 1  6.72599466236624  1.45635963596360 -0.01308866606661
 1  6.26104022342234 -0.16534457185719  0.82089180588059
 1  7.48357574227423 -1.04972420762076 -1.08586991059106
 1  7.79375181108111  0.64881808990899 -1.95725864946495
 1  9.04675672727273  0.93643152815282 -0.07225959375938
 1  8.89901839053905 -0.71530703690369  0.56528439213921
 1  10.37777532893289 -0.08002546484648 -1.93412830233023
 1  9.16142112761276 -2.34012198869887 -2.08384430923092
 1  10.96176873257326 -2.61792857675768 -1.82810705460546
 1  9.96477936393639 -2.60236217821782 -0.29959939963996
 1  11.40384806570657  0.68942117231723  0.32896438393839
 1  11.61274432783278 -0.80641660296030  0.90974159575958
 1  12.96244956385639 -1.66546470767077 -1.14995266286629
 1  12.73923767626763  0.02771346234623 -1.73108646994699
 1  13.90955239193919  0.96844940094009  0.21318866186619
 1  13.91523427652765 -0.74014361906191  0.98610512701270
 1  15.33789707820782  0.17339682468247 -1.67691204920492
 1  15.62883032593259 -2.56705699779978  0.11412995909591
 1  14.97081013171317 -2.08513088868887 -1.54092150725072
 1  16.82228185758576 -2.05227075197520 -1.26791826132613
 1  16.26142134283428  1.43680151385139  0.46981352565257
 1  16.59365381258126 -0.16812598769877  1.32935569676968
 1  18.16737767646765 -0.47055360276028 -0.39236257665767
 1  17.62111917641764  0.84714203310331 -1.04733830963096
 1  18.34566535913591  2.24038819651965  0.99837784308431
 1  18.79598675897590  0.62485666666667  1.75481548184819
 1  20.65423033573357  0.32202835103510  0.08156522052205
 1  19.46776088268827  3.22105566746675 -0.99306289968997
 1  21.16315056715672  2.73984063686369 -1.44632599589959
 1  19.74087799219922  1.70919273007301 -1.74729169816982
 1  21.06691266646665  1.48029613871387  2.23749336653665
 1  22.23197490379038  2.11510273997400  0.97047201350135
 1  20.70579030893089  2.89138922222222  1.41020146064606
=======
12 -7.12279285228523  0.59650839893989 -0.02198451105111
 6 -4.89078369636964 -1.90555173357336  0.45255178787879
 6 -4.72127205610561  2.87060550785078  1.11364772967297
 6 -9.35105984148415  3.08137363286329 -0.40822368206821
 6 -9.56462677637764 -1.79642515351535 -0.89441587068707
 7 -5.11630505510551  0.47524734283428  0.67676809510951
 6 -4.39343905000500 -0.73215303730373  0.76380440364036
 6 -2.91808081348135 -0.37106653235324  1.20940129432943
 6 -3.01566500490049  1.11520418871887  1.71101183188319
 6 -4.41996899179918  1.52007275607561  1.13954098399840
 6 -2.92064714681468  1.20157244534453  3.15462687158716
 6 -1.88020148114811 -0.56503176457646  0.14578853715372
 6 -0.43019044164416 -0.42952729992999  0.62775690499050
 6  0.49664080128013 -0.74794830773077 -0.52038741924192
 8  0.16907814791479 -1.08429383698370 -1.58343467516752
 8  1.72587439793979 -0.54611200760076 -0.23279006790679
 7 -7.05960640854085  2.67739332913291  0.36216491199120
 6 -5.99607888688869  3.39988096389639  0.61183471707171
 6 -6.35027228032803  4.76531082048205  0.76102678987899
 6 -7.68919162616262  4.86246687818782  0.41098949024902
 6 -8.14618889048905  3.48456765206521  0.07431997829783
 6 -5.48072602930293  5.86448891479148  1.10650541104110
 6 -8.62094989258926  6.09938097179718  0.35744272967297
 6 -8.44079797109711  7.25871198979898  0.87162341214121
 7 -9.08005027762776  0.68679154025403 -0.58714274797480
 6 -9.82439869956996  1.80889084218422 -0.71842816691669
 6 -11.20432952955295  1.45385372447245 -1.11296301580158
 6 -11.26400880478048  0.03912927702770 -1.23878259225923
 6 -9.94512019271927 -0.40569254355436 -0.88334335043504
 6 -12.29079790349035  2.38126869786979 -1.35861263606361
 6 -12.47715226152615 -0.71731914201420 -1.77442825132513
 6 -12.17302479087909 -1.10955336653665 -3.14299941854185
 7 -7.19548901720172 -1.36447606120612 -0.22222689968997
 6 -8.28010825062506 -2.22331750385039 -0.63757871307131
 6 -7.84745089068907 -3.66415468296830 -0.48866614391439
 6 -6.47720160426043 -3.51123546054605 -0.13627535943594
 6 -6.18820141654165 -2.17077535883588 -0.00152734853485
 6 -8.62818028542854 -4.82054489688969 -0.81082956135614
 6 -5.20521499179918 -4.36255013851385  0.21710458305831
 8 -5.22000083798380 -5.57114159755976  0.27700473117312
 6 -4.08307188658866 -3.21488727852785  0.58671853715372
 6 -3.55732636353635 -3.64349957125713  1.84113448634863
 8 -3.81088268886889 -3.05956269246925  2.93796647774777
 8 -2.73384457815782 -4.74047877027703  1.81666024692469
 6 -2.21776236413641 -5.19581381048105  3.10122505800580
 6  2.77402991469147 -0.96120391499150 -1.09737093749375
 6  4.20522261126113 -0.68386656295630 -0.57729787878788
 6  5.09492297669767  0.25848211361136 -1.04471424412441
 6  4.93661208420842  1.09955260456046 -2.18326249154915
 6  6.42100643344334  0.33910576077608 -0.26976346154615
 6  7.62599013691369 -0.20781112801280 -1.04572152265227
 6  8.96011788438844 -0.05630076047605 -0.27622943574357
 6  10.21287191169117 -0.59537660936094 -0.93800477097710
 6  10.11243794399440 -2.04208514461446 -1.30030349534954
 6  11.40271314821482 -0.34899868066807 -0.03598272967297
 6  12.67693260096010 -0.46357040814081 -0.79139916281628
 6  13.98346781518152  0.12031082828283 -0.04329726222622
 6  15.37754387928793 -0.08148187728773 -0.54730297009701
 6  15.72258392729273 -1.47620525432543 -0.77961757945795
 6  16.38405251115111  0.55907026702670  0.37093160036004
 6  17.78406299569957  0.64919631803180 -0.19814562916292
 6  18.75097546704670  1.27827604460446  0.78934936793679
 6  20.20917958715872  1.32708304180418  0.33301806500650
 6  20.47893924772477  2.10563886108611 -1.00512150485048
 6  21.13070400120012  1.78277121342134  1.42420778417842
 1 -4.13124460896090  3.71368689008901  1.45745033193319
 1 -9.96161655435544  3.96485732073207 -0.57949334083408
 1 -10.31004429382938 -2.54566390719072 -1.14385103730373
 1 -2.59763622052205 -1.03416173007301  2.07790848204821
 1 -2.11138474367437  1.57913149574958  1.14855550595059
 1 -1.86027048454845  0.89553000590059  3.66740045354535
 1 -3.34379943994400  2.05675973347335  3.63283544894489
 1 -3.63963740644064  0.22395707970797  3.45156756955696
 1 -2.05990847574757 -1.36964692509251 -0.47644155335534
 1 -2.02727439993999  0.22840009040904 -0.66325636523652
 1 -0.31370488788879  0.43384799869987  1.04891529062906
 1 -0.34974277627763 -0.96803131833183  1.54983893909391
 1 -5.78171694709471  6.84264290839084  0.76149185838584
 1 -5.47609459885989  5.91061442454246  2.18752504960496
 1 -4.44731868786879  5.74836600300030  0.68561173677368
 1 -9.57958001050105  5.95352150025002 -0.34992522072207
 1 -9.36589780568057  8.07654839373937  0.95296491829183
 1 -7.53407287308731  7.67683408290829  1.61070945644564
 1 -12.05613971907191  3.11669199519952 -2.14188719341934
 1 -13.22279194839484  1.94966885808581 -1.36513770527053
 1 -12.35806753785379  3.40794944964496 -0.54802604660466
 1 -12.55679045744575 -1.59659910501050 -1.09952490739074
 1 -13.40278899779978 -0.16226296309631 -1.68058358585859
 1 -12.94470082268227 -1.75908059425943 -3.59221910641064
 1 -12.16582014621462 -0.34914945254525 -3.95257875357536
 1 -11.31453773307331 -1.87792265936594 -3.29743836383638
 1 -8.88827843084309 -4.84379512241224 -1.77225048914891
 1 -8.03216258105810 -5.70655065926593 -0.65397501050105
 1 -9.52150203510351 -5.08193321462146 -0.16561838443844
 1 -3.44280497639764 -3.51918516921692 -0.22441771327133
 1 -1.44372253875388 -4.50030647034704  3.40387330263026
 1 -3.05842545114511 -5.19687130473047  3.72783562246225
 1 -1.75007311881188 -6.27389666286629  3.06586053895390
 1  2.69726903100310 -2.12766460236024 -1.21098506350635
 1  2.62508998659866 -0.48184390479048 -2.24469762196220
 1  4.40030093569357 -1.22077429262926  0.27099031503150
 1  4.02775173867387  1.34863357375738 -2.47248561826183
 1  5.50539595129513  1.99832009090909 -2.13480994919492
 1  5.47954526212621  0.75757686518652 -3.08677740874087
 1  6.64975703860386  1.52462646264627 -0.04253161036104
 1  6.26498061746175  0.08241020362036  0.87686740344034
 1  7.45499288398840 -1.23256249144915 -1.15024634823482
 1  7.77627006290629  0.53066627472747 -1.94154707830783
 1  9.10596264786479  1.17240512551255 -0.35020738853885
 1  9.11312980168017 -0.68084359055906  0.79710757445745
 1  10.20665821722172  0.09884242194219 -1.93850874037404
 1  9.19903488898890 -2.21184916141614 -1.83383930873087
 1  10.97717027272727 -2.29241602550255 -1.93960820472047
 1  9.92675556155616 -2.63237517951795 -0.25955539523952
 1  11.15184286518652  0.56738896909691  0.38935042254225
 1  11.42377543094310 -0.95846180748075  0.98254887648765
 1  12.82788610751075 -1.52563072427243 -1.16255392299230
 1  12.42503625612561  0.15763645464546 -1.79073243454345
 1  13.75256669336934  1.15995855185519  0.26452379537954
 1  13.91881463456346 -0.39887949264927  0.98984550105010
 1  15.39980326882688  0.33042252725273 -1.63685804380438
 1  15.58196563946395 -2.07557784988499  0.07191573767377
 1  14.85026807750775 -1.79295167076708 -1.22283969906991
 1  16.68062769216922 -1.86065159005901 -1.54789625912591
 1  16.21914711541154  1.72794062776278  0.43545008930893
 1  16.49816426362636  0.00001082598260  1.22123488468847
 1  18.08213915261526 -0.29817636503650 -0.21264460486049
 1  17.88901596609661  1.18973629252925 -1.20644422022202
 1  18.31553234583458  2.43384754245425  1.02674067936794
 1  18.83096025632564  0.73478765976598  1.70218021832183
 1  20.43614852755276  0.35315146334633  0.27143420742074
 1  20.16774088068807  3.12774633653365 -0.60802439583958
 1  21.39835408750875  2.33998065086509 -1.23333469676968
 1  19.92705661006101  1.84563637443744 -1.71753872287229
 1  21.13555953115312  1.05562367146715  2.25553517071707
 1  22.21497320362036  1.94173540324032  0.98623358965897
 1  20.78648837873788  2.71723180648065  1.52701314181418
>>>>>>> 8e03b5b5abfc0030b3aa597dc0de36371bfbd096

