%nproc=4
%Mem=2GB
# td=(NStates=1) CAM-B3LYP/6-31G(d,p) 

TD

0 1
12 -7.14016458945895  0.61674042214221  0.05122280968097
 6 -4.81329594759476 -1.98274945334533  0.54936146884688
 6 -4.78210813971397  2.83916236353635  1.12970933583358
 6 -9.33976871237124  3.10877637313731 -0.39900275997600
 6 -9.51451176487649 -1.64405991699170 -0.89533596269627
 7 -5.06465989058906  0.37103692179218  0.76351676997700
 6 -4.32406211231123 -0.76509633163316  0.87598562176218
 6 -2.91080008540854 -0.40186961266127  1.20680103430343
 6 -2.87693113151315  1.04810747904790  1.69749047974797
 6 -4.33964095899590  1.45349609840984  1.18921595149515
 6 -2.63872895499550  1.27814010211021  3.19391079998000
 6 -1.89514297529753 -0.51087634903490  0.10265422372237
 6 -0.43868129072907 -0.44006835403540  0.53660779007901
 6  0.48882001920192 -0.71181469436944 -0.66547192769277
 8  0.29766100620062 -1.00710611821182 -1.80868720042004
 8  1.72932474297430 -0.45198259465947 -0.27546433533353
 7 -7.08004845274527  2.58777436723672  0.25630432593259
 6 -5.96611589058906  3.28885986178618  0.74759829342934
 6 -6.35299255235523  4.74069835923592  0.69189987718772
 6 -7.65440814781478  4.82035266676668  0.30389878117812
 6 -8.10138441004101  3.44061325662566 -0.02104955865587
 6 -5.44278223492349  5.79561202710271  0.99067382788279
 6 -8.53661145874587  5.99679071277128  0.22749973537354
 6 -8.30019391069107  7.22070818941894  0.71944819461946
 7 -9.08155042764276  0.72846570767077 -0.53561759545955
 6 -9.87164342404240  1.81683163626363 -0.63958028212821
 6 -11.22052114871487  1.40639897899790 -1.08504022352235
 6 -11.22764516841684  0.01983734783478 -1.22910162416242
 6 -9.86860254095409 -0.33565553985399 -0.83251826792679
 6 -12.17826665036504  2.33366393739374 -1.45449222402240
 6 -12.33406795309531 -0.80237764786479 -1.71819262776278
 6 -12.29693718211821 -1.10435284648465 -3.27978309690969
 7 -7.19087855615562 -1.39736935053505 -0.05847052405241
 6 -8.28425866566657 -2.23922909500950 -0.46803175837584
 6 -7.84763090869087 -3.61701996949695 -0.49637691499150
 6 -6.52972685678568 -3.55694003100310 -0.17468920082008
 6 -6.19099169556956 -2.27124540584058  0.17433023722372
 6 -8.71216868426843 -4.76852969536954 -1.02967144554455
 6 -5.30687515781578 -4.36086997049705  0.14969784238424
 8 -5.24793363126313 -5.59339382278228  0.08806583728373
 6 -4.13064664406441 -3.31939772957296  0.58166803210321
 6 -3.67411804270427 -3.70670589188919  1.95265563846385
 8 -3.89094069466947 -3.25630236643664  3.07834051515152
 8 -2.77551874557456 -4.76211093349335  1.84822340324032
 6 -2.05277586548655 -5.17590181928193  3.01574651015102
 6  2.76880939263926 -0.66261405600560 -1.25750695109511
 6  4.15978806780678 -0.49884806110611 -0.53946409540954
 6  5.01202468686869  0.46093235863586 -0.84565433813381
 6  4.87264568756876  1.48844149344934 -1.96928109340934
 6  6.43401773457346  0.49493134333433 -0.21182766796680
 6  7.63914145204520  0.10910056315632 -1.05615256575658
 6  9.06019789238924  0.15529039863986 -0.24481629442944
 6  10.17094771927193 -0.57870494219422 -0.94337530803080
 6  10.04146084628463 -2.06386732283228 -1.17422088708871
 6  11.41777465436544 -0.31368514931493 -0.05905503690369
 6  12.85210011771177 -0.54142819391939 -0.59456947984798
 6  13.85050451885188 -0.05207641044104  0.39898696619662
 6  15.23939006390639 -0.25625935503550 -0.31237947774777
 6  15.51439310821082 -1.67814544834483 -0.71508112581258
 6  16.33242734863486  0.37683204320432  0.53950845804580
 6  17.69925451485149  0.52784418281828 -0.21546736133613
 6  18.73907427692769  1.19633785078508  0.67540797379738
 6  20.14671334053405  1.30364069756976  0.04142890609061
 6  20.15165651945195  2.26820511771177 -1.12615360806081
 6  21.03154408520852  1.79234217051705  1.07419278267827
 1 -4.19522100660066  3.57793331473147  1.61954654155416
 1 -10.02232262496250  3.85530636563656 -0.49571496299630
 1 -10.27181047044705 -2.45077441824182 -1.09462611481148
 1 -2.78540499739974 -1.04289260316032  2.15071576277628
 1 -2.12980658585859  1.76581016361636  0.97697834823482
 1 -1.55312977047705  1.13390384328433  3.39745345884588
 1 -2.90580564056406  2.35493955145515  3.50887305270527
 1 -3.49181262396240  0.59998468246825  3.75141755455546
 1 -1.86532901780178 -1.36565652605261 -0.35028893809381
 1 -1.95737741024102  0.09279653005301 -0.69437947754776
 1 -0.13523704110411  0.36814142804280  1.14776517561756
 1 -0.04298210021002 -1.24233874907491  1.28738269346935
 1 -5.66022479787979  6.81224986908691  0.59500520972097
 1 -5.26671366076608  6.01714507760776  2.05071136823682
 1 -4.34545850185019  5.54623578997900  0.62763593919392
 1 -9.33229528202820  5.65305145324532 -0.50958118631863
 1 -9.04607582348235  8.18259899879988  0.41877149894990
 1 -7.49925939173917  7.23842024152415  1.60506889238924
 1 -11.84980908600860  2.99681000700070 -2.12014501920192
 1 -13.21146081528153  1.92054594579458 -1.74524571607161
 1 -12.40044177527753  3.03172182688269 -0.66836808080808
 1 -12.37500227862786 -1.66988643374337 -1.12203715861586
 1 -13.22079079797980 -0.17550428722872 -1.52762829032903
 1 -13.35451180378038 -1.78669335553555 -3.37280716521652
 1 -12.24606817101710 -0.13011754935494 -3.68290178587859
 1 -11.18116439573958 -1.66950181728173 -3.72935155515552
 1 -8.88656825982598 -4.60158090099010 -2.04526779087909
 1 -8.03725309010901 -5.59462946714671 -0.75247486048605
 1 -9.67754763966397 -4.80326534783478 -0.25367719031903
 1 -3.17762845874587 -3.54331758245825 -0.03728900040004
 1 -1.65104327082708 -4.22223866356636  3.46921983728373
 1 -2.91527113571357 -5.61552316991699  3.74135697459746
 1 -1.59140725222522 -6.02210148334833  2.71780573347335
 1  2.44716402050205 -1.64683651955196 -1.59696366136614
 1  2.55644312191219  0.16363064266427 -2.09932308450845
 1  4.41641254685469 -1.21308352355235  0.31126434243424
 1  3.89448841234123  1.62033074347435 -2.39551792149215
 1  5.49318473017302  2.31916217511751 -1.57767423562356
 1  5.35508281588159  1.35895700320032 -3.05528425942594
 1  6.43491555445545  1.48702270227023  0.17856049884988
 1  6.17316143554355 -0.05835387278728  0.65261497819782
 1  7.52791017571757 -1.00733996919692 -1.34017534113411
 1  7.80587302320232  0.76324953305331 -1.87746066966697
 1  9.30848289988999  1.14298218321832  0.08504613681368
 1  8.75905439413941 -0.46664217041704  0.64884274797480
 1  10.55064261566157 -0.04269173147315 -1.85544043354335
 1  9.43622860836084 -2.25505348184819 -2.02083800860086
 1  10.89585214091409 -2.57536432033203 -1.65960020392039
 1  9.93334622062206 -2.69977191919192 -0.25977541724172
 1  11.54489217011701  0.60487271747175  0.22255374287429
 1  11.34143719711971 -0.97493345464547  0.88325894749475
 1  12.92804612351235 -1.43437159835984 -1.05502316991699
 1  13.15626937943794  0.19724041504150 -1.35609897119712
 1  13.75860729742974  0.99025158115812  0.58289563256326
 1  13.86750950405041 -0.58627823252325  1.31283780028003
 1  15.33993728222822  0.29556904190419 -1.46092045004500
 1  15.72611005390539 -2.47748804090409  0.10888943504350
 1  14.68272132283228 -2.31862423802380 -1.33623103820382
 1  16.60399002840284 -1.82196772167217 -1.27491896139614
 1  15.89606480718072  1.40092792649265  0.69703624792479
 1  16.65494994219422 -0.11617079217922  1.71894465566557
 1  18.12791373007301 -0.44175072247225 -0.48022136253625
 1  17.49913697819782  0.97110442934293 -1.26482005780578
 1  18.38034882748275  2.13821797949795  0.85047305260526
 1  18.81693885418542  0.87958213921392  1.60782078237824
 1  20.54345925862586  0.24807095529553 -0.29390232623262
 1  19.60031413801380  3.10207376927693 -0.90766435983598
 1  21.14864911701170  2.54587123992399 -1.57932929622962
 1  19.61302520692069  1.84098590939094 -1.94568153715372
 1  21.26526250145015  1.21311942104210  2.02325194239424
 1  22.06284799109911  1.84809603930393  0.86961192749275
 1  20.87218694859486  2.89253933723372  1.16416685718572

