%nproc=4
%Mem=3GB
# td=(NStates=1) iop(3/107=0140000000,3/108=0140000000) CAM-B3LYP/6-31G(d,p) 

TD

0 1
12 -7.11810650235024  0.58114649814982  0.18540491049105
 6 -4.82353116961696 -1.97416464706471  0.49114451685169
 6 -4.80307633823382  2.82546126402640  1.18061816701670
 6 -9.44646141064106  3.06708426142614 -0.39454192949295
 6 -9.44164026202620 -1.75265703140314 -0.96224302920292
 7 -5.09523655485549  0.35499158975898  0.71774959895990
 6 -4.33089533683368 -0.73018416161616  0.79638753345335
 6 -2.92508872947295 -0.40511890989099  1.24773044214421
 6 -3.13841706860686  1.10704940654065  1.71277755705571
 6 -4.43300353505350  1.43520817191719  1.12420681458146
 6 -3.03724990579058  1.20094291359136  3.31556687128713
 6 -2.00080581028103 -0.58942493169317  0.09522333263326
 6 -0.52958866806681 -0.41875512351235  0.53877726002600
 6  0.52674459765977 -0.50911753365337 -0.52750254035404
 8  0.33912412921292 -0.79220299799980 -1.75604299739974
 8  1.71048964736474 -0.22006194459446 -0.08647403500350
 7 -7.04139178257826  2.52763597349735  0.35362628672867
 6 -6.00987113091309  3.34743851125113  0.80939681578158
 6 -6.37823273167317  4.74123098669867  0.85021328002800
 6 -7.78845363066307  4.83565537073707  0.42013814021402
 6 -8.13767329482948  3.44179111791179  0.15905390399040
 6 -5.52263429732973  5.85835530923092  1.15089524472447
 6 -8.50488049604960  6.02735300490049  0.17897851035104
 6 -8.46281469146915  7.22941209090909  0.89408346764676
 7 -9.08310735183518  0.63289028342834 -0.47247382128213
 6 -9.86226371267127  1.79373269756976 -0.67651046454645
 6 -11.16800075277528  1.39998944344434 -1.23129798949895
 6 -11.15017450465047  0.00291783758376 -1.40540056835684
 6 -9.77250485408541 -0.40951114451445 -0.90411261256126
 6 -12.17644858255826  2.42757799919992 -1.55845529822982
 6 -12.23127692059206 -0.81317744154415 -1.95445477607761
 6 -12.07525943484348 -1.17732792509251 -3.48428908010801
 7 -7.27292025442544 -1.40364520022002 -0.17698037313731
 6 -8.26600092639264 -2.24183272877288 -0.56592817271727
 6 -7.84251629142914 -3.63926447784778 -0.48154845464546
 6 -6.49376716721672 -3.54805778787879 -0.03988607030703
 6 -6.17738146984698 -2.18719667546755  0.06136797219722
 6 -8.56613895339534 -4.98890498889889 -0.92581596469647
 6 -5.31198666156616 -4.35898946234623  0.25937091119112
 8 -5.08491948424842 -5.56190304730473  0.18983493209321
 6 -4.14037854045405 -3.37035448284828  0.63188150975098
 6 -3.52147632443244 -3.67451539423942  1.93636960546055
 8 -3.68941172457246 -3.06940429832983  3.02358571677168
 8 -2.78536388918892 -4.77926654515452  1.83163220072007
 6 -2.22223118011801 -5.13306851275127  3.00024742514251
 6  2.83375969636964 -0.22209049794980 -1.07837135433543
 6  4.11355224042404 -0.06038130603060 -0.46023858665867
 6  5.12440793209321  0.67331385938594 -1.04840771777178
 6  5.13623734933493  1.19932760806081 -2.33073720872087
 6  6.50325660436044  0.63655427142714 -0.26591711611161
 6  7.54330578317832  0.05511696369637 -1.04230455915592
 6  8.82471018261826  0.03023120702070 -0.24861096349635
 6  10.15474093469347 -0.51757342054205 -0.85410113011301
 6  10.03431670827083 -1.99925780568057 -1.19735670167017
 6  11.32577724152415 -0.25320021112111  0.07051908940894
 6  12.70438817431743 -0.51449148264826 -0.69924742984298
 6  13.90468173997400 -0.19553526782678  0.23499991159116
 6  15.25176116711671 -0.30425950955096 -0.48587423992399
 6  15.58527479847985 -1.64945333363336 -0.92601442774277
 6  16.27936492919292  0.34250076737674  0.46487122182218
 6  17.74998258595860  0.44327805740574 -0.18095462246225
 6  18.75686610521052  1.08004608310831  0.64215747244724
 6  20.25073787818782  1.15364479697970  0.15198190419042
 6  20.32324517031703  1.88818612371237 -1.24952964886489
 6  21.15533060006000  1.64777647754775  1.26242018201820
 1 -4.06271663516352  3.40079333073307  1.59939603540354
 1 -10.14771689498950  3.72648492299230 -0.37373189938994
 1 -10.27847227132713 -2.41967750285028 -1.24454227362736
 1 -2.43921120832083 -1.12347254995500  2.06249273997400
 1 -2.33058652495250  1.69968202930293  1.13671732073207
 1 -1.95345843224322  1.00279938633863  3.45867620502050
 1 -3.21311842094209  2.26668589138914  3.43245126732673
 1 -3.82477527802780  0.39250440474047  3.78261994719472
 1 -2.04358947794779 -1.64584525532553 -0.33464147124712
 1 -2.23227959695970  0.15937355715572 -0.61259799439944
 1 -0.36269169786979  0.59192878017802  1.08658252125213
 1 -0.24730315061506 -1.10815158175818  1.37981143944394
 1 -5.89400357805781  6.77751526352635  0.52379221052105
 1 -5.50142161346135  6.28967184858486  2.18925093759376
 1 -4.51658650325033  5.78173244124412  0.90721145374538
 1 -9.53467372717272  5.83106648864887 -0.45191654435444
 1 -9.06791585528553  8.00595031603160  0.41554132983298
 1 -7.89086701880188  7.37966480288029  1.60939990029003
 1 -11.77744821782178  3.09973912101210 -2.19999583108311
 1 -13.28896619431943  1.92083082548255 -1.95539126732673
 1 -12.47003803650365  2.84765209930993 -0.70585102460246
 1 -12.34682664756476 -1.63502442524252 -1.24526802770277
 1 -13.03765606470647 -0.05362807330733 -1.87355310971097
 1 -12.97790298949895 -1.52783644574457 -3.74892585068507
 1 -11.94140454615462 -0.27188565986599 -4.06729570797080
 1 -11.21629646904690 -2.00371139833983 -3.76837511571157
 1 -8.39131374997500 -4.97829433023302 -2.02908897189719
 1 -7.85204959015902 -5.82258821212121 -0.48455841094109
 1 -9.48591277027703 -5.09162761116112 -0.47188945764576
 1 -3.39038655715572 -3.51829843544354 -0.26339407750775
 1 -1.63947733533353 -4.23883609700970  3.55925764336434
 1 -2.96504294159416 -5.46021554645464  3.62198323602360
 1 -1.55733625412541 -5.93999478427843  2.79594295539554
 1  2.64474252905291 -1.26840346314631 -1.44705615431543
 1  2.54063050435044  0.33402148694869 -2.07418847634764
 1  4.25976646334633 -0.24280269406941  0.66018741894189
 1  4.16982229372937  1.13556909960996 -2.74539502520252
 1  5.61632856505651  2.24036446034603 -2.38578601700170
 1  5.71049061756176  0.62017320822082 -3.16970322722272
 1  6.71426961086109  1.60573055365537  0.31654126802680
 1  6.20283815591559  0.03904656795680  0.58799499499950
 1  6.99216133893389 -0.95065573857386 -1.30643540074007
 1  7.98974153265327  0.38274737773777 -2.01763258615862
 1  9.14535057935794  1.02054155165516  0.08822125022502
 1  8.86286940774077 -0.62619097179718  0.71478760216022
 1  10.29852448424842 -0.12614646684668 -1.83530868886889
 1  9.23367297639764 -2.04091237473747 -1.84455283718372
 1  10.88541768236824 -2.62542594189419 -1.70661601970197
 1  9.82815501260126 -2.61578569326933 -0.34986237993799
 1  11.38329997159716  0.65798223162316  0.47179495029503
 1  11.29104670017002 -0.85688698629863  0.99691601170117
 1  12.70835878837884 -1.65099251855186 -1.15362763426343
 1  12.67124295419542  0.21514645064506 -1.35977031073107
 1  13.67344876517652  0.93279864316432  0.66691151985199
 1  13.83152146274627 -0.96404278317832  1.05830820482048
 1  15.13733413481348  0.29499289628963 -1.45570683948395
 1  15.85101889868987 -2.37471681288129 -0.06660479597960
 1  14.84189583398340 -2.18247276727673 -1.35124649814982
 1  16.38463674327433 -1.70471136813681 -1.75245175847585
 1  15.79560283378338  1.22524085778578  1.15083099939994
 1  16.36961103890389 -0.27856414121412  1.32107060176018
 1  18.11765850355036 -0.49855636963696 -0.37848804440444
 1  17.79723703330333  1.01683057715772 -1.24607035063506
 1  18.56263532043204  2.09473074107411  0.89728167496750
 1  18.80493645614562  0.45624046354635  1.64413765926593
 1  20.47489732203221  0.02761375897590 -0.14998910671067
 1  20.01792861136114  3.05803658015802 -1.18825100980098
 1  21.33881768256826  1.80205134723472 -1.66372435363536
 1  19.67698609620962  1.57233752395240 -2.18232661706171
 1  21.21885573907391  0.90995663656366  2.09070273907391
 1  22.24520241304130  1.66085655635564  0.90312696629663
 1  20.89450952945295  2.60290640784078  1.64695183188319

