%nproc=4
%Mem=2GB
# td=(NStates=1) CAM-B3LYP/6-31G(d,p) 

TD

0 1
12 -7.13650422342234  0.61559030713071  0.14125181258126
 6 -4.94044866286629 -1.87505868426843  0.37831436413641
 6 -4.82193212211221  2.86520496779678  1.16379274417442
 6 -9.40884562006201  3.07749324482448 -0.45308816851685
 6 -9.59751006470647 -1.76305181618162 -0.80804723382338
 7 -5.11015444004400  0.44452427052705  0.67302772107211
 6 -4.33982368846885 -0.68580840284028  0.72567059025903
 6 -2.97103610901090 -0.44589401510151  1.15202555675568
 6 -3.00347378577858  1.10161282958296  1.59243997469747
 6 -4.37117411231123  1.50734148294829  1.02860989088909
 6 -3.08119320142014  1.33565585368537  3.10211162006201
 6 -1.96735019601960 -0.64947020842084 -0.01544758645865
 6 -0.44882230483048 -0.42126647384739  0.52222635193519
 6  0.51129226642664 -0.68426193909391 -0.64644002450245
 8  0.34061530163016 -0.86806221382138 -1.82882921462146
 8  1.76752856335634 -0.46887428382838 -0.26033282218222
 7 -7.13605405330533  2.52152774257426  0.35974466996700
 6 -6.04928420742074  3.33462443824382  0.72498603220322
 6 -6.38417567066707  4.80329461886189  0.66011669886989
 6 -7.70440314731473  4.80811144264426  0.36763515481548
 6 -8.14120839243924  3.44157335263526  0.07616016231623
 6 -5.40525848254826  5.91138360426043  1.11334609510951
 6 -8.60945874347435  5.97101813551355  0.28404538993899
 6 -8.44234812611261  7.14374049264926  0.89174542434243
 7 -9.05663793639364  0.66452931403140 -0.51619565326533
 6 -9.81383764346435  1.77270722382238 -0.69686601070107
 6 -11.23405250185018  1.42988132723272 -1.21372309180918
 6 -11.24301670557056  0.09148451255126 -1.29427814181418
 6 -9.87706338703870 -0.42078405270527 -0.87281229732973
 6 -12.26560538423842  2.43156372737274 -1.34203097789779
 6 -12.35213976027603 -0.86891430153015 -1.69874068256826
 6 -12.42452994139414 -1.06780919211921 -3.17868298689869
 7 -7.24976444474447 -1.34793440704070 -0.12892756975698
 6 -8.32956319611961 -2.17648282038204 -0.46382133733373
 6 -7.90645679127913 -3.64776304380438 -0.44457173447345
 6 -6.58133201730173 -3.56938127512751 -0.08976070797080
 6 -6.20387298369837 -2.18418669997000  0.10210301450145
 6 -8.77599506690669 -4.88179102150215 -0.65641411981198
 6 -5.42101657195720 -4.40927481098110  0.16119899249925
 8 -5.30739957785779 -5.55369985338534  0.22538956965697
 6 -4.20147372677268 -3.34140993079308  0.58636850215022
 6 -3.55363599449945 -3.65301052235224  1.87800817371737
 8 -3.89401100170017 -3.13407014321432  2.98021070217022
 8 -2.66669786348635 -4.61531625402540  1.75391397229723
 6 -2.05441602950295 -5.11563579267927  3.00649558505851
 6  2.74109662136214 -0.72930072467247 -1.17508870927093
 6  4.12717480648065 -0.54476265256526 -0.61134128312831
 6  5.07032051645164  0.35887215261526 -0.95129490219022
 6  5.12825124812481  1.17095974527453 -2.14183834913491
 6  6.39799413221322  0.38980083028303 -0.23076956215622
 6  7.68645618351835 -0.07104745164516 -0.99467641814181
 6  8.90778265086509 -0.07516264666467 -0.09184099689969
 6  10.23496412091209 -0.57115418711871 -0.86456742724272
 6  10.26236293649365 -2.05729666576658 -1.51092455745575
 6  11.48800167706771 -0.30439422022202  0.04510537913791
 6  12.81009591729173 -0.48954300540054 -0.71470149304931
 6  13.97218668706871 -0.09838104090409  0.17674474197420
 6  15.30593671857186 -0.20000372947295 -0.51567980778078
 6  15.78103977287729 -1.65162279607961 -0.83871348904890
 6  16.49611371727173  0.39831419141914  0.39735424262426
 6  17.84152874227422  0.42888428682868 -0.22212802740274
 6  18.83369373887389  1.28452666966697  0.70776120912091
 6  20.30399906910691  1.35319565306531  0.29988475167517
 6  20.57521887568757  2.22951124832483 -1.00065105780578
 6  21.06288721952195  1.97338027432743  1.39932529592959
 1 -3.97973945844585  3.62418794019402  1.33919850675067
 1 -10.23468386108611  3.85612644764476 -0.41259665116512
 1 -10.47039032843284 -2.37736707750775 -0.76222287448745
 1 -2.75312176907691 -0.94895320922092  1.94084477567757
 1 -2.44459806500650  1.80669425202520  1.21332198259826
 1 -2.44832929042904  0.79188964186419  3.58466217971797
 1 -3.13104816481648  2.25098915641564  3.19982214761476
 1 -4.00711415411541  0.93452813681368  3.54137655045505
 1 -2.05118760366037 -1.75496545694569 -0.29852376157616
 1 -2.00447211971197  0.14392164256426 -0.79837987758776
 1 -0.27066058345835  0.51530614451445  0.94557495659566
 1 -0.16457425942594 -0.93375789098910  1.48729268446845
 1 -5.72676145154515  6.88507715181518  0.42355806500650
 1 -5.51042803220322  6.17212057515751  2.10845714281428
 1 -4.31750570657066  5.80569173557356  0.92701587718772
 1 -9.46069812231223  5.76561270937094 -0.40131035923592
 1 -9.01781299719972  8.01332207110711  0.87447706950695
 1 -7.36843630943094  7.17731413091309  1.49704809030903
 1 -12.32658676377638  2.89041936793679 -2.55913891859186
 1 -13.33564323352335  1.72013590479048 -1.41786297779778
 1 -12.18581031213121  3.42540119481948 -0.59883112711271
 1 -12.24655943434344 -1.79488893399340 -1.06374132903290
 1 -13.24058277717772 -0.39519625642564 -1.02380790829083
 1 -13.20784713731373 -1.75184987118712 -3.49850973547355
 1 -12.53061662586259  0.00687615001500 -3.79260275597560
 1 -11.59892617191719 -1.50639550665067 -3.32438105810581
 1 -9.35618522152215 -4.98512925582558 -1.64264752885289
 1 -8.23359272407241 -5.79003900810081 -0.61055066806681
 1 -9.57327721262126 -4.87083210451045  0.02904108150815
 1 -3.53220391629163 -3.63842709340934 -0.28456372787279
 1 -1.12374054055406 -4.49481592129213  3.48684159945995
 1 -2.63159276787679 -5.14819643724372  3.84514735363536
 1 -1.49049716121612 -6.03853312651265  2.82775672857286
 1  2.73346265036504 -1.79014084998500 -1.53869783478348
 1  2.59312679027903  0.05350963056306 -1.91410456265627
 1  4.50546145174517 -1.18634084928493  0.23122633863386
 1  3.99495845934593  1.46044475487549 -2.72488085778578
 1  5.47830324202420  2.19779003790379 -1.84285075327533
 1  5.67343465106511  1.02421352885289 -3.03028175917592
 1  6.57317938083808  1.55460946094609 -0.12417977517752
 1  6.33688780818082 -0.14227226462646  0.57387710441044
 1  7.33116050075007 -1.22647188238824 -1.27175849944995
 1  7.90236267216722  0.50223343144314 -1.73927685128513
 1  9.14241629322932  0.89577746274627  0.18844647684769
 1  8.73514200290029 -0.72741824802480  0.76110397409741
 1  10.44381193259326  0.22512505020502 -1.55265015451545
 1  9.50618560406041 -2.01188916541654 -2.16535246004601
 1  11.15142769846985 -2.08694547844784 -2.01549579347935
 1  10.12686557255726 -2.74872681468147 -0.74900434013401
 1  11.55495317621762  0.74094632483248  0.44291577907791
 1  11.51578463186319 -1.01377733903390  0.92014263586359
 1  12.99402272117212 -1.45385354655466 -0.93426109370937
 1  12.92804655715571  0.05150584158416 -1.60428378967897
 1  13.71548298499850  0.78282083808381  0.65017236023602
 1  13.75757851095110 -0.68791839653965  1.06396291279128
 1  15.39148243674367  0.33948343334333 -1.50694505250525
 1  15.78329577247725 -2.42011230333033 -0.04431588548855
 1  15.04428747944795 -2.09307168276828 -1.52252966806681
 1  16.89707933733374 -1.57028255315532 -1.24210568006801
 1  16.11953715441544  1.41329916361636  0.56680322462246
 1  16.58083253045304 -0.03984315941594  1.37541030223022
 1  18.10210114881488 -0.68667521492149 -0.27157049744974
 1  17.98222528702870  0.89973729262926 -1.27021059685969
 1  18.48255904850485  2.24465862356236  1.18174617991799
 1  18.83431059135914  0.80583476447645  1.52820282058206
 1  20.76662157485748  0.25960210841084  0.26494355835584
 1  20.20879498609861  3.26963052495250 -0.58453204660466
 1  21.73424767686769  2.24246089888989 -1.19448081138114
 1  19.98956286068607  2.04689650045004 -1.97209417841784
 1  20.83866984218422  1.21634974407441  2.35175479267927
 1  22.10517222352235  2.05144637433743  1.38124309060906
 1  20.78947867776778  2.95424550785078  1.66856729722972

