%nproc=4
%Mem=2GB
# td=(NStates=1) CAM-B3LYP/6-31G(d,p) 

TD

0 1
<<<<<<< HEAD
12 -7.11333190619062  0.67434618271827 -0.03920623322332
 6 -4.93216783478348 -1.94682586098610  0.46635316801680
 6 -4.81940186908691  2.83247169446945  1.10996736163616
 6 -9.46841157665767  3.06712220772077 -0.34319717941794
 6 -9.58295860956096 -1.86619213021302 -0.74632106120612
 7 -5.09046247084708  0.40848066616662  0.64652507080708
 6 -4.33396310241024 -0.65971579357936  0.72883090629063
 6 -2.95355436083608 -0.29517894359436  1.23660401460146
 6 -3.07739117751775  1.15208787708771  1.69656038673867
 6 -4.41061805670567  1.53217396619662  1.11551858175818
 6 -3.17877295939594  1.25375766386639  3.20286169506951
 6 -1.87910137113711 -0.48118337973797  0.10324428272827
 6 -0.49703712631263 -0.27865221242124  0.61353548284828
 6  0.47740887808781 -0.48453196609661 -0.55445082558256
 8  0.32499373947395 -0.80081548914891 -1.73305963766377
 8  1.77117892839284 -0.31811920832083 -0.07872466136614
 7 -7.10765121302130  2.58736432623262  0.35848454395440
 6 -6.06422570157016  3.35860683648365  0.86962049564956
 6 -6.49189644274427  4.83098738813881  0.79507019421942
 6 -7.73784649164917  4.84584521602160  0.40037842914291
 6 -8.17572184378438  3.43754294959496  0.12541508780878
 6 -5.58673663036304  5.94204667056706  1.17020178067807
 6 -8.53863166076608  6.00904193789379  0.09539652505251
 6 -8.58011190249025  7.22136825542554  0.73899014881488
 7 -9.09129140174017  0.59111197229723 -0.52953698739874
 6 -9.90082634233423  1.71444139723972 -0.62532885698570
 6 -11.25730482708271  1.41149948904890 -1.11422314181418
 6 -11.23803620752075  0.04283964806481 -1.20153886788679
 6 -9.90646632733273 -0.44535650995099 -0.83543855995600
 6 -12.26307513121312  2.36783735473547 -1.51489826462646
 6 -12.28177272357236 -0.95324273437344 -1.65931674017402
 6 -12.23499098749875 -1.18312072327233 -3.15983110171017
 7 -7.24687415571557 -1.42377199079908 -0.27205188218822
 6 -8.36076631643164 -2.33798897099710 -0.58997395259526
 6 -7.74715086068607 -3.63781204870487 -0.51781905920592
 6 -6.44001788588859 -3.54421875887589 -0.21624335623562
 6 -6.15521811821182 -2.16297457875788  0.05838864306431
 6 -8.44777224462446 -5.01159400180018 -0.74386286468647
 6 -5.26862133243324 -4.33774765826583  0.10087295989599
 8 -5.15786462436244 -5.48086256965697  0.17895492619262
 6 -4.10304388378838 -3.22730852065206  0.53004286958696
 6 -3.52902353325333 -3.68467368866887  1.91706207910791
 8 -3.68937053765377 -3.06653338953895  2.96995967706771
 8 -2.70047124082408 -4.72671739413941  1.82013059395940
 6 -2.31495208310831 -5.29886411551155  2.99667460296030
 6  2.78975148684868 -0.71456925152515 -1.09673087348735
 6  4.10101219021902 -0.36505468176818 -0.42216236523652
 6  5.06918040244024  0.41396766216622 -1.04765453815382
 6  5.02030045304530  1.19035168446845 -2.39279344464446
 6  6.44760909370937  0.51780363056306 -0.22037852305230
 6  7.65121265916592 -0.04583493039304 -1.03495044554455
 6  9.00112198479848 -0.07968309870987 -0.27383919671967
 6  10.29673029752975 -0.46999407110711 -0.94226519701970
 6  10.07314401460146 -1.89026996309631 -1.30446391139114
 6  11.51628450535054 -0.34181796259626  0.02899376797680
 6  12.80465537323732 -0.36210026112611 -0.74672469536954
 6  14.02233170157016 -0.09179038183818  0.17341440894089
 6  15.34366049094909 -0.25904963406341 -0.43133137293729
 6  15.67378904780478 -1.64910254405441 -0.89400901860186
 6  16.35891999789979  0.41895625562556  0.45821032823282
 6  17.75048963836383  0.48083948234823 -0.12084789938994
 6  18.81472184168417  1.23178139513951  0.84995542854285
 6  20.27811648084808  1.16531686518652  0.26538130133013
 6  20.33774512831283  1.92782107930793 -1.14690568326833
 6  21.25063599439944  1.71668460476048  1.22706807020702
 1 -3.88473995849585  3.25950147154715  1.46899148604860
 1 -10.20020041274127  4.00501133613361 -0.32930832233223
 1 -10.27629091849185 -2.52888222902290 -1.25226187838784
 1 -2.73835029192919 -0.96971528542854  2.19420011121112
 1 -2.25971957715772  1.96979056165617  1.39945059545955
 1 -2.23632809030903  1.14341479437944  3.57928164166417
 1 -3.48178323832383  2.25990004750475  3.40069223462346
 1 -3.76575001770177  0.72960764476448  3.66777919071907
 1 -2.14518700360036 -1.43081304170417 -0.15742965216522
 1 -2.17255892839284  0.29971722212221 -0.65034507410741
 1 -0.56115963336334  0.78645325922592  0.92482288138814
 1 -0.29765756775678 -1.04637915311531  1.36109006420642
 1 -5.85141391679168  6.80668931303130  0.58710441964196
 1 -5.61178816821682  6.18537190029003  2.12989928702870
 1 -4.51979593559356  5.55623679007901  1.07558073367337
 1 -9.18755080758076  5.74184033213321 -0.73714394259426
 1 -9.12873408930893  8.04332507140714  0.39261888368837
 1 -7.97780724652465  7.64711111061106  1.64994337983798
 1 -11.82231633673367  3.16340666666667 -2.18050105480548
 1 -13.03515318451845  1.82651654285429 -2.14200539203920
 1 -12.62005373647365  2.98510716541654 -0.63230447444745
 1 -12.02462724112411 -1.95328477357736 -1.06271122602260
 1 -13.33947266616662 -0.50212694949495 -1.34641016851685
 1 -12.87517386998700 -2.00314500070007 -3.42454233873387
 1 -12.53255681988199 -0.35607014461446 -3.59595309100910
 1 -11.21406768606861 -1.76261112821282 -3.38736735673567
 1 -8.95485508850885 -4.85655639853985 -1.84787805190519
 1 -7.80228959375937 -5.84983498769877 -0.43648326132613
 1 -9.39519940484048 -5.11141616291629 -0.10723254585458
 1 -3.33753444934493 -3.52193544424443 -0.40967623912391
 1 -1.99993816031603 -4.51086752645265  3.75973888918892
 1 -3.24062367096710 -5.86936855445545  3.39961280018002
 1 -1.71929004050405 -5.96907618081808  2.84093804670467
 1  2.82168147224723 -1.85924776067607 -1.49600356535654
 1  2.63862133973397 -0.10412613301330 -2.03472662486249
 1  4.16998790439044 -0.73917613281328  0.74936815281528
 1  3.90604956845685  1.27990670107011 -2.59269763946395
 1  5.56727213891389  2.10954121302130 -2.15313178137814
 1  5.47097440504050  0.46694780228023 -3.11748047904790
 1  6.52399446234623  1.49131313131313  0.18807144994500
 1  6.06981110051005 -0.05438347574758  0.63103281998200
 1  7.28119550425042 -0.90140937613761 -1.56329765336534
 1  7.79119155505551  0.59137234533453 -1.87133005660566
 1  9.24387643924392  0.80655854085409  0.16895452765277
 1  8.77023551225123 -0.76874238043804  0.54045190889089
 1  10.47907545894589  0.01023356105611 -1.80414530403040
 1  9.11614660016002 -2.03518149464947 -2.02211813661366
 1  10.89143169886989 -2.29599638353835 -2.03490773467347
 1  9.93027591359136 -2.32917485948595 -0.44057349704971
 1  11.40302798369837  0.66208843904390  0.50895238273827
 1  11.58346139953995 -1.16229219051905  0.81792241384138
 1  12.96434975387539 -1.21005916711671 -1.33313098069807
 1  12.97753150565056  0.31791248224822 -1.52513587488749
 1  13.66764820152015  0.93106566256626  0.66796413941394
 1  14.06020877397740 -0.81886149084908  1.06106262276228
 1  15.34582787128713  0.61989147414742 -1.30691504950495
 1  15.71210865376538 -2.32465275737574 -0.06918837273727
 1  14.94292734343434 -2.12970534613461 -1.51081849694969
 1  16.73249287868787 -1.82101762666267 -1.33661513101310
 1  15.92391759245924  1.28515634933493  0.69113565786579
 1  16.41699614681468 -0.07013618871887  1.43840660186019
 1  18.21760269896990 -0.52040858825883 -0.16092943334333
 1  17.81256832133213  0.97790510941094 -1.04978855465547
 1  18.55229602220222  2.26185034273427  1.16910491579158
 1  18.94532169246925  0.80333451445144  1.63450345064506
 1  20.58878379107911  0.14700084828483 -0.05443837983798
 1  19.91667577417742  2.90676423832383 -1.09052264566457
 1  21.36287053915392  1.99472612541254 -1.49337070037004
 1  19.88652255665567  1.29506131693169 -1.98461543054305
 1  21.28147412261226  1.01489959905991  2.10029964716472
 1  22.37293900020002  1.53774500420042  0.84894986128613
 1  21.27373710361036  2.63851393469347  1.68076851735174
=======
12 -7.14980555355536  0.65055380348035  0.03826151355136
 6 -4.88927354535454 -1.93687486588659  0.55490202290229
 6 -4.85788571747175  2.92840128742874  1.09774613951395
 6 -9.35327006250625  3.09563505900590 -0.26326918661866
 6 -9.56048636233623 -1.64647015801580 -0.82960939003900
 7 -5.11863528812881  0.44941475957596  0.75907632593259
 6 -4.37922762886289 -0.69474929692969  0.87274529772977
 6 -2.88895790119012 -0.38279770547055  1.14064441864186
 6 -2.97247068546855  1.12452512081208  1.55228595929593
 6 -4.37048404330433  1.52474322312231  1.06580361026103
 6 -2.81161624372437  1.25999828792879  3.13968537743774
 6 -1.96207966896690 -0.65037029842984 -0.06093213491349
 6 -0.45111253385339 -0.54923927112711  0.53612774207421
 6  0.53518465566557 -0.82357587048705 -0.58041342184218
 8  0.22009324942494 -1.16343175077508 -1.67194352605261
 8  1.77091890239024 -0.60107750415041 -0.20921771067107
 7 -7.11120156805681  2.63899948974897  0.30541923742374
 6 -5.99792907190719  3.46741771757176  0.70015354895490
 6 -6.50259751285128  4.84201849124913  0.84376506370637
 6 -7.73672637963796  4.93165379687969  0.22060045134513
 6 -8.14264853645365  3.48907810311031  0.07565011131113
 6 -5.49714767146715  5.96185865176518  1.22423718421842
 6 -8.69164696229623  6.04780581428143  0.14261124652465
 6 -8.48949284058406  7.24002012061206  0.70464671447145
 7 -9.10075234783478  0.66932979407941 -0.37337137083708
 6 -9.91655791549155  1.80860081318132 -0.60539686378638
 6 -11.20459955655565  1.50775911501150 -1.11616333583358
 6 -11.23865626952695  0.18315367946795 -1.25826454045405
 6 -9.97632331303130 -0.40199217351735 -0.83332834893489
 6 -12.19436826052605  2.52379295029503 -1.35886266106611
 6 -12.45372991929193 -0.61673908400840 -1.79120992949295
 6 -12.14858234663466 -1.15721813301330 -3.23040815941594
 7 -7.19020848914892 -1.30893050665067 -0.15467014401440
 6 -8.32586282608261 -2.15218039013901 -0.46966192139214
 6 -7.86047219281928 -3.53482174967497 -0.50221749904990
 6 -6.56647053115312 -3.54039837683768 -0.00617234913491
 6 -6.18184078047805 -2.10299858115812  0.11781458565857
 6 -8.69999746714671 -4.79038188058806 -0.73880235863586
 6 -5.37493196349635 -4.31448533203320  0.24415728832883
 8 -5.19775861376138 -5.58631311471147  0.21794882558256
 6 -4.13906748614861 -3.28508429822982  0.48524839013901
 6 -3.58140877177718 -3.72712793409341  1.87575794869487
 8 -3.88461006160616 -3.21462819901990  2.87814049514951
 8 -2.71116230993099 -4.73221794419442  1.69973855475548
 6 -2.08733932183218 -5.35077930703070  2.82175711121112
 6  2.84884739643964 -0.97459525412541 -1.21373257365737
 6  4.19487157615762 -0.69991816811681 -0.53806395539554
 6  5.17759124352435  0.14913117851785 -0.86959673237324
 6  5.02190061306131  0.94126677597760 -2.19152331763176
 6  6.44922925572557  0.23522537273727 -0.16945343054305
 6  7.71422896079608 -0.34406475337534 -1.02766971747175
 6  8.95251712431243 -0.19433456385639 -0.18134994779478
 6  10.20526115061506 -0.53864093579358 -0.83388435893589
 6  10.17326402660266 -2.11281221732173 -1.35809927492749
 6  11.48962183908391 -0.24177795859586  0.07431830043004
 6  12.86838174587459 -0.51148519961996 -0.63948397129713
 6  14.01605107350735 -0.10632183498350  0.16887395489549
 6  15.36729285418542 -0.22076580568057 -0.42737097689769
 6  15.86594826372637 -1.62435006880688 -0.88510812851285
 6  16.44626873277328  0.42516687668767  0.44024853205321
 6  17.82041663106310  0.78327972637264 -0.20075589018902
 6  18.75461583108311  1.46943516051605  0.78648908190819
 6  20.16154482368237  1.54911524502450  0.25319008220822
 6  20.22304365816582  2.37663596079608 -1.09594058675868
 6  21.07198812961296  2.01359429572957  1.25315067846785
 1 -3.80067155165517  3.57986350775078  1.32468705560556
 1 -10.19830022272227  3.81820265526553 -0.71060645214521
 1 -10.26644993439344 -2.43856319711971 -1.26638329052905
 1 -2.50762721962196 -0.86202451635164  2.02685337653765
 1 -2.29220282548255  1.89643322592259  1.14323497389739
 1 -1.73375783328333  0.99925037793779  3.42256597009701
 1 -3.17726278627863  2.22864692219222  3.46959912531253
 1 -3.67641108380838  0.86934161816182  3.54311672447245
 1 -2.06688917381738 -1.61845180558056 -0.27510141934193
 1 -2.08752042454245  0.08418566896690 -1.04790483008301
 1 -0.31866538393839  0.35776038993899  0.98424882398240
 1 -0.32769057105711 -1.14390890609061  1.51962591779178
 1 -5.83558233363336  6.66911555565557  0.78286399559956
 1 -5.43427041644164  5.99145250835083  2.39696599369937
 1 -4.39166312231223  5.93332449884988  0.96708988458846
 1 -9.58069012151215  5.95617176527653 -0.58668889708971
 1 -9.16101731763176  7.94706544544454  0.45312493429343
 1 -7.71377084288429  7.34680107960796  1.51149953545355
 1 -11.78483258835884  3.37694802080208 -1.95302830753075
 1 -13.06789645884588  2.21608549974998 -1.77401859335934
 1 -12.49739147024703  3.08119677437744 -0.50808205220522
 1 -12.72487726612661 -1.64408385348535 -1.17605256015602
 1 -13.57276599549955 -0.23476021282128 -1.70560608810881
 1 -13.13350970357036 -1.55421010721072 -3.60814069856986
 1 -12.03303686788679 -0.34587912551255 -3.99779327502750
 1 -11.24320059935994 -1.80092495959596 -3.35624424442444
 1 -9.15761536453646 -4.50439118201820 -1.75642890699070
 1 -7.92175153995399 -5.40176018021802 -0.65571518451845
 1 -9.61859174407441 -4.94126914821482 -0.01395321792179
 1 -3.56924762066207 -3.53281653235323 -0.49645491699170
 1 -1.67675584208421 -4.67019345904590  3.45717863316332
 1 -2.84161376997700 -5.85024664226423  3.52284512341234
 1 -1.43922203370337 -6.08467774097410  2.54075802870287
 1  2.73545284938494 -1.84196603250325 -1.49506347134713
 1  2.66917439503950 -0.58082380278028 -2.18049120132013
 1  4.20647155275528 -1.44018623382338  0.33407662366237
 1  4.04375333883388  1.00136884728473 -2.81511988168817
 1  5.07430284198420  1.82951321022102 -1.98782525072507
 1  5.84173148074808  0.66798790629063 -3.06472520352035
 1  6.58170023292329  1.15368936893689  0.14013665646565
 1  6.46061018041804 -0.48214625202520  0.76861657835784
 1  7.55678306300630 -1.32237147234724 -1.32131345494550
 1  7.65121755765577  0.30969417751775 -2.04370729432943
 1  9.07582963456345  0.73102098709871  0.24525215741574
 1  8.78366685538554 -0.95243074927493  0.63715157885789
 1  10.26567411881188 -0.02678014031403 -1.78189307880788
 1  9.37887287278728 -2.21581955845585 -2.00259618441844
 1  11.14289684538454 -2.29098588248825 -1.92817706160616
 1  9.99826271227123 -2.96741868386839 -0.53843328302830
 1  11.53790147104711  0.77304953515352  0.42857434493449
 1  11.21773482688269 -0.82268823012301  0.92260288188819
 1  12.84021734063406 -1.62762092329233 -1.04470213781378
 1  13.00927467996800  0.02414310531053 -1.57771113241324
 1  13.75957739443944  0.87207976397640  0.36570391339134
 1  13.86487924102410 -0.86948655335534  0.99361587808781
 1  15.30992428092809  0.49745923092309 -1.29990434843484
 1  15.77987543044305 -2.18604889698970 -0.06340779467947
 1  15.06689974067407 -1.90956333193319 -1.57657507260726
 1  16.86379600900090 -1.72565809070907 -1.37495896539654
 1  16.08545374607461  1.30037787148715  0.95456200050005
 1  16.74970941814181 -0.22847202230223  1.31950471167117
 1  18.21143208190819 -0.22187873527353 -0.46056939733973
 1  17.64789185368537  1.31964928382838 -1.09674325012501
 1  18.47264805740574  2.56729088678868  1.06354435973597
 1  18.84107126742675  0.82073625462546  1.78764876517652
 1  20.49655456815682  0.61293744194419  0.06175323932393
 1  20.02248635523552  3.46564012591259 -1.01834542794279
 1  21.24103835593559  2.29608626142614 -1.48651001430143
 1  19.41988589298930  1.89912172297230 -1.90901787078708
 1  21.20819679487949  1.46576468556856  2.16768638583858
 1  22.14092579887989  2.22912414211421  0.95933089938994
 1  20.87810754065407  3.06514659795980  1.52370281078108
>>>>>>> 8e03b5b5abfc0030b3aa597dc0de36371bfbd096

