%nproc=4
%Mem=2GB
# td=(NStates=1) CAM-B3LYP/6-31G(d,p) 

TD

0 1
12 -7.12029260226023  0.59587833593359  0.07681536893689
 6 -4.76363098109811 -1.95486666506651  0.60642717541754
 6 -4.76183611251125  2.81512996029603  1.21480784568457
 6 -9.38739347484749  3.08927442294229 -0.53378623832383
 6 -9.56519683338334 -1.70565607660766 -0.83814024312431
 7 -5.05237866246625  0.40452027012701  0.68710912921292
 6 -4.33334304040404 -0.71394121612161  0.75847387058706
 6 -2.94137314271427 -0.43333275897590  1.26906726092609
 6 -3.04020745914591  1.11620428872887  1.66724745544554
 6 -4.33497049194919  1.44987573637364  1.14835186508651
 6 -2.91621670377038  1.28864115221522  3.13654506340634
 6 -1.92596605760576 -0.49728498989899  0.07415137343734
 6 -0.50181760436044 -0.22196654385439  0.48242237153715
 6  0.48108924612461 -0.48955246814681 -0.62209759025903
 8  0.18165940604060 -0.89218462606261 -1.76276260796080
 8  1.72588439893989 -0.24306170257026 -0.20301709060906
 7 -7.09359980788079  2.58230382018202  0.28245694119412
 6 -6.03969324832483  3.38506948274827  0.77385091869187
 6 -6.45005225832583  4.72965725512551  0.68461914911491
 6 -7.71788449544955  4.80508113961396  0.38229662096210
 6 -8.16337060866087  3.41856105140514 -0.03196064976498
 6 -5.47985594229423  5.83031549744975  1.11289605010501
 6 -8.58253605120512  5.92303333703370  0.16925391079108
 6 -8.42271616291629  7.14280039863986  0.80496674647465
 7 -9.10676294889489  0.70317317841784 -0.50048408210821
 6 -9.85409166886689  1.77042699579958 -0.70428675277528
 6 -11.11726082268227  1.46138447754775 -1.11061278077808
 6 -11.28635103900390  0.07171253535354 -1.23483219721972
 6 -9.91503718441844 -0.42134410871087 -0.78742375847585
 6 -12.28918774247425  2.42373294429443 -1.33712048684868
 6 -12.47713225952595 -0.73901131123112 -1.79302011051105
 6 -12.24139162756276 -1.06962937413741 -3.18968408700870
 7 -7.26373584188419 -1.47821743534353 -0.14931960896090
 6 -8.30572081188119 -2.22446761886189 -0.48434338953895
 6 -7.75206135173517 -3.64939320682068 -0.57002427972797
 6 -6.46735061916192 -3.56395073207321 -0.08623035493549
 6 -6.14980757715772 -2.21098938023802  0.12074487868787
 6 -8.73561102850285 -4.76529937233723 -0.80038851725173
 6 -5.29782425272527 -4.39068295179518  0.23017589018902
 8 -5.22629146704671 -5.61306578997900  0.41089812051205
 6 -4.11716529592959 -3.27823361316132  0.57093695899590
 6 -3.53641427232723 -3.66474169546955  1.89385975887589
 8 -3.75843744434443 -3.15562229842984  2.99494217531753
 8 -2.61259245294529 -4.71656637903790  1.76732531343134
 6 -2.10766135403540 -5.25100933003300  3.06214114961496
 6  2.77931044274427 -0.50160795539554 -1.16577777817782
 6  4.16091818081808 -0.44794297059706 -0.62677282628263
 6  5.19689317371737  0.31919818521852 -0.99698947164716
 6  5.18208663166317  1.23578622792279 -2.18389255455546
 6  6.48232256505651  0.25236708690869 -0.25130161536154
 6  7.64573211111111 -0.26639698659866 -0.94828177867787
 6  8.95675754835484 -0.24088921932193 -0.23642545534553
 6  10.23030365486549 -0.56806387808781 -1.07165813631363
 6  10.09443614381438 -2.10129106520652 -1.50797426242624
 6  11.40600347724773 -0.50015379617962 -0.01256038743874
 6  12.75400030773077 -0.59552360346035 -0.72272229512951
 6  13.93001246964696 -0.06628783158316  0.17834490199020
 6  15.34723084798480 -0.01553528262826 -0.53572181198120
 6  15.71466313521352 -1.58556619041904 -0.79959957765777
 6  16.25812991889189  0.50412477247725  0.42939744694469
 6  17.62557714711471  0.63496489488949 -0.16329214381438
 6  18.66597696719672  1.24382259925993  0.83086351935194
 6  20.17882655185518  1.30397073057306  0.28610337353735
 6  20.37405875967597  2.17565586278628 -0.99307029972997
 6  21.18126905770577  1.88144108040804  1.38240360376038
 1 -4.07416890139014  3.57795331673167  1.61204579147915
 1 -9.93642403510351  3.77130796579658 -0.64138953045305
 1 -10.29235252465246 -2.37480682148215 -1.07323397559756
 1 -2.76047250415041 -1.22645095899590  2.15871656285629
 1 -2.31272487768777  1.63711729432943  1.09338998939894
 1 -1.87399185668567  0.97266771967197  3.45162887638764
 1 -3.07646270627063  2.35536959445945  3.59608177357736
 1 -3.52554599729973  0.45281996599660  3.69844225702570
 1 -1.79715220012001 -1.55699565996600 -0.48118202740274
 1 -2.45593726622662  0.29265651605161 -0.73154319391939
 1 -0.32180569796980  0.86460107400740  0.93806420552055
 1 -0.20764856685669 -0.82086660186019  1.21661561676168
 1 -6.03366214161416  6.85488413251325  0.75140084928493
 1 -5.53179016841684  5.93474683778378  2.16099239633963
 1 -4.35293924992499  5.81305247164716  0.73548672427243
 1 -9.38349040154015  5.79431557965797 -0.56915714391439
 1 -8.97780899679968  8.10294103300330  0.56014563636364
 1 -7.56586605240524  7.37388378787879  1.61133951945195
 1 -12.00629473457346  2.77878820482048 -2.34171717641764
 1 -13.33330299949995  1.92529642084208 -1.33481467296730
 1 -12.20824255535554  3.56653530823082 -0.72090333433343
 1 -12.38655343374337 -1.73825327042704 -1.15295024992499
 1 -13.55261398029803 -0.37864460126013 -1.77316284378438
 1 -12.97773412601260 -1.79598428462846 -3.46647653215322
 1 -12.31648521272127 -0.29607414501450 -3.96978047374737
 1 -11.28452473177318 -1.69000386748675 -3.60361898189819
 1 -9.30756035903591 -4.51857260016002 -1.60701396549655
 1 -8.16587595239524 -5.72328233243324 -1.02647226022602
 1 -9.35722560746075 -4.81471649294929  0.10401857925793
 1 -3.38784948084809 -3.66584983568357 -0.19156442794279
 1 -1.37918608510851 -4.50108654835484  3.42769568486849
 1 -2.79638924752475 -5.59309092669267  3.75289812871287
 1 -1.52843095459546 -6.11680095329533  2.85597955085509
 1  2.78584788888889 -1.50844268016802 -1.60377434243424
 1  2.38638611621162  0.30793507310731 -2.07612076427643
 1  4.52427333293329 -1.18345056025603  0.01219443544354
 1  4.28823778727873  1.42459116951695 -2.67632600230023
 1  5.47511292299230  2.19894015291529 -1.96057252545255
 1  5.92825013261326  0.83716482398240 -3.01252998399840
 1  6.86860892379238  1.25967996799680  0.20742338513851
 1  6.38407252665267 -0.46703474087409  0.47632734943494
 1  7.27672505720572 -1.19922915811581 -1.49389071267127
 1  7.68534096999700  0.49461266936694 -1.83696662026203
 1  8.92225427702770  0.74939282428243  0.23997162936294
 1  8.68840732943294 -0.96180168636864  0.61457932163216
 1  10.47697524892489  0.27494003170317 -1.87878276777678
 1  9.15121010651065 -2.41413939043904 -2.05442136693669
 1  10.83184574027403 -2.31038782268227 -2.27800204410441
 1  10.18806169216922 -2.64127606960696 -0.70911035073507
 1  11.39762744364436  0.49924215441544  0.52429391689169
 1  11.03238629202920 -1.39408536983698  0.78968959055906
 1  12.97438075697570 -1.52021018221822 -1.09042671027103
 1  12.50872462496250  0.15840653165317 -1.60432379367937
 1  13.60485192189219  1.03270582658266  0.71465880888089
 1  13.93115586868687 -0.68670827552755  1.11374789128913
 1  15.33554684318432  0.38601808680868 -1.43051740974097
 1  15.59361680458046 -2.11017130923092  0.23627217331733
 1  14.96125917661766 -2.10029240484048 -1.46986440154015
 1  16.54353398279828 -1.77313283818382 -1.33646511601160
 1  16.09426462716272  1.63196102980298  0.77489403370337
 1  16.30417486468647 -0.20909008410841  1.37834059525953
 1  18.13207414611461 -0.31508805620562 -0.64858819921992
 1  17.40568763326333  1.31214853375338 -1.18220179597960
 1  18.42614340694070  2.31833599129913  1.24198220352035
 1  18.83984114441444  0.56521070207021  1.62714271457146
 1  20.49470438313831  0.18707485568557  0.13117018101810
 1  20.24034814141414  3.08315187708771 -0.72164575797580
 1  21.57349160126013  1.91577823062306 -1.37534889818982
 1  19.68222212661266  2.00565237603760 -1.98612558155816
 1  21.17155313051305  1.17601571067107  2.19019863706371
 1  22.18530023632363  1.62751398109811  1.11611657795780
 1  20.85853558345835  2.81825190849085  1.88052849334933

