%nproc=4
%Mem=2GB
# td=(NStates=1) CAM-B3LYP/6-31G(d,p) 

TD

0 1
<<<<<<< HEAD
12 -7.14418499149915  0.60408915701570  0.01466915431543
 6 -4.91500611861186 -1.95539671807181  0.54733126582658
 6 -4.79893982288229  2.83130157745775  1.12533889878988
 6 -9.38004273977398  3.10415591109111 -0.47706056575658
 6 -9.56203651735174 -1.78183369436944 -0.99884631373137
 7 -5.08859228382838  0.50751056915692  0.65244566286629
 6 -4.37257696379638 -0.71246106810681  0.87939596279628
 6 -2.90634964036404 -0.40692011771177  1.34201455565557
 6 -3.02343578197820  1.02702537083708  1.75918664936494
 6 -4.32231922682268  1.50627137593759  1.11168819871987
 6 -3.18152323442344  1.19719200730073  3.38870027892789
 6 -1.96789025002500 -0.66917217861786  0.17613157145715
 6 -0.58319574217422 -0.48417276447645  0.54904903420342
 6  0.49398053525353 -0.66473998689869 -0.54512989348935
 8  0.22147338743874 -1.12740814841484 -1.63628996069607
 8  1.78260007050705 -0.52184958135814 -0.13881066996700
 7 -6.98559900780078  2.65120070987099  0.35563425892589
 6 -6.01052033103310  3.38245922172217  0.78837237083708
 6 -6.28777603070307  4.82467675707571  0.69903059025903
 6 -7.65879858685869  4.89239987148715  0.28544693599360
 6 -8.06865113671367  3.52610180548055  0.03843638993899
 6 -5.35904386108611  5.91591405730573  0.85518027852785
 6 -8.48457625522552  5.99454048774878  0.03157014241424
 6 -8.33955784708471  7.15814193279328  0.67394364416442
 7 -9.10873314591459  0.60688354945495 -0.44148818251825
 6 -9.83105936563656  1.80720067316732 -0.60049637373737
 6 -11.20053915051505  1.43007134623462 -1.06867858735874
 6 -11.27189959385939  0.09054441854185 -1.19803851785179
 6 -9.91561724242424 -0.46958893319332 -0.84312932903290
 6 -12.38610743444344  2.38322889388939 -1.29567634243424
 6 -12.36239078537854 -0.71245865596560 -1.70631143964396
 6 -12.38226571497150 -0.94256666786679 -3.23314843344334
 7 -7.26177564586459 -1.36432604620462 -0.26435111211121
 6 -8.26811705150515 -2.23646881898190 -0.67752270747075
 6 -7.76786293189319 -3.52157042454245 -0.62873015031503
 6 -6.40877476157616 -3.55312964996500 -0.26965869776978
 6 -6.14155675207521 -2.21119940124012 -0.06065326112611
 6 -8.55559302670267 -4.88815165756576 -0.89614809320932
 6 -5.36125059535954 -4.30337422092209  0.24969784238424
 8 -5.29387822572257 -5.55981046444644  0.24330136083608
 6 -4.25056863626363 -3.30180597039704  0.61704156945695
 6 -3.64906553745375 -3.71451667296730  1.97443781668167
 8 -3.81128272887289 -3.22770950715072  3.07804048514851
 8 -2.74403559725973 -4.67337205960596  1.67855643654365
 6 -2.19281986988699 -5.27153138223822  2.96629156465647
 6  2.81371388308831 -0.69212700730073 -1.07717891829183
 6  4.08026011501150 -0.43297147344734 -0.48444859385939
 6  5.10245372977298  0.42209847524752 -0.82795256795680
 6  4.99855827882788  1.22546519581958 -2.06029019431943
 6  6.41954628742874  0.26459831003100  0.00742425722572
 6  7.69593713161316 -0.13021336823682 -0.83023997449745
 6  8.89536140874088 -0.03163829422942 -0.03723553635364
 6  10.21270189468947 -0.61415848754875 -0.81150212071207
 6  10.03086978717872 -2.07852878897890 -1.10651411641164
 6  11.44973785068507 -0.21863564436444 -0.02500163156316
 6  12.71658656635664 -0.47487153825383 -0.90828085098510
 6  14.02379184758476 -0.12856405920592 -0.01646457895790
 6  15.42769889478948 -0.20234396349635 -0.67149538933893
 6  15.81015268416842 -1.62306994079408 -1.08332795049505
 6  16.37532163806381  0.35651001100110  0.30125463266327
 6  17.84168875827583  0.65071647004700 -0.26941275587559
 6  18.78179854935494  1.35968418541854  0.64953538653865
 6  20.21148981818182  1.40057039053905  0.15270003320332
 6  20.40196154995500  2.24821311851185 -1.00215120782078
 6  21.12801373217322  1.85470840714071  1.42676804020402
 1 -4.19067055155516  3.49255477687769  1.54381896879688
 1 -10.00872126482648  3.95109594459446 -0.69625501700170
 1 -10.27008029742974 -2.45627496829683 -1.18064471667167
 1 -2.42230868776878 -1.14346266016602  2.05673636483648
 1 -2.13568717391739  1.61944552715272  1.50059070947095
 1 -2.15597005450545  0.95981643454345  3.69127284078408
 1 -3.41170623062306  2.17076113361336  3.71687385278528
 1 -3.87948139083908  0.40735541954195  3.93160557335734
 1 -2.13234571947195 -1.64157411781178 -0.29557346654665
 1 -2.19327099959996  0.09407665806581 -0.64578461806181
 1 -0.39954347174717  0.53440805470547  1.03219361846185
 1 -0.20479828182818 -1.22791730693069  1.38625258045805
 1 -5.37943671907191  6.87595623972397  0.19152486168617
 1 -5.54492148154815  6.45388875197520  1.82945924302430
 1 -4.32336629262926  5.43831499789979  0.81256443204320
 1 -9.14578663116312  5.88041418951895 -0.83666389458946
 1 -8.99115033093309  7.93476421532153  0.51468108990899
 1 -7.59093855965597  7.41646804630463  1.40806919241924
 1 -12.03621772687269  2.83198352435244 -2.02763576827683
 1 -13.14195386458646  1.81956584778478 -1.74271546304630
 1 -12.69846157725773  2.92216087078708 -0.48762000600060
 1 -12.23783856225623 -1.95417486258626 -1.29238419331933
 1 -13.34187290619062 -0.11676841364136 -1.54240976847685
 1 -13.11041739433943 -1.70549523572357 -3.67246713121312
 1 -12.35830939513951  0.07176263866387 -3.80627412311231
 1 -11.50972725202520 -1.61245611271127 -3.29911853185319
 1 -8.83575317831783 -4.75517626052605 -1.89682294639464
 1 -7.78607797259726 -5.86434643884388 -0.95519513251325
 1 -9.49530941584158 -4.97870289158916 -0.23409523212321
 1 -3.49417011291129 -3.34200745144514 -0.24445971747175
 1 -1.54066223272327 -4.44366080578058  3.31804471977198
 1 -2.87213682228223 -5.65464708230823  3.52310514941494
 1 -1.59735784728473 -6.01860113331333  2.49885383828383
 1  2.75723502760276 -1.79463129902990 -1.75463942894289
 1  2.65698317591759  0.06436071567157 -1.79985313751375
 1  4.50837174277428 -1.06327854305431  0.47729094509451
 1  4.04832379587959  1.26636534693469 -2.44915328502850
 1  5.58039345104510  2.25725598449845 -1.94573104130413
 1  5.39197650525053  0.56760786828683 -2.88309704070407
 1  6.77235929882988  1.27572157215722  0.32631527432743
 1  6.23680780018002 -0.22041007840784  0.98153787048705
 1  7.38994637933793 -0.99562879807981 -1.07517884148415
 1  7.72353478937894  0.57044025212521 -1.73791671527153
 1  9.19276132773277  1.04307219221922  0.22606023822382
 1  8.72537102580258 -0.77425293149315  0.86550441414141
 1  10.25250280168017 -0.07351481378138 -1.93120801030103
 1  9.02679766526653 -2.15606358285829 -1.68182410721072
 1  10.78938149384939 -2.53981076497650 -1.56737098099810
 1  9.74920780678068 -2.73948589058906 -0.28837827752775
 1  11.49808748964896  0.88043027322732  0.14125561306131
 1  11.42239529292929 -0.73366932823282  0.99960058165817
 1  12.76017933683368 -1.49401756295630 -1.22888055565557
 1  12.78645239773977  0.08349904090409 -1.89719308060806
 1  13.84686612331233  0.80606316231623  0.61480882388239
 1  13.92226497959796 -0.80296990169017  0.82006852335233
 1  15.30568385688569  0.50774025902590 -1.52227658565857
 1  15.70328777167717 -2.18782907500750 -0.16724817871787
 1  14.91069412011201 -1.92405478107811 -1.65022243734373
 1  16.82743237263726 -1.69070459535954 -1.58613008250825
 1  16.04559976067607  1.42616044974497  0.59380592489249
 1  16.52579702690269 -0.31719089418942  1.24694745594559
 1  18.21029196789679 -0.05991253865387 -0.84688802920292
 1  17.55987305180518  1.29069638853885 -1.01919549534953
 1  18.32592338493849  2.56575073277328  0.58490649594959
 1  18.60406756705671  1.06960114111411  1.76583658395840
 1  20.62865777847785  0.35385153335333  0.13507057105711
 1  19.96277038363836  3.30891445334533 -0.75511910531053
 1  21.33078733083308  2.49701635443544 -1.40570193349335
 1  19.61350525492550  1.96968877967797 -1.85562253125313
 1  21.07867384258426  1.00496860596060  1.96700631783178
 1  22.19159086538654  1.86872810251025  1.17758272457246
 1  20.96187591749175  2.87599768306831  1.93397383788379
=======
12 -7.13422399539954  0.61204995309531  0.18242592999300
 6 -4.91211582958296 -1.88669984838484  0.61018755145515
 6 -4.92718264716472  2.75846429372937  1.22953931883188
 6 -9.26821155665566  3.13245874137414 -0.41613447314731
 6 -9.60126043974397 -1.79788529952995 -0.88670509960996
 7 -5.17574099869987  0.30004982308231  0.88522894119412
 6 -4.31904161026103 -0.73430325232523  0.90218824202420
 6 -2.90246925232523 -0.42560198589859  1.27390774497450
 6 -3.07172061046105  1.15256792509251  1.67564829552955
 6 -4.40649764466447  1.47586833563356  1.17964499439944
 6 -2.81402648474847  1.44399668776878  3.16596800570057
 6 -1.90042350335033 -0.60873613501350  0.15859981828183
 6 -0.40436785938594 -0.47756210341034  0.58635276457646
 6  0.55761689888989 -0.70813432633263 -0.65684106460646
 8  0.18065930603060 -1.08467387498750 -1.76909324102410
 8  1.82804461496150 -0.53913130953095 -0.26909369826983
 7 -7.08491893979398  2.59350494029403  0.28046674217422
 6 -6.02782206120612  3.32853382918292  0.70211374497450
 6 -6.37886513961396  4.73637792719272  0.73441412861286
 6 -7.71870457745775  4.83475410691069  0.25892428372837
 6 -8.12736700830083  3.54410360566057  0.01646419271927
 6 -5.40207816451645  5.86600906680668  1.24400916141614
 6 -8.50645844344434  6.12203323702370  0.22484947034703
 6 -8.39908379967997  7.10398651725172  1.03198944874487
 7 -9.13366563916392  0.64233709480948 -0.51484551825183
 6 -9.90950721042104  1.76914686778678 -0.67790411451145
 6 -11.21443053965396  1.52163050215022 -1.24839655915592
 6 -11.31891429532953  0.15507087118712 -1.31313002700270
 6 -9.96345202590259 -0.38827080138014 -0.87114213031303
 6 -12.35502432613261  2.47089766076608 -1.54806158095810
 6 -12.45097964426443 -0.78801621172117 -1.77891870037004
 6 -12.26052354075408 -1.13085549674967 -3.29157427602760
 7 -7.25353482178218 -1.43410302390239 -0.15516019301930
 6 -8.31044128392839 -2.24426959905991 -0.56764171937194
 6 -7.85147129272927 -3.58481674917492 -0.47387466476648
 6 -6.48615249934994 -3.52801713871387 -0.06146787868787
 6 -6.22989558595860 -2.14908318961896  0.04387719191919
 6 -8.59822729012901 -4.81802464486449 -0.93642212061206
 6 -5.25125959625963 -4.26406028952895  0.20892376497650
 8 -5.16651548944894 -5.52203668706871  0.15554258495850
 6 -4.12407598699870 -3.27025281508151  0.65276514181418
 6 -3.61227185808581 -3.63444866616662  1.99458983188319
 8 -3.89233083368337 -3.14198093429343  2.98122080318032
 8 -2.69643083678368 -4.62788751115111  1.81421000190019
 6 -2.09521010891089 -5.15900012911291  3.05279021452145
 6  2.80106261796180 -0.69087688228823 -1.29363056345635
 6  4.13297538653865 -0.46646482278228 -0.66624677367737
 6  5.09466295069507  0.31090735613561 -1.04803457615762
 6  5.21350977397740  1.02482513181318 -2.49950411571157
 6  6.42972730553055  0.43186503670367 -0.27563404860486
 6  7.66693423132313 -0.14940528742874 -0.89173612411241
 6  8.91227309990999 -0.11728685908591 -0.02648446124612
 6  10.14147477197720 -0.66390346204620 -0.81272224272427
 6  10.06338303850385 -2.09963089918992 -1.27787125212521
 6  11.40551342824283 -0.27986176697670 -0.01965109650965
 6  12.71914682238224 -0.33052710381038 -0.84108413131313
 6  13.90314978337834  0.01295009220922  0.16485355285529
 6  15.38557468236824 -0.12203593269327 -0.47847608740874
 6  15.57009867876788 -1.70653828762876 -0.91254087178718
 6  16.50467457335733  0.32068642864286  0.42005651285129
 6  17.81762635203520  0.56203760216022 -0.21281709630963
 6  18.78335870537054  1.33094131113111  0.73595402840284
 6  20.22862153135313  1.39776010951095  0.26723148634863
 6  20.52000335413542  2.04871316851685 -1.12679367206721
 6  21.03514444524453  2.06271920822082  1.40561592499250
 1 -4.30660214471447  3.44070959235924  1.73073766066607
 1 -10.05326571927193  3.91001183618362 -0.45601099259926
 1 -10.36381967136714 -2.54426376717672 -1.20098675087509
 1 -2.51256771367137 -1.10984929882988  1.95535622682268
 1 -2.34369797499750  1.80029361196120  1.15647629802980
 1 -1.67573203070307  1.01231168406841  3.44850856435644
 1 -2.67637269726973  2.36520057755776  3.55682784818482
 1 -3.49683312601260  1.02972765676568  3.92011442424242
 1 -1.89455194009401 -1.47205716611661 -0.46759066826683
 1 -1.89202087458746  0.06574382478248 -0.88343838343834
 1 -0.25383890129013  0.38949356325633  1.20488088718872
 1 -0.42218002000200 -1.56588110331033  1.15326928212821
 1 -5.81316009140914  6.82887153125313  0.82107781698170
 1 -5.48355534493449  5.88174153725372  2.39145544264426
 1 -4.44999895589559  5.50512167856786  0.82602577817782
 1 -9.19549160166017  6.30490663876388 -0.82345257345735
 1 -9.20591180708071  7.78285902480248  1.01909153095309
 1 -7.87141660746075  7.09124552405241  1.90537892339234
 1 -12.16125023012301  3.01082140814081 -2.48897190189019
 1 -13.23204287348735  1.65098899009901 -1.85627681918192
 1 -12.61138286938694  3.05274392909291 -0.82646389038904
 1 -12.55104988338834 -1.70933037813781 -0.98490344524452
 1 -13.27509622852285 -0.14088082488249 -1.83361888938894
 1 -13.18827518011801 -1.53059774597460 -3.57690757525753
 1 -11.91997556175618 -0.20595513311331 -3.72555605130513
 1 -11.53395967526753 -1.89535440254025 -3.48055667566757
 1 -8.96760636363636 -4.97146788968897 -1.90522378647865
 1 -7.95826519131913 -5.69265927012701 -0.83896350935094
 1 -9.47635752065207 -5.16655167646765 -0.26464828742874
 1 -3.40784148004801 -3.36267951865186 -0.08982425392539
 1 -1.81286945344534 -4.32819925962596  3.77427034233423
 1 -2.94457406600660 -5.65652727032703  3.49152199109911
 1 -1.20676878837884 -5.83167244044404  2.74934888778878
 1  2.63981328542854 -1.69504134003400 -1.70023398839884
 1  2.55212268986899 -0.02328804920492 -2.05565871807181
 1  4.34075498109811 -1.00749296449645  0.23595681168117
 1  4.26526549004901  1.06230494089409 -3.30105847554755
 1  5.50628604030403  1.97396765566557 -2.16449291749175
 1  6.04657196479648  0.42340344784478 -3.00613934493449
 1  6.58695075797580  1.56092009200920  0.07120976377638
 1  6.27730184958496 -0.02946098349835  0.58465818251825
 1  7.39821720642064 -1.04297353255326 -1.19559088268827
 1  7.98676111201120  0.47679088718872 -1.77343026662666
 1  9.17378943054305  0.89542742774277  0.28628626082608
 1  8.82456094479448 -0.61329683588359  0.81504936863686
 1  10.18536608800880 -0.16894435673567 -1.70956584608461
 1  9.29405439093909 -2.23708168466847 -1.88376430123012
 1  10.92803535923592 -2.27941472537254 -1.80927517141714
 1  10.03983686968697 -2.84029597159716 -0.35555499519952
 1  11.25773345424542  0.68380061026103  0.32803429092909
 1  11.54227728112811 -0.93035899719972  0.85762638423842
 1  12.89362268116812 -1.39581774297430 -1.21125879347935
 1  12.90865461796180  0.41602229322932 -1.59289265056506
 1  13.70927236393639  0.92828538453845  0.69475681868187
 1  14.01466421952195 -0.78904850955096  0.84484100060006
 1  15.35686897539754  0.51817130213021 -1.48822318031803
 1  15.42407985088509 -2.33102339443944  0.01514006010601
 1  15.15906895759576 -1.97488986458646 -1.84704211931193
 1  16.54055368476848 -1.77451297619762 -1.28043951345135
 1  16.26443164386438  1.34721255495550  0.83670021432143
 1  16.65099954715471 -0.33961313641364  1.21041380258026
 1  18.33913485218522 -0.48583513091309 -0.39085242564256
 1  17.78537560206021  1.19186650555056 -1.09205278107811
 1  18.25091588418842  2.32067622532253  1.11284929022902
 1  18.76183334363436  0.75745992699270  1.67829783008301
 1  20.56764167686769  0.54225037323732  0.30297736173617
 1  20.24416852345234  3.17406096799680 -0.96129972337234
 1  21.66786103820382  1.90708736153615 -1.39921128442844
 1  19.74704860926093  1.65069688048805 -1.88764573357336
 1  21.04708068326833  1.60531864096410  2.25483510071007
 1  22.16479818611861  2.15762699239924  1.26638160446045
 1  20.69681941184119  3.11898198149815  1.62297273777378
>>>>>>> 8e03b5b5abfc0030b3aa597dc0de36371bfbd096

