%nproc=4
%Mem=2GB
# td=(NStates=1) CAM-B3LYP/6-31G(d,p) 

TD

0 1
12 -7.12043261626163  0.66709545764576  0.11422911031103
 6 -4.86408102610261 -1.88911008940894  0.56823335603560
 6 -4.85181511041104  2.80816926422642  1.19405577047705
 6 -9.39634436993699  3.07668316381638 -0.44572743244324
 6 -9.54256457015702 -1.75688119911991 -0.80443687278728
 7 -5.08446187078708  0.49198901700170  0.81489190749075
 6 -4.35709541564156 -0.62783260526053  0.80205822902290
 6 -2.90269927532753 -0.35560498619862  1.24410476467647
 6 -2.91619505790579  1.11144381268127  1.73470420112011
 6 -4.44980197509751  1.53529427822782  1.23376040594059
 6 -2.78667374947495  1.29331161926193  3.19976138503850
 6 -1.93329679067907 -0.65953121452145  0.02955691399140
 6 -0.47961538413841 -0.50572491969197  0.46108023732373
 6  0.51954309150915 -0.73641715461546 -0.60984636513651
 8  0.12898413851385 -1.17170257785779 -1.71764809650965
 8  1.69436124662466 -0.58303569997000 -0.14720150905091
 7 -7.18819926782678  2.66433202300230  0.36846554205421
 6 -6.13856313531353  3.37043801960196  0.82354588818882
 6 -6.42055930903090  4.76000028942894  0.68576926412641
 6 -7.77270997799780  4.92128275977598  0.25592398369837
 6 -8.15008928052805  3.53389258455846  0.08565111141114
 6 -5.48039599629963  5.85624809070907  1.00536529702970
 6 -8.64066186378638  6.08019905360536  0.25117210261026
 6 -8.53065695699570  7.29418553715371  0.86701295109511
 7 -9.14280655325533  0.62174503560356 -0.54043807750775
 6 -9.84600085978598  1.77032698579858 -0.61894821892189
 6 -11.10486958355835  1.49095743484348 -1.26494821432143
 6 -11.17924032793279  0.14851021512151 -1.26304501850185
 6 -10.02680836153615 -0.41724369866987 -0.77143215931593
 6 -12.22517134083408  2.48510908190819 -1.48054482928293
 6 -12.32147669396940 -0.76331374147415 -1.73123393189319
 6 -12.36620410881088 -1.18007041824182 -3.25092021062106
 7 -7.31667113541354 -1.33712332593259 -0.17414209120912
 6 -8.27982822262226 -2.21564673677368 -0.56566152135214
 6 -7.75453159875988 -3.56557482498250 -0.48401567886789
 6 -6.53654753885389 -3.52495683268327 -0.19193092499250
 6 -6.16823942034203 -2.13210149144915  0.10361316551655
 6 -8.49524699209921 -4.90254309670967 -0.71747022542254
 6 -5.26844131443144 -4.38942282578258  0.06710958355836
 8 -5.17698653655366 -5.52196668006801  0.23100013071307
 6 -4.14813839323932 -3.25532132193219  0.52292215751575
 6 -3.50418104900490 -3.63381860316032  1.78446881978198
 8 -3.61026262686269 -3.11620835703570  2.88882156325633
 8 -2.66206740044004 -4.81266598899890  1.69705828672867
 6 -1.93786437433743 -5.23643787288729  2.88154308980898
 6  2.71117362906291 -0.75906370097010 -1.13267446784678
 6  4.09991208020802 -0.57200537683768 -0.58617876687669
 6  5.15798928332833  0.28324458985899 -0.93263303600360
 6  5.03769219221922  1.06121877117712 -2.22440660596060
 6  6.46398073087309  0.33558540874087 -0.17760424562456
 6  7.65273281118112 -0.05494584148415 -0.96663361386139
 6  8.96101797439744 -0.02080721112111 -0.17308912171217
 6  10.21046167066707 -0.53189026072607 -0.82298326882688
 6  10.01639834003400 -1.97602853895390 -1.34968843384338
 6  11.47178005490549 -0.23862764356436  0.03895476407641
 6  12.85008991669167 -0.59927397849785 -0.66053607650765
 6  13.97954742314231 -0.09101030383038  0.22048911641164
 6  15.34295041994199 -0.24529825892589 -0.50553879367937
 6  15.65719738863886 -1.60071770557056 -0.91348096579658
 6  16.42513661956196  0.46781114111411  0.38699320652065
 6  17.76497108650865  0.42790418881888 -0.23318913351335
 6  18.64990536003600  1.28784700170017  0.63246367936794
 6  20.11279994919492  1.35302563606361  0.25443020622062
 6  20.32999435323532  2.18200649784978 -1.00989198189819
 6  21.06011694249425  2.02355529182918  1.33878924232423
 1 -4.13758524302430  3.52558808020802  1.36463105000500
 1 -10.10758115081508  3.96430726572657 -0.59120451195119
 1 -10.32223551295129 -2.36855619641964 -1.08103475567557
 1 -2.65070152705270 -0.88565687958796  1.98524921612161
 1 -2.09488309350935  1.78503208580858  1.24964561496150
 1 -1.84682914041404  1.21986243914391  3.55703941744174
 1 -3.00515557555756  2.26506056355636  3.33644580998100
 1 -3.42769621232123  0.72686737073707  3.50948336113611
 1 -2.27159964486449 -1.71288124852485 -0.33099700890089
 1 -2.33828550105011  0.22207945834583 -0.64290433003300
 1 -0.00550406780678  0.21889650355035  1.30840123922392
 1 -0.48668647064706 -1.58498301350135  0.99665362056206
 1 -5.71331010641064  6.66816546064607  0.44647035623562
 1 -5.47362435183518  6.18405176827683  2.16603290039004
 1 -4.40670462646265  5.65873704010401  0.94955813141314
 1 -9.59412146464646  5.97037318541854 -0.23575380358036
 1 -9.03741495739574  8.34405514441444  0.58198782058206
 1 -7.65625509130913  7.65954235373537  1.41740012551255
 1 -12.01516562166217  3.00539086508651 -2.59220222492249
 1 -13.21679134833483  2.07399129032903 -1.70351154265427
 1 -12.18439017011701  3.34170282498250 -0.67160840484048
 1 -12.17990276867687 -1.82370181528153 -1.04325928082808
 1 -13.40231895079508 -0.42820955775577 -1.63181870937094
 1 -12.80528688128813 -2.34486917311731 -3.41421130563056
 1 -12.83972753695370 -0.46407094469447 -4.04469796549655
 1 -11.24166044534454 -1.26155102220222 -3.45966458645865
 1 -8.73811341434143 -5.09488023092309 -1.77907117121712
 1 -7.73667303210321 -5.71531153535353 -0.44968458145815
 1 -9.38565845074507 -4.82780780208021  0.04219239663966
 1 -3.52224292019202 -3.32863611431143 -0.42214748624862
 1 -1.30239840634063 -4.41429786948695  3.27737065236524
 1 -2.63768337693769 -5.21497311491149  3.92697553645365
 1 -1.47591570307031 -6.20958023122312  2.39371332423242
 1  2.57397670177018 -1.91972380828083 -1.45242920792079
 1  2.51147862546255 -0.21002672307231 -1.87323047524752
 1  4.13181408700870 -0.93649586478648  0.52841605760576
 1  4.01598056155616  1.04370308070807 -2.51678004770477
 1  5.59046445814581  1.92722298119812 -1.97503397159716
 1  5.67697500510051  0.55566667416742 -3.06871560256026
 1  6.44879694259426  1.36605060506051  0.40061270407041
 1  6.44269838923892 -0.42383042044204  0.72845256195620
 1  7.40870825552555 -1.00667990319032 -1.57145846944695
 1  7.91302373827383  0.78472168026803 -1.88435135873587
 1  8.85605765736574  1.04802268726873  0.16652428462846
 1  8.60220870957096 -0.61443694989499  0.78425628932893
 1  10.24639219061906 -0.00502796509651 -1.89270415991599
 1  9.13692867836784 -2.14930290679068 -2.03744966976698
 1  10.99005156085609 -2.33138992289229 -1.72115635953595
 1  9.87940082608261 -2.71148309030903 -0.31403084278428
 1  11.56961464236424  0.73576580678068  0.37167865536554
 1  11.42259531293129 -0.98587454875488  0.97906852845285
 1  12.96536985588559 -1.76938509970997 -0.87300496809681
 1  12.89973372587259 -0.33328263726373 -1.82705606690669
 1  14.01861329802980  0.93564612061206  0.56026336933693
 1  14.01534428752875 -0.58953855855586  1.11790830733073
 1  15.20308359685968  0.46948643364336 -1.32713707170717
 1  15.66881432433243 -2.11942223432343  0.07299584568457
 1  14.93629668036804 -2.19092146774677 -1.51111852695269
 1  16.74491412081208 -1.54917044194419 -1.36746821632163
 1  16.19930513121312  1.43316114981498  0.76255279957996
 1  16.47300174737473 -0.23188236333633  1.35272803400340
 1  18.46062700140014 -0.55027157455746 -0.32565590599060
 1  17.73457052155216  0.67232455135514 -1.33146672247225
 1  18.23384417701770  2.46781093879388  0.77567557285729
 1  18.70837799809981  0.99823400440044  1.61864186448645
 1  20.64299921262126  0.39412556075608  0.13752081608161
 1  19.74699880648065  3.08947250915091 -0.81917551095110
 1  21.40703495559556  2.48017467026703 -1.09280064336434
 1  19.88785268966897  1.47245905670567 -1.78590555955596
 1  20.93566954215422  1.49851796089609  2.52091170837084
 1  22.19930163646364  1.88440967066707  1.09652461876188
 1  20.65179490939094  3.02829291259126  1.41422186268627

