%nproc=4
%Mem=2GB
# td=(NStates=1) CAM-B3LYP/6-31G(d,p) 

TD

0 1
12 -7.22780335333533  0.61995074317432 -0.00678299089909
 6 -4.90831544954495 -1.96709788818882  0.58848538123812
 6 -4.92121205010501  2.86617506480648  1.15573193809381
 6 -9.42892762826283  3.08576407190719 -0.41103396309631
 6 -9.44973528722872 -1.79306481748175 -0.86012244134413
 7 -5.14598802340234  0.46979679777978  0.62872329062906
 6 -4.36708641474147 -0.61830165216522  0.68527655085509
 6 -2.90772977837784 -0.34384381008101  1.18599895409541
 6 -3.06969040744074  1.13840650895090  1.55511624232423
 6 -4.43271026592659  1.48514926372637  1.08666569646965
 6 -2.88901398349835  1.39034132223222  3.01803321222122
 6 -1.79457291829183 -0.58774403580358 -0.00681672337234
 6 -0.36501392399240 -0.42402674987499  0.50031416071607
 6  0.65807694489449 -0.52077559045905 -0.59070445094509
 8  0.18290953105311 -0.86879228682868 -1.77848418011801
 8  1.79865167566757 -0.40002739913991 -0.28227501640164
 7 -7.16712716061606  2.63960955075508  0.30020871637164
 6 -6.17599687868787  3.40971194699470  0.86617015061506
 6 -6.48083533663366  4.87985227462746  0.81849253645365
 6 -7.77043975097510  4.91877250875087  0.43604199549955
 6 -8.20531480308031  3.51951114641464  0.04605715201520
 6 -5.45095305200520  5.96080854675468  1.15958071857186
 6 -8.58533633123312  6.08169920362036  0.23091007640764
 6 -8.51593548484849  7.28165428402840  0.84616086588659
 7 -9.14669694229423  0.64515737683768 -0.55156919061906
 6 -9.88805506520652  1.79288924202420 -0.75031135523552
 6 -11.18964806140614  1.46649498859886 -1.02660437993799
 6 -11.21600400430043  0.09885524962496 -1.12496121012101
 6 -9.86292197289729 -0.42320429472947 -0.88030304640464
 6 -12.31676049974998  2.34357492849285 -1.48009478427843
 6 -12.33796834313431 -0.79615702580258 -1.52470327882788
 6 -12.40061755015502 -1.27574998619862 -3.01073619221922
 7 -7.24494396269627 -1.41054066766677 -0.23505818281828
 6 -8.26547678747875 -2.31525669776978 -0.54899985518552
 6 -7.85630177577758 -3.66311457895790 -0.44272154945495
 6 -6.50601448554855 -3.58256259325933 -0.04846657855786
 6 -6.21421401780178 -2.20408869016902  0.09398220242024
 6 -8.58872634003400 -4.91735457785779 -0.64953343174317
 6 -5.38866333663366 -4.38953283678368  0.17623049564956
 8 -5.24867370527053 -5.56881136453645  0.17302433313331
 6 -4.19261284068407 -3.32682847264726  0.55636550185018
 6 -3.59177980888089 -3.80070529182918  1.86315668856886
 8 -3.74610621122112 -3.12066880308031  2.94068674977498
 8 -2.75257645134513 -4.78289301170117  1.77720630153015
 6 -2.25566615451545 -5.26386061516152  3.01074601010101
 6  2.78138064976498 -0.52274006860686 -1.27921912231223
 6  4.15796788578858 -0.35337351365137 -0.64946509550955
 6  5.17364084848485  0.40619688508851 -1.11493126582658
 6  5.22157058005801  1.18669131843184 -2.40556472177218
 6  6.49188352115211  0.52575442564256 -0.35719220442044
 6  7.60407794569457 -0.21440178707871 -1.01286823732373
 6  8.86584845744575 -0.19792492289229 -0.10693250605061
 6  10.24168479297930 -0.57737480918092 -0.83193416391639
 6  10.17621432163216 -2.04145508160816 -1.37461092609261
 6  11.44083696059606 -0.40369415021502  0.06025689428943
 6  12.76345125282528 -0.65104915601560 -0.58953897679768
 6  14.02455192359236 -0.18182938573857  0.22149921742174
 6  15.40388651355135 -0.21828555765577 -0.43518175797580
 6  15.77579924882488 -1.64159179297930 -0.88496811451145
 6  16.36546065196520  0.43223758375838  0.58137264446445
 6  17.87090167956795  0.44921632003200 -0.07912372697270
 6  18.86000637013701  1.21332954995500  0.81954238723872
 6  20.35984465366537  1.40102043554355  0.24431919511951
 6  20.29771112491249  2.25340363756376 -1.04967596029603
 6  21.28294922572257  1.90666360266027  1.30023538693869
 1 -4.15632711721172  3.58626414781478  1.61940652755275
 1 -10.04859525222522  3.80719155415542 -0.64554994649465
 1 -10.19065235463546 -2.64060340114011 -1.27532418461846
 1 -2.73909036593659 -0.94169248314831  2.11077176837684
 1 -2.43154675987599  1.83721730433043  1.04096474687469
 1 -1.90282473997400  0.90370082298230  3.48161187468747
 1 -2.91428648864886  2.35957001450145  3.38689085448545
 1 -3.52872631533153  0.78086277027703  3.80199261206121
 1 -1.64235672057206 -1.74448440884088 -0.38321223042304
 1 -2.09181085358536 -0.00600334993499 -1.02448248784879
 1 -0.46837035443544  0.65546015991599  1.07731813091309
 1 -0.31476927892789 -1.22137665286529  1.32658661386139
 1 -6.08682745814582  6.87336598069807  0.75907161636164
 1 -5.26465345474547  6.15851921502150  2.21509780688069
 1 -4.40833478947895  5.63291445784578  0.57968114371437
 1 -9.41102315481548  5.77690383848385 -0.39109933813381
 1 -9.43407462336233  8.03954469336934  0.70195981778178
 1 -7.93722318811881  7.20157655715572  1.82829121462146
 1 -12.06045015011501  3.16963728972897 -2.19378238293829
 1 -13.12779244844484  1.82382627382738 -2.05130632213221
 1 -12.87358909000900  2.72790144484448 -0.50644188818882
 1 -12.27442222062206 -1.76448589368937 -1.04682963786379
 1 -13.22783150205020 -0.35534227102710 -1.26334186168617
 1 -13.35728208080808 -1.75717040324032 -3.34449433393339
 1 -12.20575413961396 -0.45519005660566 -3.69960345604560
 1 -11.37990426972697 -1.90384525162516 -3.21400002000200
 1 -9.08206780978098 -4.83998474137414 -1.61289455355536
 1 -7.81035039983998 -5.62907291149115 -0.58715832883288
 1 -9.36171605650565 -5.19128414971497  0.17359553695370
 1 -3.65784648054805 -3.48630188088809 -0.33287855935594
 1 -1.72421058755876 -4.62605904560456  3.60548346364636
 1 -3.03245285388539 -5.74801641924192  3.57765060396040
 1 -1.49433754525453 -6.08833810701070  2.70708466136614
 1  2.68258756285629 -1.47141897779778 -1.69200316531653
 1  2.61738921652165  0.07182146174618 -2.09403255545555
 1  4.16792769836984 -0.90169238443844  0.37373058905891
 1  4.39737870137014  1.37699641004100 -3.19700807050705
 1  5.44477988968897  2.25653591249125 -2.35796226442644
 1  6.05977328492849  0.82610371787179 -2.87342607360736
 1  6.74426648954895  1.60313431343134 -0.12237959515952
 1  6.28639275867587  0.35840780338034  0.69708942564256
 1  7.36624400910091 -1.21341057625763 -1.27965928952895
 1  8.06607904380438  0.48622183028303 -1.85367829142914
 1  9.11553360496050  0.66790467546755  0.59514714691469
 1  8.57350583928393 -0.94126963316332  0.71629949364936
 1  10.43074062546255  0.12076461416142 -1.78349323882388
 1  9.09786477197720 -2.25998397489749 -1.88480440524052
 1  10.94412696839684 -2.52550933483348 -1.99252349624963
 1  10.11015390139014 -2.68988093009301 -0.49566900660066
 1  11.43049072997300  0.50938316851685  0.56117760526053
 1  11.36486954035404 -1.03499946124612  0.96743736533653
 1  12.99448276717672 -1.75885404660466 -0.81274894249425
 1  12.96273002550255  0.05094578557856 -1.49083244454445
 1  13.88665010171017  0.81077363336334  0.51434877787779
 1  14.20011276437644 -0.84556416111611  1.12608912541254
 1  15.39278256675667  0.43698318331833 -1.23945830383038
 1  15.91685912881288 -2.12777306940694  0.10069861596160
 1  14.83556660736074 -2.24994737033703 -1.29323673877388
 1  16.54384401380138 -1.89488501340134 -1.58540000950095
 1  15.84736993769377  1.54607244094409  0.81857840214021
 1  16.49868431563156 -0.10625980108011  1.54827758895890
 1  18.16570750945095 -0.59303585098510 -0.37292063246325
 1  17.62353941844185  0.94712203110311 -0.95104868066807
 1  18.55378617121712  2.26420057775778  1.12358036333633
 1  18.84746190649065  0.66540072107211  1.76555655595560
 1  20.65939085178518  0.50035618381838 -0.27134007000700
 1  19.89017312391239  3.27764132603260 -0.88305189858986
 1  21.50814506660666  2.53119977277728 -1.51089245254525
 1  19.71849575397540  1.81771358215822 -2.00149711871187
 1  21.29823579877988  1.40450855995600  2.08612823002300
 1  22.18529023532353  1.92338356805681  0.85499046534653
 1  20.93184291419142  3.09697978127813  1.53576401690169

