%nproc=4
%Mem=2GB
# td=(NStates=1) CAM-B3LYP/6-31G(d,p) 

TD

0 1
12 -7.15049562256226  0.66922567066707  0.09779746714671
 6 -4.88489310731073 -2.09196037443744  0.58745527822782
 6 -4.88157808670867  2.79557800510051  1.17902426732673
 6 -9.33708844434443  3.07668316381638 -0.43672653235324
 6 -9.51949226292629 -1.79257476847685 -0.86007243634363
 7 -5.05924934953495  0.33168298639864  0.60206062436244
 6 -4.39880958705871 -0.76072589458946  0.75002302550255
 6 -2.89407841324132 -0.46500592629263  1.12425277947795
 6 -3.04245768416842  0.98052072037204  1.64830556125613
 6 -4.40103709860986  1.44026477527753  1.01516854675468
 6 -2.99562464456446  1.17413970207021  3.12372378127813
 6 -1.95869933093309 -0.52021728312831 -0.10482652435244
 6 -0.57101452405241 -0.50260460766077  0.36292042134213
 6  0.56648778597860 -0.62028554145415 -0.60926630713071
 8  0.30721196129613 -0.87280268786879 -1.82884921662166
 8  1.81115292579258 -0.35385278167817 -0.29676646554655
 7 -7.11948239613961  2.64204979477948  0.30448914441444
 6 -6.14905418441844  3.37338831463146  0.81970550415041
 6 -6.37028428152815  4.73011730113011  0.71579226642664
 6 -7.64687739473947  4.89486011751175  0.38027641894189
 6 -8.07221149274928  3.52351154645465  0.11777432373237
 6 -5.44478243494349  5.90902336823682  1.17278203870387
 6 -8.53804160176018  6.09883091679168  0.09114610001000
 6 -8.41617550885089  7.29637575617562  0.72767901770177
 7 -9.12744501710171  0.62972583368337 -0.44409844354435
 6 -9.88872513221322  1.78873882698270 -0.59702602670267
 6 -11.21578067466747  1.37919625872587 -1.02834455395540
 6 -11.23991639553955  0.05482084618462 -1.20523923792379
 6 -9.80822650335034 -0.41959393369337 -0.95900091619162
 6 -12.21233005670567  2.34213478447845 -1.33011978677868
 6 -12.42852739903990 -0.66918432853285 -1.74283509200920
 6 -12.31999948834884 -0.89754216541654 -3.34680979957996
 7 -7.25760522882288 -1.35449506310631 -0.02883756075608
 6 -8.20584082388239 -2.31170634273427 -0.61105606080608
 6 -7.77572371797180 -3.64352261976198 -0.52410968826883
 6 -6.47061094519452 -3.57920225722572 -0.24283601550155
 6 -6.21691428782878 -2.27612589388939  0.15548835303530
 6 -8.67406487388739 -4.90466330873087 -0.80940941934193
 6 -5.30536500680068 -4.42360624412441  0.21583445604560
 8 -5.22857169506951 -5.66707119051905  0.37980501120112
 6 -4.18186176557656 -3.41035682548255  0.67761762706271
 6 -3.59041967286729 -3.74234945624562  2.01297167006701
 8 -3.81975357595760 -3.17353408960896  3.04614729582958
 8 -2.75735692939294 -4.67699242164216  1.95837441834183
 6 -2.24348493639364 -5.30188441754175  3.12045698119812
 6  2.86496900860086 -0.54220201480148 -1.29591079147915
 6  4.11843393239324 -0.32688086438644 -0.60928107710771
 6  5.18298178257826  0.43126939233923 -1.06158593129313
 6  5.08613703670367  1.16954960426043 -2.31992615791579
 6  6.37966229902990  0.47223907410741 -0.18926541174117
 6  7.65256279417942  0.08125777887789 -0.99472642314231
 6  8.97680955355536 -0.03398852925293 -0.13017483028303
 6  10.20978160266027 -0.55729280098010 -0.90454142464246
 6  10.15493219341934 -2.02218315441544 -1.29646311131113
 6  11.39812268916892 -0.22851663246325 -0.06325545694569
 6  12.76570147784778 -0.50413446454645 -0.61758178107811
 6  13.92785225362536 -0.01813301610161  0.22316938443844
 6  15.32233835873587 -0.17626135523552 -0.50435867566757
 6  15.63714538343834 -1.56250388418842 -0.83836345404540
 6  16.40010411631163  0.47718207820782  0.43674818201820
 6  17.75820040944094  0.65132653105311 -0.12879869446945
 6  18.87589795929593  1.30653887088709  0.74125455845585
 6  20.28403707290729  1.18859919341934  0.26093085628563
 6  20.26967832163216  1.94738303550355 -1.10678167086709
 6  21.25623655445545  1.75898883518352  1.33821918531853
 1 -4.09694117861786  3.38864438583858  1.59302388928893
 1 -10.13021341404140  4.03503433843384 -0.33659905140514
 1 -10.38340162956296 -2.36775611641164 -1.19915656785679
 1 -2.43002945984598 -1.10396871077108  1.88030872207221
 1 -2.14043764896490  1.67081066366637  1.20565121552155
 1 -1.75133959145915  0.88177863076308  3.49032274577458
 1 -3.21943700370037  2.32470652815282  3.48935110051005
 1 -3.58902234493449  0.52330701470147  3.71921433423342
 1 -1.88543102800280 -1.63700366076608 -0.72206611581158
 1 -2.20091176367637  0.35092234263426 -0.78785882548255
 1 -0.14287780518052  0.45260987488749  1.06762716181618
 1 -0.31360916291629 -1.23097761296130  1.01961591679168
 1 -5.78700747614762  6.78954759885989  0.63687939713971
 1 -5.72160915031503  6.26081944504450  2.11765806290629
 1 -4.43959791579158  5.64890605700570  1.08009118471847
 1 -9.46341839433943  5.65674182228223 -0.58258848704870
 1 -9.23527474337434  8.01641238013801  0.63526314811481
 1 -7.58741820762076  7.40023642314231  1.64285267076708
 1 -11.94501860696070  2.77359768576858 -2.22156516121612
 1 -13.11496116531653  1.97635152635263 -1.64273546504650
 1 -12.55115684678468  2.94667332203220 -0.48203944794479
 1 -12.47900267866787 -1.65211465656566 -1.42787774267427
 1 -13.35046376527653 -0.04557129392939 -1.53219874737474
 1 -13.10782713531353 -1.66897158335834 -3.69337922242224
 1 -12.35514907910791 -0.06391092869287 -3.98318181388139
 1 -11.37590386968697 -1.36077094419442 -3.42332095209521
 1 -9.08083768676868 -5.02970371327133 -1.84302756685669
 1 -8.00716008080808 -5.59620962516252 -0.55505511851185
 1 -9.49382926782678 -5.10657567886789 -0.27296911951195
 1 -3.30680137603760 -3.46430968166817 -0.13201847334733
 1 -1.72328049454946 -4.52505894559456  3.64826774207421
 1 -3.17138674727473 -5.50092170977098  3.72016485538554
 1 -1.54798290979098 -6.21384065726573  2.95674962786279
 1  2.71713101720172 -1.54282611851185 -1.78395236023602
 1  2.56214369196920  0.42822710231023 -1.89437258945895
 1  4.22685359095910 -0.92911512671267  0.33354657065707
 1  3.94751371487149  1.43164187458746 -2.54513288298830
 1  5.32560797249725  2.20427068596860 -2.16458292649265
 1  5.77167447504750  0.60140124762476 -3.03989272027203
 1  6.51789385228523  1.47494149414941  0.33670631343134
 1  6.30388450785079 -0.00705874327433  0.84020373707371
 1  7.32782016671667 -0.95095433063306 -1.38552987658766
 1  7.88623105900590  0.64067727582758 -1.76791971557156
 1  8.96365841744174  1.04528241324132  0.03931156335634
 1  8.92361084978498 -0.64446995319532  0.69474733843384
 1  10.46353390479048  0.10890342804280 -1.79516440594059
 1  9.25019000450045 -2.19698767526753 -2.07868379317932
 1  10.96504906060606 -2.47037382128213 -1.72556680058006
 1  10.02430531653165 -2.56749869186919 -0.30257969766977
 1  11.24673235413541  1.09334156435644  0.19029051655166
 1  11.29527258065807 -0.63513947524752  0.96892751435143
 1  12.83264658355836 -1.53061122232223 -0.76407407500750
 1  12.81110486298630  0.17319801080108 -1.61981534283428
 1  13.89176061276128  0.96900945694569  0.48413575657566
 1  14.02763551665167 -0.60537014171417  1.14681119761976
 1  15.05506879537954  0.46472595759576 -1.42730708870887
 1  15.57622506540654 -2.32997328942894 -0.00683213711371
 1  14.97520057075708 -2.02224460006001 -1.58465588068807
 1  16.43666329572957 -1.54181970687069 -1.26232770227023
 1  16.11480668136814  1.38632646634663  0.83571011531153
 1  16.48247269446945 -0.15532470757076  1.21555431663166
 1  18.16409734843484 -0.26560310771077 -0.62220556095610
 1  17.74668173267327  1.10856817571757 -1.12259583538354
 1  18.35155594819482  2.20218437613761  1.07600560586059
 1  18.88038519881988  0.63890807180718  1.77955795609561
 1  20.40376528922892  0.12323847204720  0.04964202820282
 1  20.11948605520552  3.01300486238624 -0.98512210561056
 1  21.25586983908391  1.99965661846185 -1.51640300360036
 1  19.43976788118812  1.68568037883788 -1.86449341834183
 1  21.27605358055806  1.10513862296230  2.14327394459446
 1  22.34831653795379  1.84081531123112  1.07635260156016
 1  20.96196592649265  2.69532961626163  1.76432687318732

