%nproc=4
%Mem=3GB
# td=(NStates=1) iop(3/107=0140000000,3/108=0140000000) CAM-B3LYP/6-31G(d,p) 

TD

0 1
12 -6.97667235893589  0.64526290979098  0.16513288328833
 6 -4.84593340984098 -1.94116134673467  0.52579798219822
 6 -4.77366339693969  2.89468818671867  1.24529463466347
 6 -9.38576534103410  3.09935748874887 -0.47263973927393
 6 -9.44699079707971 -1.71522328802880 -0.96914371927193
 7 -5.02360939213921  0.50146623722372  0.82156998099810
 6 -4.26718896619662 -0.72049319251925  0.79374726942694
 6 -2.90004622522252 -0.46913531153115  1.27264293339334
 6 -2.96622984988499  1.02846154775478  1.66282256155616
 6 -4.34788502320232  1.55556020712071  1.21613600750075
 6 -2.77151333213321  1.20330314961496  3.22653796839684
 6 -1.98087381708171 -0.72619860906091  0.08830264056406
 6 -0.51800750995100 -0.63155640364036  0.55735911821182
 6  0.51050297349735 -0.80622724462446 -0.53262305240524
 8  0.09830004680468 -1.01744552225223 -1.75201259435944
 8  1.76320491889189 -0.70028996739674 -0.15132051965197
 7 -7.09466711011101  2.67981119101910  0.40723164726473
 6 -5.95181532533253  3.38775254265427  0.78496437253725
 6 -6.35479038743874  4.83393025662566  0.86590484918492
 6 -7.64970975627563  4.93158496369637  0.39588571497150
 6 -8.12385191269127  3.55371231003100  0.04523252185219
 6 -5.36791882578258  5.92249172287229  1.18040819601960
 6 -8.51064107210721  6.16612688228823  0.21537214971497
 6 -8.33246165616562  7.32203135283528  0.82580663996400
 7 -9.06932597369737  0.70621761616162 -0.61743831773177
 6 -9.79193667996800  1.78101142544254 -0.72210502400240
 6 -11.13857781048105  1.56547599209921 -1.13771863156316
 6 -11.23315280248025  0.18897644344434 -1.28874890319032
 6 -9.89431703530353 -0.38647884128413 -1.00209241054105
 6 -12.14691562926293  2.49160440184018 -1.41087053975398
 6 -12.33056684958496 -0.67455357915792 -1.77385671627163
 6 -12.11642355125513 -1.29010920322032 -3.18740939213921
 7 -7.17357031943194 -1.31305614131413 -0.31933460856086
 6 -8.19869419571957 -2.18852739823982 -0.58492007190719
 6 -7.76584862466247 -3.60108065946595 -0.51317161696170
 6 -6.43960175067507 -3.54506748884888 -0.17644972667267
 6 -6.19010274197420 -2.17061501730173  0.07059889528953
 6 -8.62672501200120 -4.82928902730273 -0.73502688578858
 6 -5.26849231213121 -4.35342890629063  0.13064803890389
 8 -5.12704369666967 -5.53216007300730  0.16464241284128
 6 -4.16579108170817 -3.29973742114211  0.44277259885989
 6 -3.63426760356036 -3.73753169586959  1.85498146664666
 8 -3.76029881328133 -3.11405876377638  2.93335669386939
 8 -2.85408076087609 -4.80725934443444  1.79110814831483
 6 -2.24579353635364 -5.25097030293029  3.02180958135814
 6  2.70394671507151 -0.82309059795980 -1.22784630183018
 6  3.99537042224222 -0.52601786968697 -0.59141170397040
 6  4.95029052035204  0.35358188618862 -0.95188806580658
 6  4.76337006260626  1.13042071737174 -2.27062119711971
 6  6.35885216391639  0.54264488048805 -0.33613413781378
 6  7.48129958255826 -0.30225877387739 -0.96616694539454
 6  8.78096580818082 -0.24962677877788 -0.20510661306131
 6  10.07407286788679 -0.55035669886989 -0.86929264926493
 6  10.06853012961296 -2.02481036093609 -1.20700766676668
 6  11.34908957275728 -0.25494038513851 -0.04277223972397
 6  12.68519625512551 -0.32853288678868 -0.78386589168917
 6  13.90049132093209 -0.01940765506551  0.07410382198220
 6  15.27923391439144 -0.12727181078108 -0.59615526802680
 6  15.72248851985199 -1.60102849114912 -0.93494532083208
 6  16.42015900860086  0.40972749004900  0.35134986968697
 6  17.76222381008101  0.52502623222322 -0.14613114011401
 6  18.73125354395440  1.21052913141314  0.83332658935894
 6  20.23458626302630  1.36616604910491  0.36037274327433
 6  20.36947979377938  2.15116242134213 -1.04249894579458
 6  21.09948501550155  2.04318601850185  1.39925386538654
 1 -3.95185554905491  3.63784703610361  1.55663175897590
 1 -10.21819394269427  3.81465373987399 -0.45240976717672
 1 -10.06497092119212 -2.59490502560256 -1.13935175457546
 1 -2.46023331053105 -1.03760396309631  2.19524601530153
 1 -2.19927339363936  1.68848090919092  1.23993764276428
 1 -1.74064715111511  0.76351545794579  3.62900323772377
 1 -2.99445655475548  2.23474269706971  3.61998002020202
 1 -3.61840464096410  0.73286844114411  3.72560424562456
 1 -2.03601872087209 -1.65414608540854 -0.52840084718472
 1 -2.32757912691269  0.13466108590859 -0.63528026262626
 1 -0.33722915161516  0.43673326062606  0.80673453645365
 1 -0.38868728902890 -1.04872563916392  1.57147060536054
 1 -5.35799997769777  6.75125263726373  0.48031786308631
 1 -5.47422889418942  6.18434131553155  2.28938095059506
 1 -4.22823766836684  5.43328759675968  1.29079981258126
 1 -9.44088434823482  5.94377775977598 -0.78552990569057
 1 -9.15573463716372  8.01081080208021  0.49616939263926
 1 -7.45289322142214  7.49992682908291  1.57220618091809
 1 -12.08187866086609  3.25355450255026 -2.24017984948495
 1 -13.11980927862786  1.98612735513551 -1.57338306650665
 1 -12.42156318901890  3.12795012911291 -0.64411485098510
 1 -12.32542450735073 -1.74664558735874 -1.03161666256626
 1 -13.39110140924092 -0.37392010251025 -1.82345810021002
 1 -12.65185038423842 -2.34295795789579 -3.45134609270927
 1 -12.25752615831583 -0.32131060236024 -3.79541852025202
 1 -10.97565240464046 -1.62737376457646 -3.34289256745675
 1 -9.16427104570457 -5.14016051685169 -1.69091515451545
 1 -7.84151853705370 -5.59783573687369 -0.53613356845685
 1 -9.43051723072307 -4.92812126052605  0.06503423472347
 1 -3.40503802230223 -3.46842344794479 -0.34803254135413
 1 -1.91670505810581 -4.30856306970697  3.57472919051905
 1 -3.03285972327233 -5.62076160106011  3.55989702740274
 1 -1.53473399389939 -6.04093487828783  2.95716907800780
 1  2.61221927672767 -1.94282090489049 -1.53416486518652
 1  2.39278571987199 -0.28429034423442 -2.14488554605461
 1  4.44085457215722 -0.94951336513651  0.24520592079208
 1  3.74596990849085  1.11046658935894 -2.64584507020702
 1  5.09933686588659  2.12861328522852 -2.27110454885489
 1  5.40924049254926  0.46572776367637 -3.05295155205521
 1  6.53021120502050  1.63316329692969 -0.31138152425243
 1  6.40109798189819  0.18691135443544  0.74836103160316
 1  7.17159928272827 -1.42638331133113 -1.06162091929193
 1  7.52013457195720  0.00481958495850 -1.97701852475248
 1  8.89390543484348  0.96027552505251 -0.14680225212521
 1  8.69608272907291 -0.78017637033703  0.65552167556756
 1  10.22414704650465  0.01997814561456 -1.75522068006801
 1  8.95496510561056 -2.42351063456346 -1.53830221212121
 1  10.92998213881388 -2.29192259155916 -1.86956231433143
 1  10.18400059715972 -2.72858697339734 -0.18667606130613
 1  11.15998764036404  0.73545997939794  0.19354712551255
 1  11.33585118061806 -1.19320061766177  0.81797811791179
 1  12.68078603110311 -1.47236465576558 -1.05182745424542
 1  12.71345717561756  0.12337727372737 -1.82353668736874
 1  13.77494891519152  1.16800216351635  0.19555438413841
 1  13.77943625422542 -0.52487886678668  1.02236461046105
 1  15.30259066046605  0.36814021102110 -1.52423369216922
 1  15.61265506230623 -2.17621696289629  0.01915377987799
 1  14.97322896729673 -2.22915743574357 -1.57706908040804
 1  16.53747202680268 -1.72184308130813 -1.33330984428443
 1  15.91641491499150  1.41415974967497  0.87183309960996
 1  16.20164424222422 -0.10958724352435  1.34071256595660
 1  18.28198493619362 -0.40811732573257 -0.26769696529653
 1  17.82397970757076  1.01743063716372 -1.11796754035404
 1  18.41489054595460  2.24925619361936  1.04449639643964
 1  18.93584954745475  0.97816265576558  1.75375862136214
 1  20.57167700000000  0.48447944554456  0.14789068126813
 1  19.96713353185319  3.05455623212321 -0.88803098779878
 1  21.39920372117212  2.17409855195520 -1.44240222142214
 1  19.58016641424143  1.65366565676568 -1.78721710611061
 1  20.93018687218722  1.33759940084008  2.34233790259026
 1  22.07314520732073  2.21351182188219  1.10598725232523
 1  20.63200327882788  3.08858497569757  1.64123125982598

