%nproc=4
%Mem=2GB
# td=(NStates=1) CAM-B3LYP/6-31G(d,p) 

TD

0 1
<<<<<<< HEAD
12 -7.05324589758976  0.56647539563956 -0.00703301590159
 6 -4.84872949094909 -1.95225640404040  0.55110164286429
 6 -4.77869779867987  2.87734618191819  1.03896026092609
 6 -9.38151288678868  3.09499499499950 -0.52162502220222
 6 -9.48159847354736 -1.69280479147915 -0.79729615871587
 7 -5.10015343994399  0.51395121322132  0.70097051535154
 6 -4.34814452055206 -0.75887570957096  0.84205222842284
 6 -2.91007001240124 -0.41858128382838  1.19977033123312
 6 -3.01505494389439  1.06173884218422  1.57182791349135
 6 -4.36680367526753  1.51416216501650  1.07599462936294
 6 -2.83976905900590  1.27443973207321  3.08004941384138
 6 -1.96367982898290 -0.63841910331033  0.00439439773977
 6 -0.51956937953795 -0.46678102530253  0.39180330963096
 6  0.52964410161016 -0.84920843374337 -0.63702908340834
 8  0.23666490659066 -1.06020142774277 -1.80256658835884
 8  1.80564237473747 -0.67702509890989 -0.18468525742574
 7 -7.07482793069307  2.64594018381838  0.33576227172717
 6 -6.01717099609961  3.43277425322532  0.79754328792879
 6 -6.40664791789179  4.81092538193819  0.72320300750075
 6 -7.74695740274027  4.88190882238224  0.29589798109811
 6 -8.13025729732973  3.52538173347335 -0.00018747244724
 6 -5.57218517521752  5.91040350625063  1.14419918041804
 6 -8.62449024662466  6.03989502320232  0.28654563996400
 6 -8.45189908120812  7.23357947654765  0.90001625142514
 7 -9.10351262386239  0.66446930803080 -0.51110514421442
 6 -9.81702796249625  1.83585353845385 -0.63451977607761
 6 -11.20998009460946  1.44944328342834 -1.05595731523152
 6 -11.25085748964896  0.11694705880588 -1.20873958795880
 6 -9.86293197389739 -0.42040401470147 -0.84648966506651
 6 -12.26895571927193  2.54173474447445 -1.31657843264326
 6 -12.30026457275728 -0.73023043314331 -1.77982879137914
 6 -12.19996748514852 -0.97258967016702 -3.25444056265627
 7 -7.22461192949295 -1.33921353495350 -0.15447012401240
 6 -8.23007324712471 -2.24844001610161 -0.47406236143614
 6 -7.84890103570357 -3.65587385488549 -0.50163744104410
 6 -6.55050893499350 -3.59614395139514 -0.03251498339834
 6 -6.15953855025503 -2.12237051835184  0.19600240444044
 6 -8.58654612201220 -4.88763160556056 -0.95784426282628
 6 -5.40179464976498 -4.35921980548055  0.26013888648865
 8 -5.16018485638564 -5.53564804820482  0.24544157485749
 6 -4.21692527192719 -3.35623141294129  0.60573043834383
 6 -3.49944057495750 -3.72305752705271  1.99914028692869
 8 -3.79426102670267 -3.10293702990299  3.01976465756576
 8 -2.70025121882188 -4.70857557995800  1.84484306520652
 6 -2.08438902680268 -5.21081531063106  3.08287322282228
 6  2.82047455915592 -0.87180497509751 -1.15786698709871
 6  4.09638172717272 -0.61050922722272 -0.47036718571857
 6  5.04745823022302  0.27079334473447 -1.02193196589659
 6  4.88315673867387  1.21599424872487 -2.22999716501650
 6  6.41899623242324  0.32865471567157 -0.43947043224322
 6  7.56172371027103 -0.30686103300330 -1.17299424992499
 6  8.87137901050105 -0.15821095149515 -0.18849066186619
 6  10.22921354585458 -0.57904497619762 -0.95782675317532
 6  10.16976367656766 -2.06139707580758 -1.38817228222822
 6  11.44297717461746 -0.23087686848685 -0.12029116051605
 6  12.81402631033103 -0.36932098319832 -0.73446346924692
 6  13.96474594299430 -0.01345254805481  0.16431349884988
 6  15.28291441634163 -0.06636036513651 -0.52262050185018
 6  15.61850351925193 -1.55946358015802 -0.87015663336334
 6  16.34304841074107  0.52995735573557  0.31810631783178
 6  17.80150473987399  0.48216961536154 -0.12617843244324
 6  18.74443481298130  1.21614983198320  0.84808524152415
 6  20.25690435963596  1.42222255575558  0.32909767296730
 6  20.34086544034404  2.26722501970197 -0.93285427812781
 6  21.17616854765477  1.92473540984098  1.50078544194419
 1 -4.00489197369737  3.69892541394139  1.26240082698270
 1 -10.10827121982198  3.88863969896990 -0.67705309680968
 1 -10.49582287168717 -2.26456579737974 -1.33444009620962
 1 -2.78163462036204 -0.96178449234924  2.05825651685169
 1 -2.13376698189819  1.72975655825583  0.98951960236024
 1 -1.82889734723472  1.03501395429543  3.36923063656366
 1 -2.77222228222822  2.35332939043904  3.42786495189519
 1 -3.51073451615162  0.79522420642064  3.79305171797180
 1 -1.85489797469747 -1.67768772917292 -0.17469137833783
 1 -2.37436910941094 -0.17267001660166 -0.83729376897690
 1 -0.24400791819182  0.55556016991699  0.85263566266627
 1 -0.09725752775278 -1.08158267346735  1.20182413761376
 1 -5.64247302270227  6.83001164526453  0.61667737693769
 1 -5.68746573597360  6.12739610271027  2.20059635673567
 1 -4.58633258925893  5.50492165856586  1.07338051365136
 1 -9.40610266276628  5.99074522262226 -0.49254948314832
 1 -9.00044126002600  8.09918065696570  0.81827144894489
 1 -7.50211967776778  7.17709410891089  1.58993737923792
 1 -11.84334843994399  3.51437176317632 -1.99498250295030
 1 -13.20209987918792  2.26180007120712 -1.67458865036504
 1 -12.23140487158716  2.98462711741174 -0.37389863386339
 1 -12.57557233563356 -1.57140658575858 -1.15329028392839
 1 -13.36501522042204 -0.31874861166117 -1.65587111461146
 1 -13.10423677627763 -1.48154284048405 -3.58453833833383
 1 -12.28092165636564 -0.05681021862186 -3.78893238893889
 1 -11.33046932623262 -1.74339920702070 -3.40262888288829
 1 -8.87950755375538 -5.13491423432343 -1.97920118421842
 1 -7.91580094489449 -5.76873687788779 -0.46975658865887
 1 -9.36971685658566 -4.92266728802880 -0.21360318291829
 1 -3.63820451635163 -3.56584983568357 -0.08799407090709
 1 -1.34315248174818 -4.57926436613661  3.59985290059006
 1 -2.88408801740174 -5.36148776637664  3.91273411231123
 1 -1.62460057155716 -6.22186145934594  2.94218817171717
 1  2.92764206830683 -1.82320415631563 -1.79589355435544
 1  2.96909438703870  0.03402768236824 -2.01738489068907
 1  4.44787569316932 -1.21188340354035  0.46741995799580
 1  3.88032699619962  1.30079879027903 -2.58983735343534
 1  5.10031544324432  2.25985624452445 -1.91867833603360
 1  5.43340064766477  0.98863997149715 -3.15030376137614
 1  6.55758782168217  1.41172517251725 -0.05310266746675
 1  6.50718483788379 -0.24192222962296  0.42665238193819
 1  7.22503988868887 -1.30494973017302 -1.44586591019102
 1  7.70045248114811  0.17106031413141 -1.90370329392939
 1  9.06353840544054  0.87118500350035  0.31987962016202
 1  8.60006849554956 -0.85020052625263  0.68615647934793
 1  10.35129268066807 -0.13351081338134 -2.06388127762776
 1  9.27576256175618 -2.26936491299130 -2.01137706250625
 1  11.00896345204520 -2.34987177107711 -2.09905414931493
 1  10.06435932193219 -2.79503144514451 -0.72233167286729
 1  11.34965264616462  0.80599282948295  0.14920640814081
 1  11.26567962136214 -0.83370933223322  0.87336795839584
 1  12.93403672257226 -1.48011617281728 -1.05221288888889
 1  12.77381113361336  0.18236892789279 -1.77274063536354
 1  13.65533697039704  1.04318687468747  0.46798414141414
 1  13.65234798789879 -0.75952555725573  0.91066758325833
 1  15.14059734823482  0.35191467646765 -1.37168152615262
 1  15.74865230813081 -2.14634492659266  0.22779132523252
 1  14.88136118681868 -2.13062543814381 -1.43009042414241
 1  16.63874350375038 -1.46317184208421 -1.44251572107211
 1  15.99064426512651  1.53080091379138  0.77902444674467
 1  16.47362180938094 -0.06122529762976  1.34415717691769
 1  18.01664260296030 -0.51766831423142 -0.35790913131313
 1  17.70300736523653  1.10927824672467 -0.98389196499650
 1  18.22428322092209  2.18541269896990  1.17030503580358
 1  18.81882904320432  0.58638281928193  1.87221722202220
 1  20.54043895659566  0.38550469866987  0.00685774977498
 1  19.89482358895889  3.12230579247925 -0.80970456385639
 1  21.27749200130013  2.34069072187219 -1.43409477277728
 1  19.80974487888789  1.88928073887389 -1.64485145414541
 1  20.78190416561656  1.37711582068207  2.38793841104110
 1  22.13841554785478  2.09749097879788  1.25000996729673
 1  20.94076380628063  3.04652473577358  1.61774221472147
=======
12 -7.15146571957196  0.60998974707471 -0.05804811741174
 6 -4.81580619861986 -1.89358053645365  0.52448898159816
 6 -4.85232516141614  2.82024047134713  1.13928029292929
 6 -9.38616335183518  3.14791028652865 -0.41066392609261
 6 -9.57099741344135 -1.73859937093709 -0.88776520562056
 7 -5.07079050365036  0.41049086718672  0.73334375267527
 6 -4.30948065416542 -0.60359018101810  0.87753577677768
 6 -2.94855386078608 -0.24495392109211  1.20696105030503
 6 -3.04464790319032  1.15670833913391  1.67313804450445
 6 -4.40319731463146  1.51157190599060  1.17442447234723
 6 -2.99654473657366  1.24617690579058  3.27894930383038
 6 -1.97351081208121 -0.54717997939794  0.15546950525053
 6 -0.44443186578658 -0.39888423562356  0.66760088938894
 6  0.46460759795980 -0.71027454035404 -0.46011139163916
 8  0.15739697979798 -1.00598600620062 -1.62120845254525
 8  1.74360617111711 -0.39720711711171 -0.14694148304830
 7 -7.05063551145115  2.56218180798080  0.18393708920892
 6 -6.09464874387439  3.42348332413241  0.78335186878688
 6 -6.44207146024602  4.81477576697670  0.94348503570357
 6 -7.70232293929393  4.88096872837284  0.39347773907391
 6 -8.11951622322232  3.45922511781178  0.00343288958896
 6 -5.52124008070807  5.84774724062406  1.27741250175017
 6 -8.65206300390039  6.04685571927193  0.17874485988599
 6 -8.51179507080708  7.16402252085209  0.81345759555956
 7 -9.09024129672967  0.62048490959096 -0.65637967166717
 6 -9.82943920362036  1.78785873897390 -0.69092541664166
 6 -11.14254335093509  1.49016735583558 -1.12748446794679
 6 -11.15866827072707  0.09044440854085 -1.29361807580758
 6 -9.87299297999800 -0.38090006430643 -0.96008102420242
 6 -12.24152297599760  2.35797636863686 -1.42304907970797
 6 -12.33219776607661 -0.71943935403540 -1.78597940644064
 6 -12.36775426382638 -1.22341475267527 -3.22014713331333
 7 -7.17705717401740 -1.40809042264226 -0.21886656365637
 6 -8.26911715151515 -2.16250142224222 -0.63765872107211
 6 -7.79491563716372 -3.56348461596160 -0.47254453175318
 6 -6.43148703280328 -3.54050838783878 -0.09539127102710
 6 -6.12724532093209 -2.18584686598660  0.01501430563056
 6 -8.57681514891489 -4.80481332373237 -0.66421489988999
 6 -5.26310078037804 -4.29753363686369  0.19106197879788
 8 -5.12507134503450 -5.52559704310431  0.16811384208421
 6 -4.01594517391739 -3.19782557235724  0.50736060136014
 6 -3.40902153305331 -3.60149537083708  1.82770314321432
 8 -3.49609120972097 -3.03649038523852  2.92699538063806
 8 -2.70568176187619 -4.81267598999900  1.72871145204520
 6 -1.93445403330333 -5.20126435553555  2.91777671317132
 6  2.77421993369337 -0.75946374097410 -1.08982018241824
 6  4.12634472347235 -0.37144532083208 -0.39755990499050
 6  5.08065154955495  0.37985425082508 -0.91673144584458
 6  4.88814723772377  1.15486813611361 -2.22605677097710
 6  6.39406373917392  0.39813166336634 -0.25581206640664
 6  7.58872641054105 -0.14928527542754 -1.01564851535154
 6  8.93010488308831 -0.07791292169217 -0.27367918071807
 6  10.22946357085709 -0.64897196889689 -0.98652962346235
 6  10.07305400560056 -2.15981691779178 -1.31824528952895
 6  11.47160003690369 -0.40973475427543 -0.03269240064006
 6  12.81393630133013 -0.61040509160916 -0.75535555845585
 6  13.93932340074007 -0.35571677447745  0.23401046854685
 6  15.29965609050905 -0.36807053615362 -0.47813605340534
 6  15.73968563746375 -1.77238487228723 -0.79910952865287
 6  16.31942604850485  0.40750511051105  0.49785429262926
 6  17.81739632903290  0.44336573497350 -0.14915072967297
 6  18.65657602710271  1.38247646464646  0.73071350435043
 6  20.05023369256925  1.45089542304230  0.15328009120912
 6  20.31748310211021  2.30885918311831 -1.11473246594659
 6  20.91134206500650  2.06990992729273  1.24190955435544
 1 -4.17210869536954  3.50217573897390  1.61006559345935
 1 -10.14719511221122  3.85450628562856 -0.27901329282928
 1 -10.40725401480148 -2.42644198499850 -1.21285793799380
 1 -2.80499695659566 -0.90529884378438  1.97249794099410
 1 -2.35897950315031  2.05704928752875  1.10533118351835
 1 -2.12366682418242  0.71399185208521  3.63396711021102
 1 -3.20221528152815  2.31390544804480  3.45761792719272
 1 -3.86693013571357  0.62334701870187  3.70766317911791
 1 -2.05691817671767 -1.52286224662466 -0.10889479867987
 1 -1.89744141664166  0.29937718811881 -0.59218925852585
 1 -0.25758927632763  0.47547216111611  1.10766116521652
 1 -0.22481028302830 -1.03313782898290  1.45772972817282
 1 -5.69674845024502  6.79450809490949  0.79441515071507
 1 -5.69660665006501  6.08316167926793  2.37863416051605
 1 -4.59852380838084  5.57196836323632  0.88683185878588
 1 -9.38926097859786  5.77874402250225 -0.39371960016002
 1 -9.19786100200020  7.86542728162816  0.48926854865487
 1 -7.66055552135214  7.30787718721872  1.50305869136914
 1 -12.04704880998100  3.08913923992399 -2.30366337103710
 1 -13.15201487068707  1.81697558875888 -1.71004219571957
 1 -12.53377510861086  3.22028068276828 -0.62887413141314
 1 -12.13003778217822 -1.66498594369437 -1.31044599949995
 1 -13.36031475037504 -0.42509924672467 -1.58044357185719
 1 -13.43187954055406 -1.45077976417642 -3.34779466396640
 1 -12.11745530973097 -0.45276981458146 -3.72054555025503
 1 -11.49956623592359 -1.93387825492549 -3.44500312031203
 1 -8.98027763076308 -4.88296903980398 -1.67790105420542
 1 -8.04494385918592 -5.65472547674768 -0.56399601260126
 1 -9.26153603850385 -4.91044606590659  0.08370654805481
 1 -3.24886558245825 -3.28792204290429 -0.39706497799780
 1 -1.47982614911491 -4.29527596729673  3.23660657595760
 1 -2.68523813241324 -5.57713933153315  3.61287412631263
 1 -1.29485759725973 -5.99208848204820  2.47232118501850
 1  2.66739604370437 -1.95951778767877 -1.28269223422342
 1  2.47422490009001 -0.23803952435244 -1.98533168536854
 1  4.36117702330233 -1.13904611981198  0.53119633563356
 1  3.87482644614461  0.91911062146215 -2.72466083578358
 1  5.03016842854285  2.22461272017202 -1.96377284548455
 1  5.64059136673667  1.10450155765577 -3.06431516251625
 1  6.76237830073007  1.42230623062306 -0.07814517171717
 1  6.37701182058206 -0.13336137353735  0.79701941864186
 1  7.60150753545355 -1.31258049324932 -1.17027835143514
 1  7.63071550745074  0.22156536463646 -2.04389731333133
 1  9.08125017661766  0.91683956895690 -0.09148151595159
 1  8.86610509920992 -0.89215472167217  0.55422328602860
 1  10.54821237263726 -0.04414187648765 -1.84081897139714
 1  9.13476846234623 -2.38113609010901 -1.96512243704370
 1  10.81262381808181 -2.51028781268127 -1.74649889378938
 1  9.85733861986199 -2.68415035703570 -0.26406584628463
 1  11.35808348924892  0.67594982518252  0.34098558605861
 1  11.27664071747175 -1.03593955525553  0.72900352195220
 1  12.85178849774977 -1.63121128232823 -0.85573324092409
 1  12.90026377887789  0.09991068206821 -1.72532589388939
 1  13.86842827952795  0.50468302430243  0.64385172817282
 1  14.06616937003700 -1.16217582228223  1.03748026452645
 1  15.25685897439744  0.13866335133513 -1.34271862986299
 1  15.84499194209421 -2.50750104220422  0.11101964806481
 1  14.91697474817482 -2.31411378697870 -1.41882929802980
 1  16.58865849524953 -1.70798632353235 -1.41665313481348
 1  15.99697489818982  1.54121195489549  0.27777432173217
 1  16.46716116331633 -0.15073424852485  1.34675743694369
 1  18.28199913861386 -0.65269181658166 -0.11578491889189
 1  17.81921898639864  0.63229054795480 -1.28644222002200
 1  18.26037683028303  2.24452861056106  0.68763676897690
 1  18.78452561286129  1.13243742474247  1.71953195349535
 1  20.47243215591559  0.61157730593059  0.13568063206321
 1  19.64861896849685  3.32890645254525 -0.97387098049805
 1  21.35873012511251  2.52449910271027 -1.15334669796980
 1  19.88752265666567  1.70596240704070 -2.10113708270827
 1  20.83742971817182  1.57179528862886  2.28776839403940
 1  22.01955366166617  2.19364059375938  1.09329429572957
 1  20.70866059595960  3.09599968326833  1.41956239673967
>>>>>>> 8e03b5b5abfc0030b3aa597dc0de36371bfbd096

