%nproc=4
%Mem=2GB
# td=(NStates=1) CAM-B3LYP/6-31G(d,p) 

TD

0 1
12 -7.13424399739974  0.55572432053205  0.05715340274027
 6 -4.84574919291929 -1.96943812221222  0.63317985068507
 6 -4.93422335123512  2.88133658095810  1.16430279517952
 6 -9.47713244874487  3.11199669516952 -0.33190605030503
 6 -9.49378969266927 -1.82815832683268 -1.00556698579858
 7 -5.15235866046605  0.47666748484848  0.66912733103310
 6 -4.41254096019602 -0.72497231923192  0.87691571477148
 6 -3.01140014541454 -0.37266669236924  1.26019637383738
 6 -3.05277871627163  1.07202987128713  1.66759749044904
 6 -4.46639363426343  1.60241098989899  1.14855188508851
 6 -2.81782686478648  1.41972426052605  3.14652606150615
 6 -1.95292875387539 -0.54675993739374  0.12198615691569
 6 -0.41248867146715 -0.32460680788079  0.52597672697270
 6  0.54925606280628 -0.58834234713471 -0.53596897739774
 8  0.23595483558356 -0.78350375797580 -1.69193552525253
 8  1.83545535603560 -0.64470186658666 -0.06732352125213
 7 -7.21804225212521  2.68639422922292  0.34201289678968
 6 -6.17469674867487  3.41772274807481  0.79657319091909
 6 -6.49627688078808  4.78066235563556  0.72965365256526
 6 -7.78218092509251  4.85160579207921  0.31421981328133
 6 -8.28771304290429  3.47543673897390  0.08213075937594
 6 -5.61562951965197  6.00060252615262  1.11191595209521
 6 -8.59934773237324  6.06567760146015  0.20942792819282
 6 -8.44651854315432  7.21163728232823  0.91249749954996
 7 -9.18064033663366  0.67046990809081 -0.45845987968797
 6 -9.94355061476148  1.77420737383738 -0.61268759285929
 6 -11.23543263986399  1.39495783488349 -1.04942666216622
 6 -11.28461086498650  0.01706707080708 -1.32165087908791
 6 -9.92751843254325 -0.35923789808981 -0.95322033813381
 6 -12.35709453315332  2.51586215721572 -1.41490826562656
 6 -12.41737628392839 -0.72896030613061 -1.91491229972997
 6 -12.04444193259326 -1.28706111731173 -3.35953107170717
 7 -7.18553802210221 -1.36455606920692 -0.17078175517552
 6 -8.22754299409941 -2.32736790889089 -0.70702565776578
 6 -7.75257140274027 -3.67743601110111 -0.57427470477048
 6 -6.42949683378338 -3.63331766876688 -0.11489322122212
 6 -6.15720831723172 -2.17817609890989  0.11103390759076
 6 -8.63430089748975 -4.80925376777678 -1.06560503890389
 6 -5.27323179347935 -4.31745562906291  0.18011088368837
 8 -5.09986882478248 -5.53014749814981  0.17674470517052
 6 -4.19595317471747 -3.31294708450845  0.61069093439344
 6 -3.60184081498150 -3.63004822612261  2.06054642754275
 8 -3.91400300090009 -3.09136587278728  3.07322000310031
 8 -2.78909010271027 -4.66789151155116  1.81226980788079
 6 -2.39806039393939 -5.28723295239524  3.11772670817082
 6  2.89982249394939 -0.78848664326433 -1.07374857525753
 6  4.16942903190319 -0.51473965026503 -0.40870101910191
 6  5.14907839223922  0.24527079247925 -0.80777054975498
 6  5.17854627762776  1.20492314161416 -2.13028719401940
 6  6.54415874867487  0.35300715091509 -0.13300978617862
 6  7.74370190809081 -0.02511285818582 -0.92991994249425
 6  9.06284815741574 -0.16232136253625 -0.13879569236924
 6  10.22507313181318 -0.65146221792179 -0.85240621112111
 6  10.13693039323932 -2.12308324442444 -1.22184564956496
 6  11.50983386028603 -0.45980976177618 -0.05687481888189
 6  12.83032794049405 -0.63505755685569 -0.77632765566557
 6  14.02519198759876 -0.11804300710071  0.06129319681968
 6  15.37636376127613 -0.18163189228923 -0.55189342914291
 6  15.78558022692269 -1.52062969676968 -1.08977859555956
 6  16.45577968386839  0.41774613461346  0.33115762296230
 6  17.86128071747175  0.54595599399940 -0.30948676327633
 6  18.78738910841084  1.28223644064406  0.62972340534053
 6  20.22469113831383  1.41583191669167  0.22446720992099
 6  20.33821517531753  2.11979027622762 -1.18401939463946
 6  21.12037296809681  2.03853678997900  1.40750611401140
 1 -4.18317980248025  3.61830735213521  1.49565415231523
 1 -10.15879627232723  3.96689752475248 -0.54791018251825
 1 -10.42128541794179 -2.59270861166117 -1.08718537073707
 1 -2.68776523342334 -1.03147146104610  2.05741643284328
 1 -2.25016862206221  1.59712329492949  1.03387403780378
 1 -1.78939339683968  1.11058151105111  3.62423613711371
 1 -2.54409946994699  2.55850990849085  3.48980114551455
 1 -3.81589503220322  1.17192187618762  3.81979439223922
 1 -2.02987547244724 -1.63201316171617 -0.25967987718772
 1 -2.12767443994399 -0.00814356395640 -0.98133817341734
 1 -0.18816233363336  0.77760237413741  0.80734113321332
 1 -0.11702950495050 -1.02776729192919  1.24437839303930
 1 -5.89255803120312  6.79412805690569  0.38263397259726
 1 -5.83788077747775  6.15850921402140  2.09888618571857
 1 -4.64625858185819  5.80367153355335  0.80121329692969
 1 -9.49729178167817  5.95960210831083 -0.52995322352235
 1 -9.01179239513951  8.17960869976998  0.74150377217722
 1 -7.63399286508651  7.20183658315832  1.67963634913491
 1 -12.07769187428743  3.09011933793379 -2.13723672837284
 1 -13.28777844704470  2.08637252845284 -1.86505769726973
 1 -12.77972970407041  2.94646330103010 -0.52778402240224
 1 -12.49635441384139 -1.61709115421542 -1.23573852875288
 1 -13.43917263616362 -0.25893263006301 -1.83586911441144
 1 -12.76397274987499 -2.02083676987699 -3.65113499799980
 1 -12.13073663786379 -0.46011054865487 -3.88881237693769
 1 -10.87385366466647 -1.65243011011101 -3.41270989098910
 1 -8.81766136913691 -4.71840258315832 -2.09969323342334
 1 -8.22069143394339 -5.89384938913891 -0.94901451445145
 1 -9.55963584848485 -4.67218223952395 -0.66948877147715
 1 -3.32327302320232 -3.37429067976798 -0.10114538603860
 1 -1.76971513801380 -4.66033247294730  3.74711762706271
 1 -3.23912352095209 -5.51342295989599  3.85626846574658
 1 -1.90972908440844 -6.17523679687969  2.76417036993699
 1  2.78150745484548 -1.81761359725973 -1.37204116911691
 1  2.64903238083808 -0.18823454385439 -2.00516366856686
 1  4.17418832443244 -0.94786700190019  0.67526074207421
 1  4.32087105060506  1.14464317471747 -2.61870023972397
 1  5.21513692539254  2.20274053295330 -1.73868033623362
 1  6.11620892849285  0.97785889338934 -2.70186891789179
 1  6.54693675657566  1.36121012101210  0.33904654745475
 1  6.49374349374937 -0.36799483688369  0.72144186088609
 1  7.42372975767577 -0.95438467366737 -1.33524484808481
 1  7.81420385628563  0.59681288938894 -1.77955087868787
 1  9.08579063066307  0.79851773677368  0.38460609280928
 1  9.03382187088709 -0.88435394159416  0.62171003470347
 1  10.32966051745174  0.09210174787479 -1.75783067256726
 1  9.20741572707271 -2.19554753125313 -1.67759368416842
 1  10.98249080478048 -2.67498428232823 -2.01971621552155
 1  10.15177806380638 -2.90153209520952 -0.39487892759276
 1  11.58464614551455  0.42953518371837  0.42748423592359
 1  11.40979403280328 -0.92996895819582  0.86698732033203
 1  12.88036135503550 -1.72727088828883 -1.02933060066007
 1  12.92165591809181  0.00931162216222 -1.68264162546255
 1  13.87142857955796  0.77022957895790  0.63816115911591
 1  14.11638439153915 -0.92583218791879  0.97889440594059
 1  15.36581987048705  0.43933341834183 -1.48946330433043
 1  15.70187763066307 -2.32887317941794 -0.57915936983698
 1  15.27468051875188 -1.97991036663666 -1.77893530863086
 1  16.71978160756076 -1.37023254815481 -1.60489195869587
 1  16.22664786548655  1.42114994869487  0.78055459975998
 1  16.36691113831383 -0.29335851095110  1.22151491269127
 1  18.19642058075808 -0.37136368376838 -0.72119545994599
 1  17.93765082958296  1.06358367726773 -1.30827440324032
 1  18.37189798239824  2.34207836553655  0.76238424372437
 1  18.75042220252025  0.83181736273627  1.70278027832783
 1  20.53668858155816  0.31088723692369  0.15877294129413
 1  19.90657476407641  2.93804736663666 -1.22871646504650
 1  21.42360661276128  2.41354800760076 -1.15018638193819
 1  20.14849875427543  1.37922973377338 -2.15116208520852
 1  20.86824279947995  1.44365247434744  2.34733435063506
 1  22.07392909920992  1.85152638233823  1.16930189648965
 1  20.99598932883288  3.08631871517152  1.61892233273327

