%nproc=4
%Mem=2GB
# td=(NStates=1) CAM-B3LYP/6-31G(d,p) 

TD

0 1
12 -7.08687926092609  0.55764451255126  0.11918960636064
 6 -4.87150176817682 -1.86866804520452  0.56982351505151
 6 -4.83021295019502  2.82272071937194  1.08460482538254
 6 -9.42613734923492  3.10030552605261 -0.34944780448045
 6 -9.46299661336134 -1.74183969496950 -1.00617704680468
 7 -5.12735616021602  0.37521733983398  0.70835125342534
 6 -4.31793149924993 -0.66956677867787  0.85038306150615
 6 -2.90513951935193 -0.39255868156816  1.32202255645565
 6 -3.04234767316732  1.04767743604360  1.73230396109611
 6 -4.30788778367837  1.49642039083908  1.06006303620362
 6 -2.96731181328133  1.36224851295130  3.25619702860286
 6 -1.88434189518952 -0.58660392179218  0.17492145044504
 6 -0.39586700930093 -0.60524487168717  0.56478060736074
 6  0.53317445464546 -0.69364287718772 -0.53982936343634
 8  0.17406864696470 -0.92962837043704 -1.69111544324432
 8  1.73861567206721 -0.52759015541554 -0.13130991989199
 7 -7.10461090899090  2.60905649544954  0.24015271077108
 6 -6.11167044604460  3.30378135393539  0.72955648924892
 6 -6.45500275337534  4.79293358275828  0.73290397759776
 6 -7.72303501050105  4.86684731623162  0.25212360366037
 6 -8.20523479507951  3.47956715201520  0.02969551585159
 6 -5.50181813851385  5.93197566346635  1.15150991149115
 6 -8.58402620022002  6.06374740844084  0.08372535793579
 6 -8.53828772007201  7.18326444504450  0.68398464826483
 7 -9.16479875247525  0.62122498359836 -0.50226426012601
 6 -9.87104336403640  1.83993394649465 -0.60187651175117
 6 -11.22800189678968  1.47486582568257 -1.22819453895390
 6 -11.22602500640064  0.07081244534453 -1.34022273627363
 6 -9.95298097879788 -0.40675264956496 -1.03180819691969
 6 -12.28029685338534  2.47787835883588 -1.36067284208421
 6 -12.41635618191819 -0.65018242834283 -1.84204501300130
 6 -12.42230971937194 -0.98407081828183 -3.28959407800780
 7 -7.29196866516652 -1.39703931753175 -0.01886656365637
 6 -8.31133137293729 -2.22682785488549 -0.48296325152515
 6 -7.79004515011501 -3.56169443694369 -0.59612688998900
 6 -6.52169605370537 -3.57325166216622 -0.18198993089309
 6 -6.23145574197420 -2.19219750105011  0.12340514471447
 6 -8.53433090049005 -4.77498034043404 -0.96399487788779
 6 -5.26944141444144 -4.44279816331633  0.15657853045305
 8 -5.18322716061606 -5.62689717311731  0.11530856155616
 6 -4.16789036843684 -3.33813960376038  0.59248911421142
 6 -3.52896352725273 -3.57620284158416  1.91341171407141
 8 -3.81414301490149 -3.11929866606661  2.96499918101810
 8 -2.76006720042004 -4.74021874427443  1.73882246314631
 6 -2.21244183208321 -5.28709293839384  2.87706264176418
 6  2.82103461516152 -0.69368716331633 -1.09279047944794
 6  4.17348943794379 -0.51399957625763 -0.35530567956796
 6  5.09263274767477  0.30807707310731 -0.77267704040404
 6  5.14361278427843  1.21829447874787 -2.00935510081008
 6  6.39502383518352  0.33878572877288 -0.05933241844184
 6  7.62264980288029 -0.04547489438944 -0.83977092759276
 6  8.91787365996600 -0.18677380778078 -0.02977479027903
 6  10.23356398089809 -0.64363143484348 -0.75689666016602
 6  10.11028772897290 -2.07046798289829 -1.25666913191319
 6  11.44764764166417 -0.42284606540654  0.18342921152115
 6  12.85069997769777 -0.47535158625863 -0.57173719661966
 6  14.06328579697970 -0.05654685748575  0.37330439793979
 6  15.43205933083308 -0.26848057715772 -0.37729596939694
 6  15.72965463436344 -1.72025965976598 -0.92327194489449
 6  16.50975508140814  0.40034439443944  0.42279678687869
 6  17.86369095849585  0.65494689308931 -0.31007682228223
 6  18.86868723822382  1.36302451945195  0.51113154615462
 6  20.24125279447945  1.40977131063106  0.01244600780078
 6  20.25242659645965  2.07751604880488 -1.29346033873387
 6  21.23076400720072  2.08357129342934  0.97629299269927
 1 -4.17242872737274  3.68113363476348  1.60033462036204
 1 -10.08660905360536  4.02718355335534 -0.46623201470147
 1 -10.23144643404340 -2.46040538133813 -1.49978663086309
 1 -2.65439189608961 -0.94220253415342  2.07911860306031
 1 -2.19287289248925  1.53700728332833  1.19013966436644
 1 -1.88351280878088  1.30848130103010  3.69720343384338
 1 -3.53079813981398  2.45598965646565  3.40156232163216
 1 -3.74389783248325  0.75902058605861  3.86044845764576
 1 -1.89553203810381 -1.57798775917592 -0.32081599079908
 1 -2.25732740524052  0.16914416481648 -0.54002404200420
 1 -0.34208772617262  0.31386600050005  1.18288868796880
 1 -0.10477827982798 -1.41249576477648  1.34175813101310
 1 -5.76570534593459  6.74661330543054  0.53912962216222
 1 -5.55685267466747  6.05912927602760  2.18269456655666
 1 -4.41877583358336  5.63575474187419  1.07717089268927
 1 -9.37469952245225  5.88206435453545 -0.61470169836984
 1 -9.22254347024703  8.03522426132613  0.73361298309831
 1 -7.76543600940094  7.58177457695770  1.39573795929593
 1 -12.18517262236224  3.31823214921492 -1.89300230493049
 1 -13.40074974417442  1.83695758695870 -1.68578977047705
 1 -12.60421215231523  3.02944159885989 -0.48359960396040
 1 -12.65313009140914 -1.65563500860086 -1.26257121202120
 1 -13.17454617351735  0.15398866206621 -1.67372289978998
 1 -13.47583393599360 -1.41480616681668 -3.71916180068007
 1 -12.18290185438544 -0.14268880648065 -3.91357485318532
 1 -11.50607688698870 -1.80493536063606 -3.67004562456246
 1 -9.22776237923792 -4.59492023492349 -1.96539980408041
 1 -7.86197556235624 -5.59131913611361 -1.10810042304230
 1 -9.23807369226923 -5.08493351465147 -0.03301512411241
 1 -3.60622131803180 -3.57366061676168 -0.29922519401940
 1 -1.55874404090409 -4.53384982468247  3.52201511681168
 1 -3.05015462406241 -5.53197481508151  3.60513335223522
 1 -1.65221333283328 -6.21075034823482  2.59549350225023
 1  2.60633993809381 -1.65542737863786 -1.67822178717872
 1  2.53188066566657  0.05102938253825 -1.96568972117212
 1  4.29824072967297 -1.07410962616262  0.38589180518052
 1  4.13866282978298  1.33727243764376 -2.40117848754876
 1  5.81380679237924  2.07768802770277 -1.91436790499050
 1  5.56916422402240  0.88827993549355 -2.94160289128913
 1  6.61056311921192  1.38244224422442  0.59492213501350
 1  6.50772489188919 -0.42509054645465  0.78182789948995
 1  7.33853123782378 -0.95835507070707 -1.35553687728773
 1  8.14529696559656  0.71248445654565 -1.69149207280728
 1  9.16245829742974  0.75902378737874  0.32039967216722
 1  8.64807329602960 -0.86444195039504  0.77565542924292
 1  10.43552110351035  0.21058359605961 -1.57699258875888
 1  9.24478946444644 -2.00944892139214 -2.00357628242824
 1  10.90543309900990 -2.29561634553455 -2.04808905280528
 1  10.29530241624162 -2.95206714871487 -0.43366280598060
 1  11.27531521242124  0.78124035423542  0.63245473297330
 1  11.17631068446845 -1.14247020832083  1.10486110771077
 1  12.64481780068007 -1.51982014321432 -1.03512117971797
 1  12.71250500300030  0.22892358335834 -1.32707606890689
 1  13.97810924762476  0.92184474047405  0.78821616461646
 1  14.05970872397240 -0.85633523822382  1.08449496599660
 1  15.29483277177718  0.26080556555656 -1.28787314531453
 1  15.79753719661966 -2.43103339543954 -0.06634808870887
 1  14.86436948764877 -2.00818319391939 -1.75694310941094
 1  16.68568819821982 -1.56640216511651 -1.56119758925893
 1  16.06135133583358  1.39931776547655  0.80297684198420
 1  16.66462090929093 -0.22046122122212  1.38680144134413
 1  18.39472041074107 -0.23987053445344 -0.78243158355836
 1  17.69702676717672  1.11562888178818 -1.43830740654065
 1  18.48948974157416  2.43828798649865  0.88140614591459
 1  18.99679683998400  1.08217239823982  1.52967296759676
 1  20.54406931963196  0.35870201840184 -0.08845178117812
 1  19.82642674927493  3.11069463136314 -1.22277587098710
 1  21.33008726082608  2.22313896669667 -1.64024538783878
 1  19.62192609700971  1.74778658945895 -2.02154912391239
 1  20.97657363256326  1.65744385348535  1.84999461666167
 1  22.22369407570757  1.93375460516052  0.82846781308131
 1  20.69240897079708  3.09349943324332  1.09375981648165

