%nproc=4
%Mem=2GB
# td=(NStates=1) CAM-B3LYP/6-31G(d,p) 

TD

0 1
12 -7.13045361836184  0.62711145924592  0.02465015241524
 6 -4.82834745274527 -1.87773895229523  0.51037757045705
 6 -4.80137006590659  2.88925737303730  1.11464782968297
 6 -9.43977871337134  3.04175967146715 -0.37098995869587
 6 -9.53975428912891 -1.79716522752275 -0.85838226732673
 7 -5.08330175477548  0.49738955705571  0.61627204550455
 6 -4.39612931903190 -0.59262908490849  0.69850787398740
 6 -2.94841384678468 -0.41040046574657  1.15067542174217
 6 -2.97282072047205  1.17537020532053  1.56889762046205
 6 -4.36894388928893  1.57872862166217  1.06567359725973
 6 -2.86799188128813  1.37155944404440  3.06531794069407
 6 -1.80770423142314 -0.64807006840684  0.07375133343334
 6 -0.36413383598360 -0.57934228142814  0.48994312361236
 6  0.55960709790979 -0.74212772567257 -0.67984336483648
 8  0.20875211531153 -1.14841024862486 -1.73140947264726
 8  1.87268907940794 -0.50266766316632 -0.29375616451645
 7 -7.07282773067307  2.66096168596860  0.30393908940894
 6 -6.08272755175518  3.38658963476348  0.81393492709271
 6 -6.40517777087709  4.74401869126913  0.82471315851585
 6 -7.75700840784078  4.82403303480348  0.31759015031503
 6 -8.14163843544354  3.45100429572957  0.04486703300330
 6 -5.58140609730973  5.86647911381138  1.31597635813581
 6 -8.61023882148215  6.01227226092609  0.21999898529853
 6 -8.53671756305631  7.04751086968697  1.03257950775078
 7 -9.09304157675768  0.65149801090109 -0.62736677037704
 6 -9.85309156885689  1.68143809690969 -0.68177450155015
 6 -11.25670476707671  1.42037037613761 -1.13974569406941
 6 -11.28915131903190  0.05917128122812 -1.17139585358536
 6 -9.95226090679068 -0.43791576587659 -0.88214323042304
 6 -12.34442326602660  2.35784635563556 -1.35449222402240
 6 -12.44140868716872 -0.78724613471347 -1.60862167066707
 6 -12.42976046444645 -1.26652906410641 -3.01516663526353
 7 -7.29023849214922 -1.35581519511951 -0.18166284328433
 6 -8.27344758455846 -2.29287445954595 -0.56178113331333
 6 -7.77963410901090 -3.55752401990199 -0.58042531983198
 6 -6.43704758885889 -3.56988132513251 -0.18078981088109
 6 -6.17161975837584 -2.16458473977398  0.06558936313631
 6 -8.66001346874687 -4.77249009140914 -0.93086156455646
 6 -5.27025149544954 -4.37272115561556  0.21440431303130
 8 -5.07167600550055 -5.56535101850185  0.10698772947295
 6 -4.21635521492149 -3.26008179797980  0.57350721602160
 6 -3.62576320722072 -3.59817503880388  1.89699007190719
 8 -3.79902150275028 -3.10601733793379  2.97185986708671
 8 -2.84365555925593 -4.70816553895390  1.77451603250325
 6 -2.25041562946295 -5.12932716181618  3.08405334083408
 6  2.81974448614861 -0.65589338393839 -1.41095229562956
 6  4.14759684868487 -0.34494267056706 -0.65961611061106
 6  5.11077456185618  0.55002126752675 -1.07195696839684
 6  5.12215063806381  1.30980362966297 -2.29632379767977
 6  6.42883721652165  0.62420427062706 -0.30992747794779
 6  7.65509304720472 -0.13466381328133 -1.01214816531653
 6  8.87342921552155 -0.08802393279328 -0.04854666746675
 6  10.20521114561456 -0.56299337103710 -0.69057002750275
 6  9.99517621782178 -2.06702763886389 -1.02111557655766
 6  11.47741061796180 -0.24093787458746  0.12039290789079
 6  12.80385529322932 -0.46311036213621 -0.59431945484548
 6  13.99360882928293 -0.01832303510351  0.20495756325633
 6  15.36491261616162 -0.15980971007101 -0.41959019881988
 6  15.68560022892289 -1.71675930973097 -0.63864348204820
 6  16.46756086198620  0.55236959695970  0.45732023922392
 6  17.84737932733273  0.49405080348035 -0.17801361596160
 6  18.86468683818382  1.18405662266227  0.78590902390239
 6  20.26542521172117  1.15139547304730  0.15240000320032
 6  20.36412776657666  1.85880417761776 -1.17090808350835
 6  21.32795372617262  1.98071100740074  1.10788615201520
 1 -4.07246873137314  3.70593611501150  1.38642322922292
 1 -10.21400179287929  3.75399623462346 -0.58259365086509
 1 -10.14456774617462 -2.65733507430743 -0.99925657785779
 1 -2.50503696059606 -1.04392270617062  2.08749944114411
 1 -2.25117872307231  1.77930151275128  0.84523517391739
 1 -1.95988044554455  0.98633908680868  3.58015172867287
 1 -2.93698875887589  2.39197325482548  3.54281644704470
 1 -3.69920336303630  0.92941762576258  3.71872428522852
 1 -2.06402888778878 -1.71621158155816 -0.60760466966697
 1 -2.12058373087309 -0.00415316491649 -0.73493353295329
 1 -0.09102261966197  0.34208882278228  0.99810020912091
 1 -0.14826262826283 -1.34477899309931  1.25153910911091
 1 -6.13777255265527  6.73580222432243  0.81136684588459
 1 -5.87140412981298  6.21030439353935  2.32072836993699
 1 -4.45193914991499  5.73312447884788  1.03640681628163
 1 -9.23033508600860  6.14044019211921 -0.63471369956996
 1 -9.19758097399740  7.90414115301530  0.67127674947495
 1 -8.02836230203020  7.06792319181918  1.91046943244324
 1 -12.28247235233524  2.95789611561156 -2.34695770047005
 1 -13.25734540374037  1.75933982518252 -1.18444963646365
 1 -12.33680541164117  3.08774742944294 -0.40792203620362
 1 -12.59867464586459 -1.70488993409341 -0.99449440434043
 1 -13.50905962486249 -0.24580131693169 -1.73232876037604
 1 -13.24220057265727 -1.85544023022302 -3.29585947044705
 1 -12.03377694189419 -0.34820935853585 -3.64845834153415
 1 -11.43878015731573 -1.79106397349735 -3.12300092009201
 1 -8.84848445144515 -4.67220796369637 -1.95430869496950
 1 -8.17924728952895 -5.79665967016702 -0.94833444644464
 1 -9.59466935183518 -4.95050007130713 -0.26915873847385
 1 -3.63271396729673 -3.54345759645965 -0.37095236673667
 1 -1.96346451295129 -4.18238467816782  3.82723563886389
 1 -3.06134574317432 -5.48624024162416  3.79553239213921
 1 -1.40896900840084 -5.93889316251625  2.77377133003300
 1  2.73133243734373 -1.68577041294129 -1.80014397939794
 1  2.62851032863286  0.28934321392139 -2.06989014121412
 1  4.19308021362136 -0.76061827702770  0.32323553955396
 1  4.22229119261926  1.37423613401340 -2.66368473817382
 1  5.74451986368637  2.29297955685569 -1.97919438763876
 1  5.92078938653865  0.88839994749475 -3.01388011901190
 1  6.78506056895689  1.65332933293329 -0.17040439763976
 1  6.25686980638064  0.30314227682768  0.73357307400740
 1  7.34525190989099 -1.15741497669767 -1.28346967056706
 1  7.96537897379738  0.41872508060806 -1.97354027762776
 1  9.11257330893089  1.21463934893489 -0.07388975677568
 1  8.70343883258326 -0.69208471467147  0.85387325102510
 1  10.06745429682968  0.09431196889689 -1.54039892939294
 1  9.03473845934593 -2.31166914341434 -1.73598952375238
 1  10.95541809750975 -2.17936472037204 -1.71498574247425
 1  10.07252013801380 -2.66133807580758 -0.21788122782278
 1  11.43683136403640  0.74287651785179  0.66305779327933
 1  11.81023407680768 -0.92695865716572  0.86452707430743
 1  12.88323164206421 -1.57645580678068 -0.79748741634163
 1  12.71209496199620  0.00811150215022 -1.59636299759976
 1  13.71802323902390  0.91498405440544  0.76591393439344
 1  13.95198795189519 -0.64279388408841  1.10194671117112
 1  15.11152444094409  0.34572405740574 -1.47393175117512
 1  15.77391483438344 -2.33570386248625  0.15542408850885
 1  14.80903395409541 -2.13375575117512 -1.25160257535754
 1  16.51612124152415 -1.73131865676568 -1.18567003650365
 1  16.23835903660366  1.66951478517852  0.61575812011201
 1  16.50593504070407  0.14854567946795  1.53053581478148
 1  18.18584952365237 -0.55311185858586 -0.23269661006101
 1  17.91033809830983  1.12704002290229 -1.16460003580358
 1  18.63519431203120  2.19098325602560  0.92109011431143
 1  18.82205936623663  0.66188036903690  1.73441344164416
 1  20.53973888658866  0.13798994719472 -0.16669960596060
 1  19.87880198679868  2.84147770967097 -0.95274886828683
 1  21.49074332643264  1.94308096089609 -1.67857922122212
 1  19.97088099249925  1.41336314711471 -1.99549651865187
 1  21.47264323952395  1.27688579767977  2.21833145034504
 1  22.28729043534353  2.01507273697370  0.64483945024502
 1  20.81721145104510  3.01466154945495  1.28841928242824

