%nproc=4
%Mem=2GB
# td=(NStates=1) CAM-B3LYP/6-31G(d,p) 

TD

0 1
12 -7.07726829982998  0.51291003910391  0.10866855425543
 6 -4.88623324132413 -1.92538371677168  0.39680621332133
 6 -4.70427035593559  2.83944239153915  1.04660102500250
 6 -9.48340307580758  3.01959745524552 -0.30270313001300
 6 -9.51105141884189 -1.82137764876488 -0.91688811791179
 7 -5.12518594319432  0.47384720282028  0.63324374267427
 6 -4.31567127322732 -0.66511633363336  0.65727375057506
 6 -2.92226123152315 -0.30650007570757  1.26668702290229
 6 -3.02522596099610  1.15258792709271  1.55532626332633
 6 -4.34118111301130  1.53742449124913  0.99637666756676
 6 -2.88440352245225  1.37069935803580  3.10352176107611
 6 -1.93914737573757 -0.65010027142714  0.05254921322132
 6 -0.51757918051805 -0.54085843304330  0.47762189148915
 6  0.46191732893289 -0.75638915181518 -0.55235061556156
 8  0.29614085418542 -1.05487089468947 -1.73213954565457
 8  1.76200801130113 -0.55859325572557 -0.10321711061106
 7 -7.04827527542754  2.61241683148315  0.28431712721272
 6 -6.04625390439044  3.39125010081008  0.71220475407541
 6 -6.45175242834283  4.82734702410241  0.76767745494549
 6 -7.73078578557856  4.82154278577858  0.37339573087309
 6 -8.19843411501150  3.49063825912591  0.09275182148215
 6 -5.58855681238124  5.94307677357736  1.37560232073207
 6 -8.61231902950295  6.04635566926693  0.14180116551655
 6 -8.61471536283628  7.24071018961896  0.92679892969297
 7 -9.18029030163016  0.52566542764276 -0.49484351805181
 6 -9.87698395809581  1.73557351045105 -0.53376970107011
 6 -11.25984508110811  1.51226956605661 -1.12612433193319
 6 -11.27126953085308  0.10002536663666 -1.19262797679768
 6 -9.89488516921692 -0.46276825112511 -0.94029904600460
 6 -12.40660948464846  2.49577014801480 -1.56603337813781
 6 -12.36801134743474 -0.75170258035804 -1.73337414591459
 6 -12.19807729612961 -0.97951036223622 -3.30823594219422
 7 -7.25034450275028 -1.44933454705471 -0.13782845984598
 6 -8.28502874267427 -2.23649882198220 -0.51739669486949
 6 -7.87230337593759 -3.64483275077508 -0.41319859715972
 6 -6.57662154625463 -3.62323666066607 -0.10253198509851
 6 -6.16866946334633 -2.12124040534053  0.09480228442844
 6 -8.64259172657266 -4.92208505090509 -0.67616609500950
 6 -5.31863633393339 -4.36031991549155  0.24613748634863
 8 -5.19606844474447 -5.57306178957896  0.16543357405741
 6 -4.16648022742274 -3.28759454925493  0.50626049134914
 6 -3.69144977587759 -3.69978519981998  1.98711908480848
 8 -3.88403000360036 -3.05705244144414  3.03634631573157
 8 -2.75715690939094 -4.70704542694269  1.87318589948995
 6 -2.15742633053305 -5.18596282538254  3.14692962846285
 6  2.81640415211521 -0.55972376697670 -1.11210241064106
 6  4.15234732373237 -0.37463563986399 -0.50472062106211
 6  5.20604408880888  0.38974523992399 -0.97633740644064
 6  5.04583300630063  1.14223687298730 -2.26655082038204
 6  6.48231256405641  0.52661451165117 -0.25053153835384
 6  7.65593313121312 -0.06289663656366 -0.90972792329233
 6  8.97967984058406 -0.00219534993499 -0.22347416021602
 6  10.22019264376438 -0.51128820052005 -1.12341331183118
 6  10.17712441264126 -2.07630856695670 -1.42553601860186
 6  11.47077995489549 -0.22686646744674 -0.18575770717072
 6  12.81973688138814 -0.56453050415041 -0.87568759165917
 6  13.98298776717672 -0.23015421822182  0.01349841734173
 6  15.38611473637364 -0.29032276137614 -0.60011825162516
 6  15.89910157905791 -1.73849148294829 -0.96394601230123
 6  16.46461056695670  0.39460382038204  0.48187269446945
 6  17.80153474287428  0.59259065746575 -0.03810962556256
 6  18.80366073557356  1.26518473547355  0.91756218921892
 6  20.29987865706570  1.34063439693969  0.36091085428543
 6  20.39323067686769  2.09836813401340 -0.97663865656566
 6  21.18952988378838  1.97177011331133  1.38789415281528
 1 -3.96129761426143  3.61728725012501  1.27367195409541
 1 -10.16536692939294  3.85979681468147 -0.40821621312131
 1 -10.24030732013201 -2.57714705550555 -1.35743239543954
 1 -2.75739219611961 -1.09813812771277  2.18448914011401
 1 -2.25152875807581  1.88477205980598  0.99709035943594
 1 -1.90856531403140  1.02575302820282  3.36464017751775
 1 -3.03204826482648  2.42895695319532  3.41315348074807
 1 -3.68802224492449  0.76783146714671  3.67397981078108
 1 -1.90862334723472 -1.64038399879988 -0.39424333353335
 1 -2.22062373487349  0.03878112851285 -0.81270130973097
 1 -0.46059957735774  0.46274088798880  1.08108850795080
 1 -0.27151495349535 -1.26701121632163  1.27321127632763
 1 -5.95154392979298  6.87086573067307  0.86944265346535
 1 -5.95682267166717  6.13439680278028  2.38828512561256
 1 -4.56281023702370  5.74766593299330  1.31402457805781
 1 -9.19714176667667  5.92123827192719 -0.82113234143414
 1 -9.05328654455445  8.07706844574457  0.45472509430943
 1 -7.97260672647265  7.22574897439744  1.73244162966297
 1 -11.94990909600960  3.10037036303630 -2.36276928162816
 1 -13.19874954415442  1.88747263846385 -2.08189938143814
 1 -12.89925165626563  3.17246590129013 -0.78286953095310
 1 -12.47446222462246 -1.75411485658566 -1.15036999189919
 1 -13.31329004790479 -0.35670240704070 -1.58342386988699
 1 -13.03490984358436 -1.75603028922892 -3.73054293879388
 1 -12.48454201840184 -0.07729226682668 -3.82099559525953
 1 -11.17762404170417 -1.27247211431143 -3.54847346734674
 1 -9.02659226222622 -5.28393913681368 -1.75940920502050
 1 -7.93374273907391 -5.71089109330933 -0.49980959395940
 1 -9.46537642254225 -4.86796181748175 -0.02268409100910
 1 -3.44983567946795 -3.41543479417942 -0.12313758525853
 1 -1.56324449094910 -4.45586202590259  3.61562447774778
 1 -2.95018462706271 -5.36738835643564  3.98352119101910
 1 -1.65197330883088 -6.09474874807481  2.75685963886389
 1  2.58632793689369 -1.64829666556656 -1.45996996199620
 1  2.58632611021102  0.05233951355135 -1.92489564176418
 1  4.41782268786879 -1.01789400460046  0.43987720372037
 1  3.96757572107211  1.35621433183318 -2.58875724542454
 1  5.45810122182218  2.26269652855286 -2.10533700190019
 1  5.84280158775877  1.03045415291529 -2.92925165616562
 1  6.77429949284928  1.64732873287329 -0.08088544574457
 1  6.24994911431143  0.02905486808681  0.64287400410041
 1  7.50788817351735 -1.08420765596560 -1.01266258985899
 1  7.94424686058606  0.55474868296830 -1.81529445304530
 1  9.21401345294529  0.89406729172917  0.07823545574557
 1  8.80991948064807 -0.54484999119912  0.67054491819182
 1  10.11730928232823  0.11043358105811 -1.96873176267627
 1  9.33435842134213 -2.33149112561256 -2.03463938873887
 1  11.16163871957196 -2.51652843674367 -1.97885212911291
 1  9.94586747274728 -2.70008195019502 -0.63262270197020
 1  11.54024170507051  0.80769299949995  0.26406789428943
 1  11.41422447584759 -1.04999096039604  0.63202382398240
 1  12.86979029792979 -1.56602476367637 -1.23465113271327
 1  12.98967271977198  0.01240193119312 -1.86825018631863
 1  13.81294273097310  0.88969152515252  0.28471581458146
 1  14.07711046414641 -0.86737634233423  0.98097461396140
 1  15.43017630613061  0.53428291329133 -1.47781213921392
 1  15.86777422032203 -2.27149744184418 -0.04553600750075
 1  15.10500355105511 -2.13884626022602 -1.58805622072207
 1  16.83633326272627 -1.67591311621162 -1.26201767126713
 1  16.08353355405540  1.32622045574557  0.77432397669767
 1  16.31871631883188 -0.18400757585759  1.40341310251025
 1  18.22861380008001 -0.32305885328533 -0.52589592999300
 1  17.72981004550455  1.29687700660066 -0.88143171897190
 1  18.37323811641164  2.20615477317732  1.05533353865386
 1  18.72514967526753  0.92066624762476  1.96734673497350
 1  20.50995590829083  0.19161530973097  0.11265832983298
 1  20.03508761536153  3.11050461236124 -0.79510310371037
 1  21.28424267636764  2.25941259405941 -1.46505786908691
 1  19.53765767016702  1.65787759855986 -1.65765273427343
 1  21.33439941514152  1.36222433153315  2.36099571677168
 1  22.40553225952595  1.97703893359336  1.00981594789479
 1  20.66505623552355  2.97570765406541  1.51813225372537

