%nproc=4
%Mem=2GB
# td=(NStates=1) CAM-B3LYP/6-31G(d,p) 

TD

0 1
12 -7.12561313431343  0.62698144624462  0.06876456385639
 6 -4.88650326832683 -2.04677585598560  0.56688322102210
 6 -4.77646757565757  2.80254870217022  1.05813217811781
 6 -9.40759549504950  3.03420891639164 -0.33839669936994
 6 -9.49157947164717 -1.73494900590059 -0.92265869496950
 7 -5.09293271787179  0.43595341344134  0.69928034633463
 6 -4.32395210131013 -0.73796361836184  0.75632365556556
 6 -2.89669867526753 -0.45721514721472  1.19846020022002
 6 -3.03853729212921  1.03757642594259  1.65958668936894
 6 -4.40993798869887  1.48388913771377  1.12044907480748
 6 -2.89277435953595  1.27779006710671  3.18132954185419
 6 -1.92854631563156 -0.71230649204920  0.07897185548555
 6 -0.52765018761876 -0.59123347054705  0.56346047534753
 6  0.53990512771277 -0.78944245714571 -0.51977735823582
 8  0.30261150125012 -1.35185059265927 -1.62823915561556
 8  1.75039685018502 -0.46476387278728 -0.13743053195320
 7 -7.12782323022302  2.57799338913891  0.27900659615962
 6 -6.06028530753075  3.39682065786579  0.70039357295730
 6 -6.35708296139614  4.74535882528253  0.78260894809481
 6 -7.78947165416542  4.80984161566157  0.39549794109411
 6 -8.19533380498050  3.47332652795280  0.19775232153215
 6 -5.48122607930793  5.84105657155716  1.02439720022002
 6 -8.61345914351435  6.06887792149215  0.24367135253525
 6 -8.55559945124513  7.15668178677868  0.93836008580858
 7 -9.07157943054305  0.63272613371337 -0.59684371807181
 6 -9.85040129982998  1.83551350445045 -0.76437276137614
 6 -11.17259635623562  1.46896523562356 -1.16267798729873
 6 -11.14385678957896  0.07817318141814 -1.32196091009101
 6 -9.81922760346035 -0.38088006230623 -1.07474249034903
 6 -12.30546937063706  2.47007757875788 -1.30493726852685
 6 -12.31832637893789 -0.75343275337534 -1.79473028152815
 6 -12.18196568496850 -0.91166357755776 -3.35900101870187
 7 -7.24084355265527 -1.41792140574057 -0.25850052705271
 6 -8.20019025882588 -2.15440061216122 -0.65923087828783
 6 -7.82915906150615 -3.60884915241524 -0.51041831913191
 6 -6.56452033613361 -3.52587692469247 -0.11603333523352
 6 -6.18771136753675 -2.23447172847285  0.08866167036704
 6 -8.68293576097610 -4.88224106650665 -0.88864734313431
 6 -5.27054152445245 -4.34691857535754  0.15318819141914
 8 -5.22162100000000 -5.62523700710071  0.20423745444544
 6 -4.19890346974697 -3.31002679247925  0.56342620792079
 6 -3.59994062496250 -3.71165638693869  1.92723309620962
 8 -3.76954855545555 -3.14777151335134  2.96824950605060
 8 -2.77046824052405 -4.75422014441444  1.89207778867887
 6 -2.33050363826383 -5.20170439953995  3.20560549604961
 6  2.83489600130013 -0.63132092669267 -1.11881308170817
 6  4.15630771977198 -0.27281545784578 -0.40724087308731
 6  5.14429791419142  0.46020228562856 -0.85373514621462
 6  5.14811323432343  1.19974262356236 -2.10691485678568
 6  6.42023635643564  0.55101695189519 -0.11016750195020
 6  7.62919045694569  0.07793744684468 -0.97461441194119
 6  9.00635250785079  0.13286815641564 -0.09748156095610
 6  10.16092671717172 -0.42716978867887 -0.87060803130313
 6  10.06358305850585 -1.87414835093509 -1.27178064306431
 6  11.47026990389039 -0.12637641844184 -0.00118925032503
 6  12.79255416311631 -0.38625267636764 -0.72006202910291
 6  13.95610507890789 -0.00459166196620  0.17199426692669
 6  15.28652477737774 -0.27771150025002 -0.43088132793279
 6  15.61761343024302 -1.77852548634863 -0.61518113581358
 6  16.48262236813681  0.40170453045305  0.38951345854585
 6  17.81700629002900  0.37977937633763 -0.21762757735774
 6  18.80658102760276  1.19263748074807  0.60129056205621
 6  20.23938260746074  1.29695002850285  0.07262202540254
 6  20.26911826562656  2.03581187838784 -1.28219921262126
 6  21.16842777357736  1.87502043834383  1.10616597999800
 1 -3.98614009850985  3.39156467786779  1.38153274017402
 1 -10.08910930363036  3.81974280928093 -0.53499889138914
 1 -10.27342063146315 -2.38321766256626 -1.33538019021902
 1 -2.53249970687069 -0.91231954585459  2.07515820702070
 1 -2.19211281648165  1.70448403100310  1.06356700710071
 1 -2.06428088558856  0.71635208810881  3.49803351685169
 1 -2.83012807280728  2.40017407490749  3.41970413581358
 1 -3.77081052375238  0.68159284328433  3.58215062786279
 1 -1.95533801870187 -1.75304526492649 -0.36373028222822
 1 -2.25296696919692  0.07293454385439 -0.70292033163316
 1 -0.28836235363536  0.53692830673067  1.06447684678468
 1 -0.18564636663666 -1.33295781098110  1.35308926412641
 1 -6.09714849024903  6.90549919401940  0.72534824402440
 1 -5.19857684708471  6.16698006110611  2.25154145124512
 1 -4.40089404540454  5.90127129352935  0.59638281388139
 1 -9.33749580208021  5.87087323542354 -0.49016924512451
 1 -9.48119933583358  7.87828856775678  0.74603422522252
 1 -7.79932939873987  7.39852625212521  1.62712109760976
 1 -12.07331143624362  3.17164749074907 -2.11817482218222
 1 -13.42613228242824  2.29133302450245 -1.66217740924092
 1 -12.49607133823382  3.04909356405641 -0.38207945194519
 1 -12.52290706910691 -1.80166961206121 -1.23300825572557
 1 -13.40664938383838 -0.31911864866487 -1.54869039653965
 1 -12.95170152275228 -1.56213089928993 -3.80907079157916
 1 -12.41640520472047  0.08351381378138 -3.84090758645865
 1 -11.20585686498650 -1.35571043814381 -3.59160778077808
 1 -9.15207481048105 -4.65083582648265 -1.93769703380338
 1 -8.06077544234423 -5.66092609680968 -0.87182679567957
 1 -9.50506039093909 -4.95103012431243 -0.15198702130213
 1 -3.51273196909691 -3.61075432613261 -0.27804307580758
 1 -1.70635880238024 -4.38392483218322  3.61521443674367
 1 -3.14867447604761 -5.51513313091309  3.77247008590859
 1 -1.66421453295330 -5.98498777197720  3.13043699659966
 1  2.74686399049905 -1.81627346324632 -1.23298726372637
 1  2.60732821042104 -0.28239395979598 -2.23873702590259
 1  4.19747065266527 -0.45507772297230  0.68656187218722
 1  4.14956391989199  1.20889960036004 -2.52836120582058
 1  5.47977338903890  2.21398165706571 -1.69727619581958
 1  5.83309061666167  0.87276838433843 -2.86733546454646
 1  6.55126718961896  1.60282428242824  0.26197884068407
 1  6.35888000740074 -0.17906594399440  0.84089380608061
 1  7.44735211991199 -0.81479071427143 -1.36740806440644
 1  7.89840227612761  0.78872208030803 -1.83434635823582
 1  9.30241229282928  1.22479036403640  0.22145977817782
 1  8.97341583028303 -0.36414192039204  0.90232809650965
 1  10.36640419181918  0.13657619531953 -1.81401629112911
 1  9.36260124562456 -2.12735071157116 -2.16469239403940
 1  11.00075263096310 -2.02798958285829 -1.82224646854685
 1  9.74526741274127 -2.67723966596660 -0.60285972567257
 1  11.51586926782678  0.87827005720572  0.47874936243624
 1  11.34641769516952 -0.84015997729773  0.90840146174617
 1  13.04466778567857 -1.43953211441144 -0.96547421502150
 1  12.81571532403240 -0.01652096109611 -1.64213757505751
 1  13.81988342504251  1.05994855085509  0.38678602160216
 1  13.94990774387439 -0.62046165086509  1.07239375587559
 1  15.20933422192219  0.10210969596960 -1.52019637763776
 1  15.59428687158716 -2.38472876497650  0.44697324342434
 1  15.06489954065407 -2.30243261886189 -1.43152056715672
 1  16.67004663406341 -1.71908743364336 -0.87930940044004
 1  16.35132033273327  1.60760859455946  0.77434397869787
 1  16.56111055825582 -0.12076125122512  1.40872363356336
 1  18.25819675837584 -0.66678322572257 -0.48765210561056
 1  17.62308937343735  0.76580389928993 -1.30858443424342
 1  18.35732652525252  2.14233839153915  0.93561156645665
 1  18.84115127542754  0.94563874487449  1.59902990329033
 1  20.54774968766877  0.32355850405040 -0.22572550855086
 1  20.08450255685568  3.07306086798680 -0.87279087248725
 1  21.04946919901990  2.03215986878688 -1.83222458575858
 1  19.48343224762476  1.83217502830283 -1.95586255525553
 1  21.24703067826783  1.42381049014901  2.02819243644364
 1  22.13305501180118  1.75280651035104  0.69478444474447
 1  20.86493622352235  2.92863294659466  1.42194263476348

