%nproc=4
%Mem=2GB
# td=(NStates=1) CAM-B3LYP/6-31G(d,p) 

TD

0 1
12 -7.14869544254425  0.57347609570957  0.14301198859886
 6 -4.84041865986599 -1.88204938333833  0.60174670737074
 6 -4.83584351325133  2.87722616991699  1.21386775167517
 6 -9.44345908140814  2.99475497099710 -0.24544740444044
 6 -9.55552586628663 -1.79308481948195 -0.86443287238724
 7 -5.07418084268427  0.49145896399640  0.67237765606561
 6 -4.31713141924192 -0.60329015101510  0.75357338053805
 6 -2.94367337273727 -0.34322374807481  1.29138949314932
 6 -3.06429986838684  1.17999066736674  1.68423915461546
 6 -4.43258025292529  1.49395014381438  1.15503253315332
 6 -2.93764884698470  1.27337962606261  3.25863727262726
 6 -1.89467292829283 -0.49801506290629  0.13379733803380
 6 -0.39052647524752 -0.28073242044204  0.54539866916692
 6  0.50119125632563 -0.65749926282628 -0.65508088858886
 8  0.23612485258526 -1.14314972257226 -1.71086741844184
 8  1.70513232373237 -0.29203660006001 -0.26396318521852
 7 -7.10648109600960  2.63789937973797  0.40200889638964
 6 -6.04961424042404  3.39583055885589  0.84885841944194
 6 -6.49877713081308  4.74676896629663  0.72577326452645
 6 -7.81700440744074  4.80781141264126  0.42485087638764
 6 -8.28107237883789  3.47096629192919  0.22376492279228
 6 -5.60281823852385  5.91474394029403  1.17028178867887
 6 -8.70388818641864  5.91408244194419  0.05820280568057
 6 -8.63186707800780  7.17525364396440  0.67493374317432
 7 -9.09746201880188  0.58858171927193 -0.37167120082008
 6 -9.86098235793579  1.64458441154115 -0.67607393149315
 6 -11.18674777137714  1.34892323142314 -1.13895561506151
 6 -11.20452285618562  0.06323168726873 -1.31946066006601
 6 -9.92839852055205 -0.53714568886889 -0.81041605770577
 6 -12.25206403010301  2.27273784478448 -1.32403917871787
 6 -12.43018756505651 -0.76292370247025 -1.75694650315032
 6 -12.17284477287729 -1.20912332353235 -3.26138125672567
 7 -7.22320178847885 -1.34861447504750 -0.31575625262526
 6 -8.21733197299730 -2.22220739283928 -0.65139009420942
 6 -7.70940708630863 -3.52156042354235 -0.61311858915892
 6 -6.39594347844784 -3.43762809980998 -0.13607533943394
 6 -6.13181577797780 -2.07916619791979  0.07471027522752
 6 -8.59565703310331 -4.87736057845785 -0.94525300370037
 6 -5.17878234853485 -4.18747263076308  0.12654552715272
 8 -5.15280411831183 -5.44273875727573  0.17984501520152
 6 -4.15110869026903 -3.20429621942194  0.49086895219522
 6 -3.53745437633763 -3.55598081938194  1.90866123902390
 8 -3.80342194279428 -3.00891762796280  2.86457913901390
 8 -2.71329252295230 -4.60155487788779  1.75676425732573
 6 -2.10098068596860 -5.03168739783978  2.87805274077408
 6  2.77734024572457 -0.79191698629863 -1.05994719511951
 6  4.17697978697870 -0.59316749304930 -0.45656580558056
 6  5.13074655905590  0.20947721312131 -0.91871164386439
 6  5.13916233923392  1.10951360066007 -2.17811197649765
 6  6.49757409020902  0.35512736293629 -0.16821330653065
 6  7.72506004390439 -0.18016836373637 -0.92590954145415
 6  9.01051292389239 -0.05675080548055 -0.07442925572557
 6  10.22208283278328 -0.41904897659766 -0.82912388288829
 6  10.12437913811381 -2.01162209830983 -1.35173863886389
 6  11.44098697559756 -0.24966874767477 -0.08585771717172
 6  12.74290919861986 -0.58070212131213 -0.77223724662466
 6  13.98581805020502 -0.03385458825883  0.03690075757576
 6  15.35253137803780 -0.31981571067107 -0.63138137793779
 6  15.59277094599460 -1.91346898069807 -0.71269088678868
 6  16.40096420232023  0.37637199719972  0.27272177937794
 6  17.81427601700170  0.49258065646565 -0.29595541014101
 6  18.80066043554356  1.07519573657366  0.81079151215122
 6  20.24919358855885  1.33874420792079  0.22798756195620
 6  20.27765911971197  2.16555485268527 -0.97383837653765
 6  21.08006893769377  2.05622855915592  1.33852921632163
 1 -4.16652813731373  3.55520104150415  1.49963455035503
 1 -10.02978337103710  3.89128996399640 -0.48102349384939
 1 -9.98694198359836 -2.55240458125813 -1.36489314151415
 1 -2.65904236113611 -0.66025433933393  2.24725541674167
 1 -2.25665927112711  1.73855743834383  1.02520317071707
 1 -1.92007646514651  1.15700615351535  3.54345805930593
 1 -3.31081614161416  2.32259631713171  3.60927309270927
 1 -3.59529297199720  0.47188187218722  3.70919333213321
 1 -1.95138762366237 -1.69014897529753 -0.35099900910091
 1 -2.19481115361536  0.08451570197020 -0.62184222382238
 1 -0.23411692909291  0.85194980888089  0.66702710181018
 1 -0.17691549354936 -0.95684019921992  1.40389434463446
 1 -5.62691146654665  6.86416506060606  0.39921563076308
 1 -5.93826081548155  6.48403176627663  2.04197049414942
 1 -4.46617057305731  5.61790295669567  1.47432060766077
 1 -9.58710076257626  5.63020916901690 -0.53397362556256
 1 -9.39547076297630  7.99078981788179  0.48706832863286
 1 -8.04665413121312  7.55936233573357  1.46874526002600
 1 -11.99198330343034  2.95085541154115 -2.08005100980098
 1 -13.17057672687269  1.91244513571357 -1.62753394489449
 1 -12.49346107720772  2.91826048074807 -0.41759300330033
 1 -12.45788056645665 -1.63966341144114 -1.21410636553655
 1 -13.18465718461846 -0.17825456225623 -1.50514604210421
 1 -13.09680603320332 -1.66027071327133 -3.75684556905691
 1 -12.24051761596160 -0.31048558615862 -3.92580607630763
 1 -11.47866414571457 -1.82746761386139 -3.25852447244724
 1 -9.08323792679268 -4.54675541844184 -2.05040830493049
 1 -7.93519288408841 -5.70214021822182 -1.18382799579958
 1 -9.24675456035603 -4.87154217551755  0.18219639703970
 1 -3.21204190009001 -3.17780103080308 -0.25076034753475
 1 -1.63361152765276 -4.14761120082008  3.48395131043104
 1 -2.79799940854085 -5.56172779037904  3.64983782268227
 1 -1.53862197369737 -5.84842411561156  2.52678663156316
 1  2.64699400350035 -1.93436527242724 -1.11175514051405
 1  2.79641711931193 -0.53630935133513 -2.34774792699270
 1  4.41596250185018 -1.27092930813081  0.59352256825683
 1  4.03821278477848  1.01591030143014 -2.56771514121412
 1  5.36962237393739  2.27399765866587 -1.91562803100310
 1  5.84392169976998  0.62174328182818 -2.83739247024702
 1  6.39776183908391  1.64212821282128  0.09113175597560
 1  6.35912003140314 -0.26695473287329  0.87760747744774
 1  7.60972835753575 -1.33574280948095 -1.14262558615862
 1  7.90747318321832  0.39679288738874 -1.71066398999900
 1  9.27889994159416  1.05396328132813  0.26427405960596
 1  8.87451594029403 -0.65817132333233  0.79522738643864
 1  10.20907845924592  0.22124466216622 -1.68844373387339
 1  9.26193117861786 -2.18295627212721 -2.02387831263126
 1  11.02619517521752 -2.27887467136714 -1.75868011191119
 1  10.03049593559356 -2.58950089208921 -0.32009144884488
 1  11.50554823572357  0.83856608680868  0.21192267976798
 1  11.38960201360136 -0.79930589188919  0.87828845044504
 1  12.91870518941894 -1.65425358655866 -0.89038670627063
 1  12.80131388388839 -0.22399170817082 -1.86627998929893
 1  13.78948038473847  1.04899745574557  0.23042038503850
 1  13.87948070117012 -0.68401800650065  0.96551306780678
 1  15.58078136663666  0.05912539753975 -1.55526988498850
 1  15.55539298219822 -2.39771006310631  0.13959250535053
 1  14.93277632833283 -2.28028040364036 -1.33167058215822
 1  16.63938356775678 -2.07064258915892 -1.11533300280028
 1  16.17819302000200  1.44635246894690  0.34875141944195
 1  16.30748519571957 -0.21044021912191  1.09237199839984
 1  18.20432137083708 -0.53879042644264 -0.44432777317732
 1  17.75322238673867  0.98873619251925 -1.15757933373337
 1  18.45740653325333  1.99105326302630  1.19163716901690
 1  18.95151231153115  0.41568574957496  1.70897089738974
 1  20.52565747844784  0.41906805500550 -0.13845678167817
 1  19.62346645324532  3.10559412131213 -1.03083667706771
 1  21.36658091019102  2.19740639343934 -1.29298066136614
 1  19.83589749414942  1.72344415521552 -1.77218418741874
 1  20.99727570277028  1.40540864996500  2.21186080328033
 1  22.00615232153215  2.08931016071607  0.98161312761276
 1  20.60992072197220  3.00272035533553  1.47768820932093

