%nproc=4
%Mem=3GB
# td=(NStates=1) iop(3/107=0140000000,3/108=0140000000) CAM-B3LYP/6-31G(d,p) 

TD

0 1
12 -7.13832852455246  0.54069245274527  0.08095446544654
 6 -4.90872968946895 -1.99238646924692  0.62991839423942
 6 -4.74231026162616  2.77240595849585  1.29647975317532
 6 -9.33912067656766  3.09071662466247 -0.28470094539454
 6 -9.49066516451645 -1.78063982968297 -0.97021382628263
 7 -4.97424445564556  0.38381447204720  0.69826765076508
 6 -4.32984523182318 -0.78367951115112  0.83754164886489
 6 -2.91160738133813 -0.46880527852785  1.20673634273427
 6 -2.97853108000800  0.99428813041304  1.61370765006501
 6 -4.21808204290429  1.43236788788879  1.05709010291029
 6 -2.93279946074607  1.06294911421142  3.20761607620762
 6 -1.85507123682368 -0.47849383858386 -0.03794998469847
 6 -0.43569927912791 -0.40411365936594  0.52490587288729
 6  0.46824874807481 -0.60914753665367 -0.64934472457246
 8  0.13101331813181 -0.80508428612861 -1.80060745384538
 8  1.73104170257026 -0.43362330073007 -0.30043543114311
 7 -6.99409705310531  2.55959916981698  0.43449437353735
 6 -5.96407655145515  3.33303707110711  0.79954583068307
 6 -6.32574748314831  4.66142300590059  0.87249550825083
 6 -7.63270805610561  4.79216102130213  0.30220634703470
 6 -7.98472800030003  3.41517845664566  0.04518251685169
 6 -5.50842287618762  5.81789126282628  1.27744789999000
 6 -8.42723273127313  5.94689495909591  0.10798141064106
 6 -8.27823623362336  7.23678282798280  0.57458151745175
 7 -9.13960300140014  0.68524551895190 -0.64875144904490
 6 -9.71089857615762  1.86666999129913 -0.66303911741174
 6 -11.17617156985699  1.51257070157016 -1.05405026472647
 6 -11.25522500970097  0.12877042284228 -1.24799482778278
 6 -9.93431103470347 -0.31460165356536 -0.98079028032803
 6 -12.22125306300630  2.45965120652065 -1.36288574127413
 6 -12.39282307520752 -0.75668179197920 -1.68079741034103
 6 -12.40129203810381 -1.11273146544654 -3.13453410461046
 7 -7.26582954535453 -1.32155699139914 -0.12226490159016
 6 -8.20265459175918 -2.16062460796080 -0.59642122202220
 6 -7.93545558535854 -3.57314786618662 -0.43641394119412
 6 -6.58706649714972 -3.52086506860686 -0.03492557425743
 6 -6.23066679837984 -2.19391734753475  0.19750158555856
 6 -8.77914025352535 -4.77002310071007 -0.80568395149515
 6 -5.36399186208621 -4.37385094849485  0.19886486058606
 8 -5.23144413671367 -5.54428128512851  0.06790273887389
 6 -4.21029553215322 -3.31255870327033  0.55744406600660
 6 -3.67365154195420 -3.72002994569457  1.97830379887989
 8 -3.83953673707371 -3.10811816971697  3.04325768396840
 8 -2.74574992779278 -4.70197881638164  1.82345138263826
 6 -2.24425338233823 -5.12049725562556  3.07680508090809
 6  2.81376769716972 -0.51371966086609 -1.30041355855586
 6  4.06998788398840 -0.28466373427343 -0.56380894369437
 6  5.08273376467647  0.42470899889989 -1.08649152615262
 6  5.08866259185919  1.12759043434343 -2.32295643064306
 6  6.44525080378038  0.45450606660666 -0.31127165156516
 6  7.68945039763976 -0.18529707770777 -1.00574090279028
 6  8.89973768536854 -0.19101091719172 -0.12899900230023
 6  10.22960842144214 -0.67163882708271 -0.89437515751575
 6  10.05828910551055 -2.08264614451445 -1.43688065406541
 6  11.50029469326933 -0.44512940404040  0.01186322382238
 6  12.81502923842384 -0.69237927142714 -0.77225473057306
 6  13.87999927172717 -0.15723143744374  0.17632404400440
 6  15.28978496949695 -0.16163524712471 -0.47393304580458
 6  15.70011628262826 -1.55763415171517 -0.98346017231723
 6  16.36022301500150  0.34044056135614  0.46848158285829
 6  17.79566715441544  0.56713044264426 -0.10256678367837
 6  18.69631004960496  1.22035011351135  0.89121237793779
 6  20.22457526192619  1.43515294779478  0.30872757875788
 6  20.29006185198520  2.26705401050105 -0.92871756765677
 6  21.03461852885289  1.99681138103810  1.34606854685469
 1 -3.73918428192819  3.46423967536754  1.43694979077908
 1 -10.06128825212521  4.01242351685169 -0.52307683388339
 1 -10.28945336943694 -2.44533006810681 -1.13620143954395
 1 -2.58704599179918 -1.05676587928793  2.04585107580758
 1 -2.28853231953195  1.60771283238324  1.19101275027503
 1 -1.91569465586559  0.79757886428643  3.59612995039504
 1 -3.05230233933393  2.17868709150915  3.51508953115312
 1 -3.63018581908191  0.41415656995700  3.67924961016102
 1 -2.05456057505751 -1.40830150095009 -0.49638764586459
 1 -2.14208057705771  0.30984860466047 -0.76760349494949
 1 -0.35866129482948  0.61715130243024  1.04097796079608
 1 -0.27498591889189 -1.28408917551755  1.22002546084608
 1 -5.47690186788679  6.75412292429243  0.53462329362936
 1 -5.67889936123612  6.20296317771777  2.26174818731873
 1 -4.45875071967197  5.49013328132813  1.46952768536854
 1 -9.48777903770377  5.89113249524952 -0.62804415711571
 1 -9.07764682838284  7.92203192419242  0.32359213491349
 1 -7.33024095619562  7.68001483788379  1.12299125942594
 1 -11.92659313231323  3.08618776587659 -2.26581241274127
 1 -13.14896219391939  1.96829557195720 -1.46811253945394
 1 -12.28000903360336  3.21856919101910 -0.52311275077508
 1 -12.64701666656666 -1.47259818261826 -1.09210271117112
 1 -13.43906620572057 -0.17398010851085 -1.59894564896490
 1 -13.12524772397240 -1.87231089318932 -3.37051800990099
 1 -12.58089849554955 -0.22407087838784 -3.88190716911691
 1 -11.52940778017802 -1.53637466466647 -3.45501377957796
 1 -9.14318893749375 -4.64922142294229 -1.95114117711771
 1 -8.12730711591159 -5.68284423772377 -0.52805276037604
 1 -9.52044622362236 -4.87513596199620 -0.05097736643664
 1 -3.50752827132713 -3.53335994159416 -0.14051178927893
 1 -1.42899628722872 -4.32770498389839  3.31185290289029
 1 -2.91003744104410 -5.20395992089209  3.92118315601560
 1 -1.59374989548955 -6.03035382018202  2.87014037513751
 1  2.51417947274727 -1.58356497929793 -1.72614406310631
 1  2.57915435673567  0.32025010981098 -2.18697975547555
 1  4.10121060776078 -0.78867728152815  0.43142454265427
 1  4.10360567206721  1.52261780448045 -2.87132761846185
 1  5.66386331853185  2.23155357925793 -2.22427986638664
 1  5.70122969146915  0.71569276017602 -3.09947620452045
 1  6.78172635653565  1.51476145674568 -0.03507389348935
 1  6.12407027912791 -0.00512784948495  0.62599879537954
 1  7.49119124192419 -1.26527720072007 -1.35180993819382
 1  8.10996355485548  0.49694879787979 -1.77726854975498
 1  9.31706775107511  0.96190568806881  0.10832326042604
 1  8.86778989978998 -0.71503985668567  0.82306843024302
 1  10.36055068686869 -0.20287413961396 -1.73567872587259
 1  9.20768037713771 -2.30601888538854 -2.10147852975297
 1  10.99631877247725 -2.40241364066407 -1.90378573667367
 1  9.98982117921792 -2.86372048674868 -0.46737413111311
 1  11.53693533513351  0.59145557895790  0.50787855865587
 1  11.20131772727273 -1.01345264286429  0.96321264136414
 1  12.99080703320332 -1.74365178447845 -1.01517378887889
 1  12.73388921882188 -0.05007007100710 -1.58372270597060
 1  13.70723214351435  0.95594095739574  0.55131996069607
 1  13.89024733533353 -0.94615099399940  0.90099247324732
 1  15.31591199259926  0.41021441844184 -1.26498776757676
 1  15.66713050985098 -2.40424976617662 -0.18557669316932
 1  15.17149879427943 -2.01198571857186 -1.80128150165017
 1  16.74658293789379 -1.72324322132213 -1.26766327962796
 1  16.15655892939294  1.39663799749975  0.63053897019702
 1  16.37341141894190 -0.20973725852585  1.37450594529453
 1  18.11298803650365 -0.44098061206121 -0.39089928552855
 1  17.56165347494749  0.90838973307331 -1.03807955155516
 1  18.33467252415242  2.24537580558056  0.72793474027403
 1  18.70382634513451  0.84216905640564  1.84871811731173
 1  20.60800063236324  0.34557555515552  0.23140903310331
 1  19.98512533103310  3.27231800830083 -0.72846503120312
 1  21.32316611741174  2.51156229832983 -1.17096507770777
 1  19.65130352795279  1.75597588778878 -1.79262764716472
 1  21.11216507000700  1.39549519041904  2.19248291709171
 1  21.97692558535853  2.29641011171117  0.96804345794579
 1  20.55358543704370  3.09499561676168  1.54921205790579

