%nproc=4
%Mem=2GB
# td=(NStates=1) CAM-B3LYP/6-31G(d,p) 

TD

0 1
<<<<<<< HEAD
12 -7.23848442144214  0.57749649774978  0.16663435083508
 6 -4.93325794379438 -1.94571574997500  0.53326985968597
 6 -4.81509143804380  2.82249069636964  1.21698806370637
 6 -9.30606534203420  3.13828932443244 -0.46493935363536
 6 -9.61185149884989 -1.77466297729773 -0.71324775387539
 7 -5.12444586918692  0.50496031413141  0.68771919021902
 6 -4.27836754285429 -0.76444626662666  0.79767779097910
 6 -2.90977998339834 -0.44681410711071  1.12902325652565
 6 -3.15753919231923  1.05122779107911  1.53391412211221
 6 -4.43412040694069  1.47288803760376  1.19595662556256
 6 -2.89940502260226  1.24205649374937  3.09867127602760
 6 -1.91332479347935 -0.60609587098710  0.01872583088309
 6 -0.45192261486149 -0.44134848204820  0.48239236853685
 6  0.46255739293929 -0.70433394629463 -0.66560194069407
 8  0.14209544964496 -1.01258666626663 -1.74835116681668
 8  1.75916772727273 -0.57821521792179 -0.20436722562256
 7 -7.14952540044004  2.61697728752875  0.40029872537254
 6 -6.02278155715572  3.36387736353635  0.80062359595960
 6 -6.39938719181918  4.81631592099210  0.88706939413941
 6 -7.64820752775278  4.93674430593059  0.39982837413741
 6 -8.10599487108711  3.51161035633563  0.10013255955596
 6 -5.50880883758376  5.96904937083708  1.27235199569957
 6 -8.47511530913091  6.09083011671167  0.04635162056206
 6 -8.45686957825783  7.20392651125113  0.71921817161716
 7 -9.11422369496950  0.62968582968297 -0.54865889958996
 6 -9.76654291399140  1.83625357845785 -0.79460578467847
 6 -11.18625772237224  1.55181352045205 -1.20373209270927
 6 -11.30591299519952  0.18277364146415 -1.24075278927893
 6 -9.96032171287129 -0.32875484978498 -0.81360637673767
 6 -12.16683550725072  2.57185775677568 -1.71236801160116
 6 -12.38927347364736 -0.67586499659966 -1.79814062256226
 6 -12.13068055645565 -0.98713112431243 -3.27151226982698
 7 -7.29465893419342 -1.39753936753675  0.01989731273127
 6 -8.35036527632763 -2.24918009010901 -0.43810876607661
 6 -7.90657680328033 -3.66180444794479 -0.42922019931993
 6 -6.67931181528153 -3.53806814381438 -0.00505223712371
 6 -6.22475507190719 -2.18408668996900  0.19549235343534
 6 -8.69354682208221 -4.83529637203720 -0.84557303570357
 6 -5.37431190149015 -4.32950683418342  0.31341421402140
 8 -5.22344118201820 -5.62389687308731  0.28040507120712
 6 -4.24904848424842 -3.35370115991599  0.61643150845085
 6 -3.52672330323032 -3.71017623892389  1.94619499239924
 8 -3.62882448304830 -3.10264700090009  2.99127180828083
 8 -2.80910210391039 -4.80930565296530  1.59878845974598
 6 -2.18573916181618 -5.51736596569657  2.82093702920292
 6  2.79357186888689 -0.76354414901490 -1.24728592899290
 6  4.09729181818182 -0.55108328462846 -0.52853300230023
 6  5.16594007840784  0.20501676707671 -0.94958473117312
 6  5.12444086708671  1.08254090339034 -2.15441960726073
 6  6.44611894469447  0.26185803600360 -0.12041852705271
 6  7.67857539543954 -0.20223056995700 -0.97890484098410
 6  8.94727660026003 -0.23927905830583 -0.13354516731673
 6  10.30983160766077 -0.76115318701870 -0.83456442694269
 6  10.25617231743174 -2.19254019011901 -1.13428689368937
 6  11.49046192309231 -0.21583536433643 -0.03648277967797
 6  12.77371227892789 -0.36712076317632 -0.79329935283528
 6  13.99264873327333  0.12847164436444  0.01569863736374
 6  15.40759688458846 -0.07522125122512 -0.48690693049305
 6  15.61427309620962 -1.58587622142214 -0.90325994369437
 6  16.48079218511851  0.46380074007401  0.42286679387939
 6  17.82059664906491  0.43380477887789 -0.08363417801780
 6  18.72365273477348  1.39179739673967  0.76912734573457
 6  20.21299996919692  1.50207054055406  0.19621438463846
 6  20.39656100990099  2.30681897909791 -1.01830282298230
 6  21.15136606740674  2.08638157445745  1.26927229062906
 1 -3.99887137163716  3.43655917731773  1.41335592249225
 1 -9.99829022172217  3.87241807680768 -0.61259665116512
 1 -10.36697998739874 -2.49008834963496 -0.99407605980598
 1 -2.58540499739974 -0.92088040194019  2.02380307150715
 1 -2.22469607480748  1.49457303990399  1.07908855925593
 1 -1.89852430993099  1.04641509440944  3.42533624712471
 1 -3.00555561556156  2.29468352585259  3.36523868926893
 1 -3.58760220292029  0.67688237223722  3.77885029782978
 1 -2.13804628952895 -1.58278823922392 -0.54810872007201
 1 -2.08556022852285 -0.05125787538754 -0.81216125572557
 1 -0.27323084048405  0.67158177207721  0.75948634773477
 1 -0.30948875087509 -1.05568008320832  1.18833278847885
 1 -5.75879465486549  6.90087873197320  0.79154486368637
 1 -5.73395038443844  6.10397376047605  2.34799109620962
 1 -4.49254321032103  5.59770093649365  1.09755293089309
 1 -9.13692574507451  5.82208835693569 -0.77587781598160
 1 -9.13196441234123  8.02917365626563  0.25576519831983
 1 -7.85625509130913  7.55001140064006  1.47678606410641
 1 -11.80284438953895  2.98417874387439 -2.54129713441344
 1 -13.10268993819382  2.08304219541954 -2.08822001350135
 1 -12.38448017911791  3.55606426112611 -1.10007125112511
 1 -12.47712249064907 -1.50506995209521 -1.22296725162516
 1 -13.15598431733173 -0.06901363816382 -1.59179470697070
 1 -13.06229258185819 -1.73370805700570 -3.61636152065207
 1 -12.08960252445245 -0.11482602020202 -3.91446494219422
 1 -11.10018629792979 -1.61881674877488 -3.32159077907791
 1 -9.17745734873487 -4.56541728462846 -1.84938820292029
 1 -7.88736810161016 -5.75067507170717 -0.82181179417942
 1 -9.43982386728673 -5.04526954825483  0.10335851325133
 1 -3.62321301720172 -3.45988923962396 -0.17135240674067
 1 -1.22112027852785 -4.82646908660866  3.25295821112111
 1 -2.88414802340234 -5.49906152375238  3.74493733263326
 1 -1.84930304180418 -6.42345161836184  2.56345029792979
 1  2.61290059415942 -1.75309714561456 -1.53694765976598
 1  2.62348982658266 -0.15807152755276 -2.09300245244524
 1  4.14017492309231 -1.11396361156116  0.37597081308131
 1  4.02505146864686  1.00420913131313 -2.50928929862986
 1  5.48722413411341  1.99420967986799 -1.90787725592559
 1  5.59833714131413  0.76385749324933 -3.04696342734274
 1  6.62230429332933  1.33946794679468  0.05871851465146
 1  6.20556467586759 -0.43530156755676  0.72192190889089
 1  7.25038242294229 -1.15801503670367 -1.49845116871687
 1  8.18087052295230  0.40442365046505 -1.96729965356536
 1  9.07953000460046  0.93784166916692  0.16328396059606
 1  8.82764125282528 -0.93503901010101  0.75256312001200
 1  10.43602115351535 -0.18167562986299 -1.78538342784278
 1  9.14446943244324 -2.46801477797780 -1.76003192799280
 1  11.07482003770377 -2.53940072397240 -1.78909315321532
 1  10.13642652865287 -2.89064100610061 -0.46613605330533
 1  11.42572025292529  0.80236246644664  0.25039652715271
 1  11.73354640804081 -0.87465342664266  0.91060168176818
 1  12.71796511541154 -1.42564072527253 -0.95203287088709
 1  12.70388414091409 -0.18675798479848 -1.89008236953695
 1  13.71473290999100  1.18834139013901  0.37261460446045
 1  14.11215396849685 -0.27417702240224  0.96337285378538
 1  15.61768505700570  0.47054653965397 -1.37068142614261
 1  15.59431687458746 -2.17965825792579  0.03680222632263
 1  14.92904595529553 -1.87997037263726 -1.65235265036504
 1  16.52114174357436 -1.74255978087809 -1.40328179767977
 1  16.02349755045504  1.28131596529653  0.78086463076308
 1  16.38697314451445 -0.38868804390439  1.22289505070507
 1  18.32988392709271 -0.65599214661466 -0.10104344474447
 1  17.56107317181718  0.77150446934693 -1.29251282708271
 1  18.31315210781078  2.45864002170217  0.75621362666267
 1  18.85618277857786  0.86335051605160  1.63863386368637
 1  20.83901881458146  0.60943709190919 -0.01690462646265
 1  20.08781288788879  3.42051561346135 -0.93330692409241
 1  21.54325857795780  2.44645129792979 -1.33639500280028
 1  20.03152705710571  1.92152396319632 -1.83344031303130
 1  21.05311128632863  1.49102721182118  2.22121173837384
 1  22.18878058435843  2.36130736043604  0.77299226552655
 1  21.02279200910091  3.22795287858786  1.35166560706071
=======
12 -7.18247882088209  0.58525727382738  0.11731941934193
 6 -4.82539715771577 -1.94831601000100  0.58730526322632
 6 -4.77564749364937  2.84070251755176  1.17984434933493
 6 -9.42556729222922  3.03720921642164 -0.34626748644864
 6 -9.43981429512951 -1.79472498349835 -0.97679410851085
 7 -5.06382980758076  0.46826664476448  0.74510492879288
 6 -4.31165087118712 -0.71837165916592  0.79264728792879
 6 -2.85293429882988 -0.42164158985899  1.32274262846285
 6 -2.99770320872087  1.14060672897290  1.76515724642464
 6 -4.36273326822682  1.53104385318532  1.12160919081908
 6 -3.03616869896990  1.24139642774277  3.24202561146115
 6 -1.88818227922792 -0.55453071447145  0.13376733503350
 6 -0.47278470107011 -0.32611695889589  0.56071020032003
 6  0.51932306950695 -0.65620913381338 -0.56596197669767
 8  0.10779201930193 -1.00782619021902 -1.67782411411141
 8  1.74807661816182 -0.42291968836884 -0.22203899279928
 7 -7.10585103300330  2.62965855565557  0.32999169466947
 6 -6.03566284528453  3.34564554035404  0.79554308790879
 6 -6.39739699279928  4.75990027942794  0.66961764896490
 6 -7.74253696069607  4.80508113961396  0.24883327462746
 6 -8.12224649624963  3.45267446274628  0.00674322062206
 6 -5.45352330903090  5.89100156605661  1.01756651715172
 6 -8.45690348794879  5.98235926962696 -0.01360437503750
 6 -8.58414230553055  7.18218433703370  0.77890414021402
 7 -9.08129040164016  0.70460332143214 -0.65293932763276
 6 -9.82858911861186  1.80666061916192 -0.74941126522652
 6 -11.15178427502750  1.45906424552455 -1.07990971047105
 6 -11.22089449334933  0.10438580268027 -1.24302301630163
 6 -9.97282296299630 -0.42048402270227 -0.91800681678168
 6 -12.18841766546655  2.45440601160116 -1.32170894569457
 6 -12.52261680798080 -0.68154556465647 -1.71583239173917
 6 -12.52323981238124 -1.01141355255526 -3.20475559415942
 7 -7.12780224852485 -1.35285489908991 -0.28543322032203
 6 -8.15876611641164 -2.28903407550755 -0.59596455165517
 6 -7.80275642124212 -3.62676094359436 -0.50268754605461
 6 -6.42517640174017 -3.52634697169717 -0.12918465036504
 6 -6.11417401380138 -2.15123340464046  0.06844964916492
 6 -8.55874334173417 -4.88374121652165 -0.78878735713571
 6 -5.29669413971397 -4.38014189768977  0.15387826042604
 8 -5.15070390829083 -5.61646613001300  0.15181221192119
 6 -4.16708028742874 -3.32759854965497  0.69229909520952
 6 -3.50512114301430 -3.75690091139114  1.95730610351035
 8 -3.69567116771677 -3.16563329952995  3.00753343444344
 8 -2.60252144584458 -4.68354307670767  1.79379796069607
 6 -2.07112770067007 -5.17015124422442  2.95074000950095
 6  2.75138765046505 -0.75228302290229 -1.23441464186419
 6  4.04878696769677 -0.47385556185619 -0.54466461546155
 6  5.07678116251625  0.28410467586759 -0.91415118781878
 6  4.99281770477048  1.23278592789279 -2.13651781708171
 6  6.39398373117312  0.40446229642964 -0.20487697289729
 6  7.61798933683368 -0.21117146404640 -1.01429838033803
 6  8.85262713531353 -0.11319645004500 -0.13709552235224
 6  10.19514013851385 -0.51064813651365 -0.88736970747075
 6  9.99525622582258 -1.97160809690969 -1.39834329932993
 6  11.46327920482048 -0.39358313911391 -0.06678580998100
 6  12.80343525122512 -0.49309336043604 -0.78941896479648
 6  13.97016648504851 -0.15947715051505  0.12625969346935
 6  15.31465759065907 -0.08407213631363 -0.55672391219122
 6  15.77895956485649 -1.45073270707071 -0.92147176487649
 6  16.28871297719772  0.53366772677268  0.43200770797080
 6  17.77475206460646  0.61988338673867 -0.15693150775078
 6  18.78685905540554  1.27983620062006  0.77073750675068
 6  20.13047171637164  1.22627296079608  0.32203696689669
 6  20.33722507630763  1.93769206640664 -0.98993998669867
 6  21.14357528832883  1.84773771007101  1.36382174557456
 1 -4.07656914141414  3.44983050445044  1.61213580048005
 1 -10.16796718941894  3.81090192519252 -0.73286867836784
 1 -10.28766205560556 -2.40931027182718 -1.22655930813081
 1 -2.65261171807181 -1.04344265816582  2.11614230543054
 1 -2.15170877607761  1.80727431003100  1.24421507190719
 1 -2.07434189168917  1.19119957285729  3.63540725422542
 1 -3.28325338533853  2.25025908340834  3.64753691909191
 1 -3.82009545224522  0.58084276827683  3.82123453625363
 1 -1.99403188808881 -1.50229018941894 -0.22654656385639
 1 -2.08960063256326  0.14657190759076 -0.62881292089209
 1 -0.22997651505151  0.67676229012901  0.93704410351035
 1 -0.13782158415842 -0.95788030323032  1.32105606080608
 1 -5.79055783118312  6.88978762286229  0.84620032923292
 1 -5.18385537493749  5.93357672077208  2.20008630573057
 1 -4.34119807580758  5.49157032343234  0.44541771737174
 1 -9.06711876437644  5.96031217931793 -0.96087631583158
 1 -9.37243845974598  8.01191193009301  0.35994561636164
 1 -8.04168363416342  7.51533793329333  1.70797918341834
 1 -12.06241034613461  3.26140646664666 -2.03879688438844
 1 -13.09274894409441  1.82527641884188 -1.34412560406041
 1 -12.16636836793679  3.11217987268727 -0.51197244124412
 1 -12.60278505690569 -1.56087553265327 -0.95902085698570
 1 -13.35718443734373 -0.13203994079408 -1.24866039353935
 1 -13.34810116271627 -1.61466615281528 -3.55324520902090
 1 -12.52121568576858 -0.11486602420242 -3.71209470517052
 1 -11.53677995729573 -1.59227409450945 -3.41603022302230
 1 -9.12207181018102 -4.84595533843384 -1.97143040714071
 1 -7.76753611841184 -5.71671167536754 -0.78548816181618
 1 -9.21598148304830 -5.19637465876588  0.17888606600660
 1 -3.32747344324432 -3.24650790149015 -0.03105837733773
 1 -1.57577574407441 -4.24940137983798  3.47142005730573
 1 -2.76072568116812 -5.88143976157616  3.60078291719172
 1 -1.36968508000800 -5.70493976717672  2.44240819371937
 1  2.54528383248325 -1.90257209310931 -1.57316128112811
 1  2.68912639023902 -0.00195591599160 -1.95211836403640
 1  4.29988089368937 -1.08211042624262  0.52356557255726
 1  4.02957192069207  1.49300801120112 -2.51501987168717
 1  5.29772518421842  2.19706996589659 -1.68447491569157
 1  5.65974328192819  1.03461456895690 -3.11375010601060
 1  6.59788185108511  1.43196719671967  0.09306194899490
 1  6.07979209860986 -0.36814485188519  0.52735245194519
 1  7.40328771347135 -1.35525476067607 -1.03246457005701
 1  7.62933536943694  0.12686589468947 -2.05120804440444
 1  8.94160621222122  0.93413129812981  0.24999263146315
 1  8.82655114381438 -0.71007651385138  0.73587145084508
 1  10.31407895929593  0.25372791049105 -1.76403129262926
 1  9.24682966846685 -1.92559053555356 -2.30082600740074
 1  10.81199375507551 -2.45379216311631 -1.94204844874487
 1  9.75391827782778 -2.74608655065507 -0.55123456315632
 1  11.31430911181118  0.64617684788479  0.59233072057206
 1  11.38027108050805 -1.31090705200520  0.58594921652165
 1  12.91418473737374 -1.50251841304130 -1.15693336093609
 1  12.80242399489949  0.06187687868787 -1.70011337263726
 1  13.80615205190519  0.89760231623162  0.56352369536954
 1  13.97962071517152 -0.81186079077908  1.14332084858486
 1  15.23737702620262  0.58626811181118 -1.36628098609861
 1  16.25130257315732 -2.19160945304530 -0.11389284318432
 1  15.05493854455445 -1.89594196979698 -1.67074448954895
 1  16.70088971837184 -1.39482500740074 -1.67089855935594
 1  15.91782698339834  1.60751858555856  0.62730927522752
 1  16.28091253845384 -0.19103827892789  1.46897965916592
 1  18.13480441914191 -0.36484303170317 -0.50529386978698
 1  17.73956102060206  1.17237455635564 -1.03842741854185
 1  18.45847664026403  2.39661381908191  0.80199820512051
 1  18.68224538483848  0.84259844084408  1.79688968926893
 1  20.30603551625163  0.22451860006001  0.25392245624562
 1  20.00201430803080  2.94372793469347 -0.97070066346635
 1  21.38878313041304  2.02646929972997 -1.55403676697670
 1  19.82136604100410  1.37611942274227 -1.90199716871687
 1  20.81090706590659  1.41717982708271  2.37704732193219
 1  22.12334404070407  1.62152338203820  1.18740370667067
 1  20.97647737763776  3.07348743204320  1.27215765626563
>>>>>>> 8e03b5b5abfc0030b3aa597dc0de36371bfbd096

