%nproc=4
%Mem=3GB
# td=(NStates=1) iop(3/107=0140000000,3/108=0140000000) CAM-B3LYP/6-31G(d,p) 

TD

0 1
12 -7.18171286298630  0.60682906640664  0.00537690769077
 6 -4.86180499699970 -1.94334156475648  0.45409081148115
 6 -4.80100613121312  2.79937865576558  1.20194029922992
 6 -9.42498926342634  3.11708926192619 -0.31005348064806
 6 -9.53025912391239 -1.69878164386439 -0.92624942984298
 7 -5.13846087728773  0.39703579417942  0.63002082608261
 6 -4.33150539783978 -0.76495763896390  0.76807470217022
 6 -2.93400962156216 -0.41016941494149  1.32377804690469
 6 -3.05904913181318  1.07707640924092  1.75908218751875
 6 -4.44591482618262  1.43027767886789  1.14825921982198
 6 -2.92703888468847  1.18421124042404  3.26542185678568
 6 -1.87790352005201 -0.73099908910891  0.23669748004800
 6 -0.43383909310931 -0.50871411941194  0.63369675197520
 6  0.55300722392239 -0.79183580548055 -0.55191498159816
 8  0.27617783458346 -1.21000477817782 -1.60645803890389
 8  1.75047364576458 -0.53543348174817 -0.10624601220122
 7 -7.04009165256526  2.65346855675568  0.40925184928493
 6 -5.99407955175518  3.31631539893989  0.72318819491949
 6 -6.34669957835783  4.72931979557956  0.76055431413141
 6 -7.71708649394940  4.86211801700170  0.44936106250625
 6 -8.11666119361936  3.56158309710971  0.11491949054905
 6 -5.44014604850485  5.92824229792979  1.07440759595960
 6 -8.58715872387239  6.05449571917192  0.32391300380038
 6 -8.36005441544154  7.20947009670967  0.82022608190819
 7 -9.20023906500650  0.72345934033403 -0.49624619851985
 6 -9.87261474777478  1.88913223752375 -0.66601941544154
 6 -11.31312526522652  1.54043348784879 -1.13186804650465
 6 -11.22132161936194  0.19814736053605 -1.37748777707771
 6 -9.92806040964096 -0.25956615001500 -1.01613381468147
 6 -12.37289822752275  2.45229047044704 -1.36662611531153
 6 -12.41873566646665 -0.77081320512051 -1.85355468606861
 6 -12.21585349424943 -1.24009420172017 -3.37160781198120
 7 -7.19400236263626 -1.34553938963896 -0.40763343844384
 6 -8.20920524682468 -2.16348489398940 -0.63050463036304
 6 -7.78659069886989 -3.55644619601960 -0.57406770657066
 6 -6.53146093659366 -3.53084606670667 -0.24209629132913
 6 -6.09689342104210 -2.24529248504850 -0.03041120572057
 6 -8.67495983548355 -4.84172027042704 -0.93809719281928
 6 -5.34149961286129 -4.34019758315832  0.14039901400140
 8 -5.17476846914691 -5.53816067306731  0.13757970657066
 6 -4.24077858045805 -3.28459590699070  0.65884420602060
 6 -3.65488966576658 -3.71027897059706  1.98966493499350
 8 -3.84305708910891 -3.06521387928793  3.06887024522452
 8 -2.89746509930993 -4.74946356485649  1.86497553505351
 6 -2.37858681568157 -5.26965217111711  3.10743814421442
 6  2.83529985038504 -0.76340462936294 -1.03850736793679
 6  4.09035992119212 -0.43531879977998 -0.37214977777778
 6  5.04462995429543  0.34190071807181 -0.88141101810181
 6  5.08919264486449  1.28016569186919 -2.04425856085609
 6  6.35844212291229  0.53395401140114 -0.14909543394339
 6  7.58203965656566 -0.04701324932493 -0.98956928562856
 6  8.89467717931793 -0.07150896699670 -0.14358046044604
 6  10.17345280588059 -0.50851251445145 -0.87286300630063
 6  10.12901617821782 -1.99374725462546 -1.33121008700870
 6  11.49468413221322 -0.19634452555256 -0.05892385488549
 6  12.86569430493049 -0.48943897739774 -0.82436994209421
 6  13.94357562936294 -0.17165287958796  0.07040345194519
 6  15.43718970997100 -0.21024010761076 -0.49968562106211
 6  15.75181145214522 -1.67905629392939 -0.90206203250325
 6  16.43739073177318  0.31141765906591  0.34373910861086
 6  17.81759934763476  0.51243497309731 -0.22524905190519
 6  18.86961738033803  1.21863994249425  0.64978823552355
 6  20.34507731213121  1.37108654115412  0.27511421742174
 6  20.55315816161616  2.03436074117412 -1.15834052995300
 6  21.19080414741474  2.09060075997600  1.25563950395039
 1 -4.03338370187019  3.43828708010801  1.70628672447245
 1 -10.19991211451145  3.83970624512451 -0.17160168636864
 1 -10.29660408450845 -2.49720525562556 -1.32365018441844
 1 -2.68101538873887 -0.96527673037304  2.12366885758576
 1 -2.21176464276428  1.52505456655666  1.37029067806781
 1 -2.00110319671967  0.75366447284728  3.51172150955095
 1 -3.01338844794479  2.18273749654966  3.60279830203020
 1 -3.96253905440544  0.63906906120612  3.60142182738274
 1 -2.04417953695370 -1.72544321512151 -0.38336634373437
 1 -2.00051642064206 -0.11199357955796 -0.67605434003400
 1 -0.45360078877888  0.49355894319432  0.94976883988399
 1 -0.17466588688869 -1.08271903850385  1.45665912421242
 1 -5.56679085678568  6.66280379237924  0.10752058335834
 1 -5.51363283458346  6.64979786118612  1.92741475397540
 1 -4.39348419301930  5.58316258425842  1.05841657425743
 1 -9.49154941474147  5.76069945194519 -0.40726207890789
 1 -8.96477554125413  7.99097881888189  0.39619939563956
 1 -7.54800273237324  7.68200503690369  1.43330229052905
 1 -12.19281975497550  3.30777992509251 -2.24205003650365
 1 -13.11583888158816  1.80527927032703 -1.81651737993799
 1 -12.81613264596460  3.08813614771477 -0.30862130163016
 1 -12.29687165206520 -1.68961988478848 -1.04049755065507
 1 -13.32998529762976 -0.24089680018002 -1.85871162556256
 1 -12.85231043024302 -2.27516117821782 -3.66112707080708
 1 -12.54758516421642 -0.25588405970597 -4.09750872927293
 1 -11.08711355075508 -1.43910493769377 -3.56158443664366
 1 -9.19575419401940 -4.74167066786679 -1.89030509350935
 1 -8.16337072227223 -5.64717067036704 -0.82170212531253
 1 -9.38176235523552 -4.99320776917692 -0.29354162286229
 1 -3.42268978747875 -3.47287389298930 -0.13178091619162
 1 -1.46828021562156 -4.51201341474147  3.27816953455346
 1 -3.26880331763176 -5.31291081598160  3.94203524122412
 1 -2.03267378787879 -6.33967475227523  2.85430879197920
 1  2.64241229602960 -1.70978760156016 -1.27913936263626
 1  2.56009245054505 -0.07954987018702 -2.07639869736974
 1  4.44748523522352 -1.05593400720072  0.56632803300330
 1  4.04160947244725  1.22267781048105 -2.44607509320932
 1  5.28611554375438  2.29719014291429 -1.77180461886189
 1  5.71196076457646  0.96225741664166 -2.79562581948195
 1  6.60311849574957  1.48313829442944  0.03688330223022
 1  6.29326719881988 -0.06456379307931  0.75478167366737
 1  7.43660578337834 -1.19474014701470 -1.12550730793079
 1  7.75167772627263  0.38168727172717 -2.06215703860386
 1  9.07972401670167  0.95055455295530  0.31141356945695
 1  8.78086120692069 -0.58420677337734  0.79863598699870
 1  10.29726435823583 -0.01067491969197 -1.91663682168217
 1  9.34343395249525 -2.33867215071507 -1.90365874777478
 1  10.96890603120312 -2.30645404470447 -1.90309566766677
 1  10.31255345244525 -2.70250436513651 -0.59750714441444
 1  11.40637227882788  0.89004543794379  0.10477824862486
 1  11.26655425092509 -0.71963326092609  0.92088840894089
 1  12.82469042154215 -1.42753017231723 -1.16530880238024
 1  12.87233306320632  0.22152708870887 -1.51759609330933
 1  13.95748716901690  0.91552691599160  0.51055588428843
 1  13.88421673227323 -0.82878925782578  0.86652902690269
 1  15.34646504790479  0.32641603860386 -1.44414568336834
 1  15.80250404720472 -2.32346168736874 -0.09550768626863
 1  15.02729437383738 -1.88286280628063 -1.92033340684068
 1  16.63347162676268 -1.77597849484949 -1.49964647794779
 1  16.19916318981898  1.18002633633363  0.71849776607661
 1  16.42967704550455 -0.30875716051605  1.16270476517652
 1  18.09349608730873 -0.62035854985499 -0.60732092769277
 1  17.56356366596660  1.17004589868987 -1.19666541014101
 1  18.44744380128013  2.27635890389039  0.76206815361536
 1  18.88465442794280  0.87319215871587  1.69884312981298
 1  20.77403723602360  0.40163116071607  0.18095398759876
 1  20.01052787128713  2.96646742324232 -1.22564474917492
 1  21.66228002880288  2.49220036213621 -1.40252823402340
 1  20.44770316791679  1.49393968416842 -2.25240362476248
 1  21.09532338583858  1.62127776867687  2.34882855165517
 1  22.33005089788979  1.95405587628763  1.08963561716172
 1  20.86560663916392  3.14910102730273  1.29604674137414

