%nproc=4
%Mem=2GB
# td=(NStates=1) CAM-B3LYP/6-31G(d,p) 

TD

0 1
12 -7.18118869186919  0.60494924302430  0.10227791519152
 6 -4.88107272527253 -1.92534371277128  0.64169070177018
 6 -4.73528345724572  2.92965141244124  1.14337070197020
 6 -9.40847558305830  3.10040553605360 -0.38057091679168
 6 -9.57701801550155 -1.82457796879688 -0.79340576967697
 7 -5.11086451105111  0.48328814691469  0.69787020532053
 6 -4.39830953705371 -0.72190201220122  0.80720874407441
 6 -2.86537554295430 -0.42499192489249  1.18873922812281
 6 -2.98790222862286  1.12376504480448  1.60059078977898
 6 -4.37727472237224  1.52345309410941  1.16499352925293
 6 -2.77710279237924  1.28872116021602  3.14666607550755
 6 -1.86884034503450 -0.69197445884588  0.02671662996300
 6 -0.42433985658566 -0.34681902910291  0.29317344664466
 6  0.51888302550255 -0.69847336023602 -0.84387976847685
 8  0.22426366646665 -1.16790219781978 -1.95976230793079
 8  1.72302411291129 -0.39353675007501 -0.41430821972197
 7 -7.11373182108211  2.57073266306631  0.36957565306531
 6 -6.03689296829683  3.32347332313231  0.80676421002100
 6 -6.43767102020202  4.74507879727973  0.78994968216822
 6 -7.69655236223622  4.84862549404941  0.25562395369537
 6 -8.09176344794480  3.48390758605861  0.04431697799780
 6 -5.38798675537554  5.82280474637464  1.17864262476248
 6 -8.57993579117912  6.07795882958296 -0.00627364196420
 6 -8.43767765906591  7.16532265086509  0.65264151395140
 7 -9.19746201880188  0.61400426152615 -0.35462949664966
 6 -9.95589184888489  1.80667062016202 -0.55357168126813
 6 -11.22266136273627  1.38346668576858 -1.11960367986799
 6 -11.28120052395239  0.05377074117412 -1.16498521252125
 6 -9.98743442414241 -0.41598357265727 -0.73813882998300
 6 -12.23098192189219  2.41608217921792 -1.58961573637364
 6 -12.35391993829383 -0.76127353745375 -1.65662647114711
 6 -12.29282677107711 -0.99225163636364 -3.24511963056306
 7 -7.33782325062506 -1.38650826442644 -0.04976965396540
 6 -8.30700093989399 -2.29785495759576 -0.45649060426043
 6 -7.86148229382938 -3.67285555305531 -0.43351062836284
 6 -6.44626851095110 -3.59055339233923  0.07764603270327
 6 -6.27507010341034 -2.21681996329633  0.18312111631163
 6 -8.70582805020502 -4.87724056645665 -0.86115459385939
 6 -5.28005247554755 -4.34771865536554  0.20133300590059
 8 -5.08227706560656 -5.56444092749275  0.09568659935994
 6 -4.13212679207921 -3.27361315111511  0.57227709300930
 6 -3.53158378927893 -3.67367258855886  1.92395276817682
 8 -3.86264786538654 -3.19099583578358  2.98226090719072
 8 -2.67225841954195 -4.64321904430443  1.75295387628763
 6 -2.13072366026603 -5.23948817791779  2.98301323682368
 6  2.86156866856686 -0.64805259985999 -1.28482968336834
 6  4.12222431143114 -0.43868204450445 -0.48378852785279
 6  5.11454493889389  0.43739000440044 -0.83723349604961
 6  5.14219264226423  1.35653830313031 -2.08760292559256
 6  6.37810214301430  0.47246909710971 -0.11546803200320
 6  7.63801133903390 -0.12862320922092 -0.91743869436944
 6  8.90338221082108 -0.03581871227123 -0.14886669946995
 6  10.17914853935394 -0.39716678837884 -0.95235620612061
 6  10.16390309050905 -1.86856779287929 -1.31720518551855
 6  11.38002087898790 -0.21967574837484 -0.05267439883988
 6  12.74336924462446 -0.43027707880788 -0.64330435333533
 6  14.02044151255125 -0.34489569236924  0.31992906040604
 6  15.31203732863286 -0.31318504760476 -0.40059829962996
 6  15.71056272517252 -1.62946057985799 -0.97653727142714
 6  16.44745885178518  0.30459481948195  0.52731723892389
 6  17.82726731613161  0.57403880228023 -0.13613942854285
 6  18.77763813331333  1.17641585858586  0.77021745474547
 6  20.21324999419942  1.35466580008001  0.17023178637864
 6  20.13288464226423  2.19911820902090 -1.07326831953195
 6  21.11998292909291  1.91169410571057  1.32890825422542
 1 -4.12799428392839  3.60607612901290  1.59970455735574
 1 -10.03122351505150  4.03156399139914 -0.87207259875988
 1 -10.16164945434543 -2.36790613141314 -1.41531818401840
 1 -2.49227568446845 -1.12449076297630  1.85585627682768
 1 -2.39349295449545  1.78916249884988  1.17109776017602
 1 -1.57406186368637  1.18479893279328  3.30842455595560
 1 -2.95885094509451  2.23087714521452  3.46334850025003
 1 -3.14293773647365  0.49324400840084  3.50104251705170
 1 -1.92121460636064 -1.77580754115411 -0.08836274547455
 1 -2.01779345184518 -0.08521127072707 -1.00446048564856
 1 -0.21087460486049  0.68933354725473  0.45504590369037
 1 -0.01071887388739 -0.93663817901790  1.07394134933493
 1 -5.53411218661866  6.93540218431843  0.84640034923492
 1 -5.19173616301630  5.96809017211721  2.28364466156616
 1 -4.38097205320532  5.56355752215222  0.53957713331333
 1 -9.50328238073807  5.59764591269127 -0.62641286948695
 1 -8.94846606250625  8.15137587648765  0.23182280408041
 1 -7.52826229202920  7.29152555205521  1.40813919941994
 1 -11.77366147124713  3.18539886588659 -2.24618762346235
 1 -13.42821249044904  2.15004889608961 -1.69020021152115
 1 -12.32758448954896  2.97949660436044 -0.62084332833283
 1 -12.34803958235824 -1.72548199329933 -1.02742769766977
 1 -13.37369608850885 -0.30929766656666 -1.47920344784478
 1 -13.19862621522152 -1.57371205740574 -3.51720160466047
 1 -12.31056462066207  0.02905836823682 -3.84889838553855
 1 -11.35879215851585 -1.49234410151015 -3.52756137613761
 1 -8.83384298729873 -4.89693043594360 -1.90000326442644
 1 -8.12208157295729 -5.72755275947595 -0.52165177817782
 1 -9.79639952485249 -4.83019804110411 -0.16466828942894
 1 -3.35579627552755 -3.21796504720472 -0.38498376987699
 1 -1.84396256275628 -4.44058049774977  3.65863877917792
 1 -2.96611622022202 -5.71236285388539  3.49541238013801
 1 -1.41426953845385 -5.90220949414941  2.55179913281328
 1  2.77317662176218 -1.83726556245625 -1.71856582158216
 1  2.95175265286529 -0.01914763516352 -2.10579373157316
 1  4.24588549414942 -1.21677389258926  0.33433664966497
 1  4.13957292079208  1.76209491989199 -2.56472484218422
 1  5.67458286998700  2.27018727762776 -1.79475594379438
 1  5.76128343594359  0.68598970647065 -2.87833656465647
 1  6.55759782268227  1.46177017701770 -0.12036939413941
 1  6.35276939633963 -0.08266630403040  0.82236195289529
 1  7.32696008070807 -1.18653788898890 -1.16582790639064
 1  7.80552298819882  0.31970517861786 -1.79996291989199
 1  8.90594264586458  1.02202008700870  0.25280291249125
 1  8.79226771547155 -0.71263676987699  0.76422428612861
 1  10.16644419581958  0.01477401510151 -1.99114400390039
 1  9.25577056255626 -2.09601757825783 -1.91795772057206
 1  11.10719327502750 -2.30376716061606 -1.83425766966697
 1  10.02059494549455 -2.29151109310931 -0.40854029372937
 1  11.47135481638164  0.81788401860186  0.44148563606361
 1  11.36845989938994 -0.86296225752575  0.77812843444344
 1  12.83615693459346 -1.47327548874888 -1.05833350095009
 1  12.85778953145314  0.11871256225623 -1.59987334863486
 1  13.86398783548355  0.71288384438444  0.71969931293129
 1  13.99513226632663 -0.99584918961896  1.06271278777878
 1  15.06865015351535  0.51006049104911 -1.22782714071407
 1  15.96211365426543 -2.15988628072807  0.08848739483948
 1  14.82751580228023 -2.22489486508651 -1.41066848194819
 1  16.58369799919992 -1.57093261816182 -1.68478994849485
 1  15.86832203290329  1.09912774647465  1.01913845814581
 1  16.46076052325232 -0.34473364846485  1.25628839003900
 1  18.05433637233723 -0.42669921732173 -0.71391473187319
 1  17.72890995549555  1.03267058595860 -1.03636721252125
 1  18.36775756835684  2.19944410211021  1.00867887318732
 1  18.80259742004201  0.46778095909591  1.65692569286929
 1  20.53842875557556  0.43337948614861 -0.06639957595760
 1  19.70341444804480  3.10922448434843 -0.69016260966097
 1  21.43868812091209  2.49855650845084 -1.28274963826383
 1  19.87727163156316  1.68316012681268 -2.07847481648165
 1  21.00779675487549  1.28052616171617  2.11322093929393
 1  22.06030773707371  1.71432266196620  0.97503246954695
 1  20.87725745564557  2.96877696099610  1.73291373187319

