%nproc=4
%Mem=3GB
# td=(NStates=1) iop(3/107=0140000000,3/108=0140000000) CAM-B3LYP/6-31G(d,p) 

TD

0 1
12 -7.13085777747775  0.64018240174017  0.10990736073607
 6 -4.88714753125313 -2.06980421102110  0.65600100250025
 6 -4.71440747134713  2.76979569746975  1.12022212741274
 6 -9.29871663616362  3.12852040504050 -0.28132060736074
 6 -9.53638973697370 -1.67984975067507 -0.80595740064006
 7 -5.02098913011301  0.38251434203420  0.75809363336334
 6 -4.41034328162816 -0.71623276647665  0.84622251695170
 6 -2.91829805040504 -0.52978137613761  1.34626029512951
 6 -2.95412863976398  0.97831653325333  1.77307358665867
 6 -4.26550678537854  1.52445709680968  1.17521191509151
 6 -3.01102728352835  0.94231705100510  3.37594290889089
 6 -2.03543927362736 -0.70382637183718  0.10987479777978
 6 -0.49862557175718 -0.63328657665767  0.53186656895690
 6  0.44696661986199 -0.76997361926193 -0.75696548664867
 8  0.03038325512551 -1.05093887158716 -1.85666305940594
 8  1.69729832823282 -0.30081001940194 -0.39932532013201
 7 -7.04534217761776  2.52285549544955  0.30634155825583
 6 -5.98380852465247  3.23095686308631  0.73410928702870
 6 -6.17276218461846  4.68322518611861  0.74540279897990
 6 -7.47698248354835  4.80798260346035  0.28126425282528
 6 -8.00623015051505  3.52074901370137  0.02167016561656
 6 -5.33096513041304  5.80420989468947  1.17326748194819
 6 -8.40396040404040  6.07488775837584  0.10308092059206
 6 -8.11702011201120  7.28285743544354  0.52073613291329
 7 -9.08608764986499  0.70913790819082 -0.60227680158016
 6 -9.82060954725472  1.80959428372837 -0.63334614811481
 6 -11.15913986668667  1.58497794229423 -1.04273913361336
 6 -11.13967345454545  0.21190873667367 -1.17369739803980
 6 -9.88693629722972 -0.37002719611961 -0.90843304460446
 6 -12.12388332603260  2.66759200060006 -1.47624707740774
 6 -12.30023381628163 -0.62208833263326 -1.78663799439944
 6 -12.24442635153515 -0.97217741004100 -3.29274992619262
 7 -7.24606756915692 -1.39380421612161 -0.13303597869787
 6 -8.27378170447045 -2.16172471797180 -0.46013759365937
 6 -7.92458449824982 -3.52988353975398 -0.42687298709871
 6 -6.60604839533953 -3.60422340444044  0.03093101140114
 6 -6.23307703940394 -2.18474643044304  0.14035587098710
 6 -8.58014035353535 -4.76393249164916 -0.82116549964996
 6 -5.36828229112911 -4.41039460286029  0.19518449254925
 8 -5.20242123442344 -5.65126198319832  0.10276622522252
 6 -4.21292579517952 -3.36818426582658  0.64828314991499
 6 -3.60660483728373 -3.77202514521452  1.95626159465947
 8 -3.89346212961296 -3.36209356725673  3.07125048324832
 8 -2.66495184798480 -4.74260287878788  1.83714275177518
 6 -2.28201715871587 -5.40241544744474  3.05669306970697
 6  2.78923524392439 -0.61647993689369 -1.37609112631263
 6  4.08566945214521 -0.37833310121012 -0.64554711751175
 6  5.06896238753875  0.45654218221822 -1.04664754175418
 6  4.99397312291229  1.31683935923592 -2.28147228222822
 6  6.41894817351735  0.41079169516952 -0.29769029342934
 6  7.51904335693569 -0.22160070807081 -0.93238356705671
 6  8.86428414001400 -0.05960777687769 -0.23844994739474
 6  10.18720418101810 -0.50437210041004 -0.94390011001100
 6  9.95774905150515 -1.87704558445845 -1.46606357235724
 6  11.36320098389839 -0.13741863296330 -0.10027799029903
 6  12.70847858335834 -0.51910194369437 -0.73274077917792
 6  13.86459773157316 -0.06180189448945  0.14805121672167
 6  15.25828181918192 -0.25387447104710 -0.37214286678668
 6  15.70118638963896 -1.66544493279328 -0.74330615691569
 6  16.38327532023202  0.24609112641264  0.49486422112211
 6  17.75196278397840  0.55381911151115 -0.12693922092209
 6  18.71827224582458  1.47902598109811  0.81463472017202
 6  20.23519632403240  1.39692912541254  0.31594830083008
 6  20.39244209000900  2.05993329842984 -1.09470416631663
 6  21.16690175717572  2.11293299319932  1.39627356735674
 1 -4.10771113461346  3.48694194559456  1.44396049184918
 1 -10.20073219651965  3.89057133163316 -0.46918144434443
 1 -10.24918934303430 -2.36426196129613 -1.12908072747275
 1 -2.56317360456046 -1.15956615931593  2.09532602330233
 1 -2.06630009630963  1.50876293739374  1.26573022202220
 1 -2.06488957535754  0.34008311471147  3.76239657705771
 1 -3.09691680078008  1.87006622942294  3.78301632383238
 1 -3.92009480998100  0.39968512281228  3.47221890709071
 1 -2.19807492649265 -1.62982365316532 -0.35763377047705
 1 -2.17572394139414  0.06589420922092 -0.59296603120312
 1 -0.25748117681768  0.46682626992699  1.05324918791879
 1 -0.21544996529653 -1.34949571617162  1.30306376467647
 1 -5.56726090379038  6.76566407840784  0.74588441974197
 1 -5.30319179047905  6.01558443984398  2.26509852235224
 1 -4.28701354595460  5.85593986198620  1.09044977757776
 1 -9.29886014581458  5.91099448144814 -0.46411776447645
 1 -8.77907697139714  8.16827654865487  0.32528230393039
 1 -7.24416234833483  7.47706454285429  1.21114007430743
 1 -11.83224369736974  3.35661480858086 -2.35107093859386
 1 -13.08152545024502  2.21843058545855 -1.84246997519752
 1 -12.14740577327733  3.37951528562856 -0.79084952445244
 1 -12.64655662056206 -1.44063498629863 -1.12188568946895
 1 -13.09204150325033  0.11856914641464 -1.53813956835684
 1 -13.20473567276728 -1.56873053515352 -3.45175613371337
 1 -12.03479388508851 -0.16860533183318 -4.00557953635364
 1 -11.49452429182918 -1.74620564776478 -3.60765904410441
 1 -8.69479409800980 -4.50618711951195 -2.01137720072007
 1 -8.07124150935094 -5.75395134843484 -0.63636359145915
 1 -9.78909308830883 -4.87337578597860 -0.38218048674868
 1 -3.44150166866687 -3.41683828942894 -0.20514825292529
 1 -1.76539992759276 -4.61211342474247  3.62833455105511
 1 -3.23902033933393 -5.83812333723372  3.52793383108311
 1 -1.54827534803480 -6.18054883968397  2.83001636273627
 1  2.37260531533153 -1.45432205500550 -1.91344279297930
 1  2.72756919821982  0.37549563436344 -2.08122918041804
 1  4.35876636333633 -0.96218463226323  0.28074947514751
 1  4.00735604710471  1.14310985368537 -2.59984046974698
 1  5.06878381058106  2.29002942684268 -2.14068150655065
 1  5.54529409790979  0.98087927882788 -3.13663992089209
 1  6.88578676257626  1.38045802640264  0.20549016291629
 1  6.20850872297230 -0.29133647034703  0.56218241374137
 1  7.24114623742374 -1.12677335033503 -1.24601935913591
 1  7.83268582708271  0.38271737473747 -1.72055287818782
 1  8.84615065936594  0.88615811331133  0.09635206330633
 1  8.82145526632663 -0.46770512321232  0.65183130653065
 1  10.25849048084809  0.23806995479548 -1.92050720872087
 1  9.11282089118912 -1.83637192069207 -1.94194257615762
 1  11.03516265686569 -2.05506890619062 -1.91663702180218
 1  9.71416361346135 -2.56297041174117 -0.74577197089709
 1  11.30734237583758  0.94125055845585  0.07415518631863
 1  11.17430502600260 -0.67318861646165  0.79783610371037
 1  12.83500145264527 -1.62381980128013 -0.84359663116312
 1  12.97977380728073 -0.11429649364936 -1.86687102080208
 1  13.73425484578458  1.07242260556056  0.25584041274127
 1  13.62318062866287 -0.58694507340734  1.16009838383838
 1  15.16537693909391  0.25162855985599 -1.24636590539054
 1  15.81897569436944 -2.25852519371937  0.14860672517252
 1  14.86635828022802 -2.44309882988299 -1.16566794029403
 1  16.65664394399440 -1.71599249624962 -1.18266477977798
 1  16.16291956545654  1.20795912961296  0.81206712301230
 1  16.63481755955596 -0.30431671647165  1.37672616731673
 1  18.31050778847885 -0.41123763776378 -0.44058425402540
 1  17.77389469906991  1.22647154125413 -0.97718346194619
 1  18.29503856075608  2.38151941994199  0.76543849064906
 1  18.67135309780978  1.08213305280528  1.99767301280128
 1  20.48942877517752  0.37923892149215  0.17094298649865
 1  20.23702052055206  3.07597837433743 -1.09741192589259
 1  21.44481828262826  2.00557169926993 -1.46999498069807
 1  19.76331472907291  1.51733202340234 -1.89694807920792
 1  21.16879073257326  1.56273191409141  2.35001867066707
 1  22.12284017681768  2.10668113881388  0.88224487808781
 1  20.66658673717372  3.15510162736274  1.56759389608961

