%nproc=4
%Mem=3GB
# td=(NStates=1) iop(3/107=0140000000,3/108=0140000000) CAM-B3LYP/6-31G(d,p) 

TD

0 1
12 -7.06992168386839  0.59716810031003  0.12965933593359
 6 -4.78933775027503 -1.86655388598860  0.62899830223022
 6 -4.84692072267227  2.81580029792979  1.32326243144314
 6 -9.46300306480648  3.16052360536054 -0.47434991029103
 6 -9.56918301630163 -1.72156392209221 -0.84758156305631
 7 -5.09802683388339  0.44937102770277  0.75982380638064
 6 -4.36077832513251 -0.66578772197220  0.82234012871287
 6 -2.88608482908291 -0.41095949394939  1.21901757085709
 6 -3.04161738863886  1.08656735833583  1.77435371467147
 6 -4.41153138783878  1.54883953505351  1.34307870177018
 6 -2.98874505530553  1.08854167346735  3.29365468006801
 6 -1.90175590529053 -0.46325231443144  0.09325313561356
 6 -0.48656436563656 -0.47137038503850  0.51082446474647
 6  0.50496241944194 -0.63248987088709 -0.56129591969197
 8  0.28178839563956 -0.90256403410341 -1.72147954105411
 8  1.89348794719472 -0.60005994439444 -0.08516390399040
 7 -7.11467911131113  2.70830404030403  0.24769569366937
 6 -6.04119426322632  3.41196496389639  0.71182705880588
 6 -6.40084499289929  4.77947481108111  0.64654291299130
 6 -7.68292307760776  4.83743554875488  0.26461258765877
 6 -8.18710823832383  3.55442238103810 -0.02594459585959
 6 -5.52913494739474  5.92788226192619  1.09223937913791
 6 -8.58781878987899  6.06159642924292  0.09285989848985
 6 -8.34285269526953  7.24783393309331  0.75173923322332
 7 -9.01271031213121  0.68869586398640 -0.56670324422442
 6 -9.88593607990799  1.84521784608461 -0.60459327282728
 6 -11.19518347104711  1.50421986648665 -1.12364722442244
 6 -11.24802428962896  0.10251779757976 -1.29153918221822
 6 -9.90148775237524 -0.35066525992599 -0.81964416571657
 6 -12.21462239993999  2.46577181858186 -1.34487394009401
 6 -12.38101189408941 -0.61230735453545 -1.66318564916492
 6 -12.30739264816482 -1.31827201950195 -3.06502715391539
 7 -7.26066902930293 -1.42180701640164 -0.07462013711371
 6 -8.27728205450545 -2.28693723922392 -0.45375695559556
 6 -7.76881892169217 -3.56075662706271 -0.48934923472347
 6 -6.45536332683268 -3.52686566866687 -0.03439552125213
 6 -6.17464119581958 -2.17925588138814  0.15743757915792
 6 -8.55407774727473 -4.76372247064706 -1.13156653975398
 6 -5.32878834173417 -4.32948651205121  0.18392336643664
 8 -5.07222821512151 -5.52146900390039  0.23730967956796
 6 -4.16838134073407 -3.25466291369137  0.60739906150615
 6 -3.62923710051005 -3.73145108780878  1.81412738123812
 8 -3.87032981638164 -3.24060141804180  3.01558491669167
 8 -2.70456580938094 -4.78120673917392  1.73286232373237
 6 -2.17357631463146 -5.31927713361336  3.00471787218722
 6  2.76565288568857 -0.70226851575158 -1.22844636183618
 6  4.12045293049305 -0.43384865276528 -0.68525108790879
 6  5.16190168146815  0.32446897489749 -1.17044992199220
 6  5.10167389298930  1.11002867816782 -2.38985312031203
 6  6.43123940264026  0.34818543454345 -0.33918444284428
 6  7.60086153875388 -0.32335088308831 -1.07076740544054
 6  8.96946465806581 -0.12411422752275 -0.28793489588959
 6  10.29126458705871 -0.56413807700770 -0.98555427542754
 6  10.10662393899390 -2.00782866276628 -1.49140610661066
 6  11.39076374017402 -0.34608950005000 -0.00401836433643
 6  12.66483421892189 -0.40284031753175 -0.73508101320132
 6  13.87234850665067 -0.10197591189119  0.03760017161716
 6  15.33471946294629 -0.12576165976598 -0.57258291079108
 6  15.60243651465147 -1.63360174847485 -0.95818764506451
 6  16.32823981668167  0.31030754805481  0.46261099579958
 6  17.81127871557156  0.53015674527453 -0.08187471447145
 6  18.75545596419642  1.21573965246525  0.84465772247225
 6  20.15696850125013  1.39052848534853  0.43020972697270
 6  20.41056390219022  2.17459476457646 -0.96738143404340
 6  21.09635470247025  1.88803050295030  1.51376531653165
 1 -4.14327469096910  3.51176442784278  1.88406450225022
 1 -10.14328645194519  3.95052732723272 -0.92454698089809
 1 -10.33663808790879 -2.40573610871087 -0.89612743214321
 1 -2.74422170937094 -1.28472867556756  1.98378486918692
 1 -2.19479294559456  1.47559962106211  1.38071172017202
 1 -1.91397448384838  1.02525163156316  3.66942728012801
 1 -3.44654176327633  2.12824204700470  3.71885990819082
 1 -3.67341014151415  0.25314046834683  3.57916960216022
 1 -2.01589670867087 -1.53592426322632 -0.48157616471647
 1 -2.11427779677968  0.31480910071007 -0.67842457705771
 1 -0.37304273297330  0.47835742304230  0.95228909190919
 1 -0.11462988328833 -1.19998076467647  1.33100655895590
 1 -5.52349652735274  6.86451396339634  0.48229806110611
 1 -6.01518298959896  6.31289417081708  2.07019903240324
 1 -4.40182502710271  5.79678394639464  1.37381811441144
 1 -9.51916217601760  6.10710409240924 -0.53479483218322
 1 -8.95512457615762  8.28962868386839  0.52143191889189
 1 -7.54620255235524  7.35500233663366  1.63002196249625
 1 -11.92924339733973  3.34730387748775 -1.93048888038804
 1 -13.17848514621462  2.13545228762876 -1.63399912811281
 1 -12.29685071777178  3.03418075217522 -0.41417185668567
 1 -12.54307627252725 -1.42464338713871 -0.87543104400440
 1 -13.24834713381338  0.06164345384538 -1.68913466786679
 1 -13.11336653585359 -1.89977363946395 -3.28233919201920
 1 -12.17779818551855 -0.68855732703270 -3.94488346674667
 1 -11.46988182758276 -2.01641266846685 -3.09920819901990
 1 -8.75791040964096 -4.95251175197520 -2.18581464446445
 1 -8.11732611781178 -5.70933688698870 -0.96770672577258
 1 -9.69622380138014 -4.96727517591759 -0.57312958165817
 1 -3.36262378087809 -3.38730533613361 -0.31410914901490
 1 -1.74298768636864 -4.44383659705971  3.64198591619162
 1 -3.13579001630163 -5.65773529842984  3.53526456415642
 1 -1.40370089058906 -6.05204598939894  2.67941130223022
 1  2.90624867966797 -1.74094071687169 -1.92136358505851
 1  2.55279172047205  0.20393847864786 -1.91979303680368
 1  4.42566305300530 -0.88928734253425  0.23096449664967
 1  3.95701101260126  1.26699224192419 -2.66950743644364
 1  5.51153808600860  2.29433985788579 -2.22841027942794
 1  5.51934150265027  0.70655184608461 -3.44708096499650
 1  6.70365854975498  1.29247922852285 -0.09439982608261
 1  6.45674354645465 -0.48338567526753  0.67316351185119
 1  7.41879400220022 -1.39488016101610 -1.04962972017202
 1  7.87208976747675 -0.06643754075408 -2.07686850975098
 1  9.25417146144614  1.01134063156316 -0.19033660556056
 1  8.83837695849585 -0.44142249494949  0.83724984838484
 1  10.25353998579858  0.09195534333433 -1.93962912091209
 1  9.27210681978198 -2.06610489398940 -1.91520990289029
 1  11.09618875947595 -2.50167356665667 -1.91258661676168
 1  9.64217641474147 -2.74551866656666 -0.64156154985499
 1  11.24814645624562  0.54303073647365  0.54084185498550
 1  11.33508110361036 -1.06228752635264  0.74351067116712
 1  12.93371132363236 -1.34176159545955 -1.02837510901090
 1  12.67674350425042  0.18500343634363 -1.68344267796780
 1  13.75457687798780  1.19716507980798  0.39849467816782
 1  13.80750906150615 -0.79335571447145  1.03258563256326
 1  15.31932233363336  0.56192958995900 -1.67017828662866
 1  15.69745354215422 -2.08174751595160 -0.03632176767677
 1  15.02671431583158 -2.05535005500550 -1.65289666316632
 1  16.51350963056306 -1.63166406340634 -1.51529804310431
 1  16.09458273177318  1.30304863856386  0.84382029832983
 1  16.25035911371137 -0.21631791659166  1.35658415311531
 1  18.27031376907691 -0.39642615661566 -0.44980517611761
 1  17.69934724432443  0.95646454055406 -1.04449019261926
 1  18.46894595149515  2.31179244724472  1.07246919371937
 1  18.74539050155015  0.74195903540354  1.84347759325933
 1  20.38608844114411  0.26361735933593  0.16235212741274
 1  20.02559937843785  3.23350412691269 -0.60389257395740
 1  21.41756555735574  2.28152929502950 -1.09677765896590
 1  19.91247964556456  1.78347863806381 -1.82581096549655
 1  20.77656150965096  1.30465610651065  2.38875254405441
 1  22.14547244004400  1.70547101780178  1.14807146074607
 1  20.88560863936394  3.08785490269027  1.62263940064006

