%nproc=4
%Mem=2GB
# td=(NStates=1) CAM-B3LYP/6-31G(d,p) 

TD

0 1
12 -7.12502307530753  0.59961870997100  0.09325701310131
 6 -4.89190380838084 -1.93156433483348  0.60108664136414
 6 -4.78470839973997  2.80717916521652  1.19284564946495
 6 -9.33579831533153  3.13656915241524 -0.44339719941994
 6 -9.46339665336534 -1.71834734573457 -0.91191762086209
 7 -5.03014643924392  0.51303112121212  0.56297671597160
 6 -4.40672037813781 -0.65133495549555  0.81591961516152
 6 -2.98239724512451 -0.43318274397440  1.35019537373737
 6 -2.99543298169817  1.06568923722372  1.77604833553355
 6 -4.32355935083508  1.48611936073607  1.05950298019802
 6 -3.21249633173317  1.19377166526653  3.22920432933293
 6 -1.92329579057906 -0.53479874127413  0.12870682898290
 6 -0.55581300390039 -0.42153650085009  0.66461059035904
 6  0.49283042024202 -0.63453696659666 -0.44588996949695
 8  0.17814905500550 -0.93864927252725 -1.62719905160516
 8  1.82427423792379 -0.47274467086709  0.01560477157716
 7 -7.07827827572757  2.68462405220522  0.24320301580158
 6 -6.05981526052605  3.37641861766177  0.76187972157216
 6 -6.46183343644364  4.74775906530653  0.79119980718072
 6 -7.71303401040104  4.78077870937094  0.37726611791179
 6 -8.08124239583958  3.47549674497450  0.05183773007301
 6 -5.50158811551155  5.79505197109711  1.17595235573557
 6 -8.63019081668167  5.88954998869887  0.23151013641364
 6 -8.48981287258726  7.11953807240724  0.85882213201320
 7 -9.17154942754275  0.60972383348335 -0.45377941164116
 6 -9.85509176887689  1.87249720282028 -0.67117344144414
 6 -11.16570566716672  1.42936127522752 -1.09874159365937
 6 -11.16166857075708  0.10529589368937 -1.36303501750175
 6 -9.84472015271527 -0.37011898619862 -0.94550956705671
 6 -12.18394721842184  2.45710628162816 -1.45952272707271
 6 -12.24833938023802 -0.77400481058106 -1.97880868936894
 6 -12.01896938533853 -1.07867027822782 -3.54858997759776
 7 -7.20967043534353 -1.36695630923092 -0.14916959395940
 6 -8.22444268406841 -2.20616578867887 -0.40505546074607
 6 -7.77205335093509 -3.69137740524052 -0.42066934423442
 6 -6.47280116421642 -3.62588692569257 -0.06632836473647
 6 -6.18985158155816 -2.22283056435644  0.06874967916792
 6 -8.68882635003500 -4.81666450885089 -0.96857533593359
 6 -5.21292576287629 -4.37950183368337  0.25640851345135
 8 -4.94937377527753 -5.49932441584158  0.38914594529453
 6 -4.15376895629563 -3.25008079787979  0.54916478177818
 6 -3.57586821772177 -3.62078730003000  1.91798217111711
 8 -3.88855045564556 -3.02708944514451  2.92480516161616
 8 -2.74950614431443 -4.69312403480348  1.87756633753375
 6 -2.27477806570657 -5.09651388048805  3.13232816831683
 6  2.76926943864386 -0.65673346794679 -1.18858005840584
 6  4.09553164216422 -0.51406958325833 -0.54501465046505
 6  5.11359484388439  0.34235050045004 -0.90150992369237
 6  4.98611703470347  1.08203085238524 -2.18474263956396
 6  6.40669500230023  0.40549239943994 -0.23796028122812
 6  7.64746228412841 -0.25479582648265 -0.92292924342434
 6  8.97106897949795 -0.08573370377038 -0.15664747754775
 6  10.20441106560656 -0.55081215291529 -1.00173114361436
 6  10.09203590379038 -1.99335027112711 -1.60626409140914
 6  11.43458633553355 -0.37540132093209 -0.08525765716572
 6  12.81862677037704 -0.49552360346035 -0.78096811971197
 6  13.93412288068807 -0.04613581638164  0.11791885938594
 6  15.38501462636264 -0.20533426252625 -0.50684892469247
 6  15.73951562046205 -1.65528316211621 -0.96356597429743
 6  16.37882198809881  0.27425178517852  0.47146165336534
 6  17.73646823622362  0.55442684108411 -0.20914672927293
 6  18.68809917941794  1.18424664166417  0.68719915291529
 6  20.19221789098910  1.44044437793779  0.17632239543954
 6  20.24223557735774  2.29944824202420 -1.02440343304330
 6  21.11938286908691  1.83534647094709  1.28372373577358
 1 -4.14583606810681  3.58304382578258  1.45723030993099
 1 -10.15601599429943  3.96739757475748 -0.51626701820182
 1 -10.25017830723072 -2.38094743554355 -1.24297094929493
 1 -2.62492894979498 -1.06920523442344  2.19014970617062
 1 -2.12068567376738  1.73594717731773  1.38917956835683
 1 -2.31770622812281  0.70037048994899  3.82356607010701
 1 -3.34150921092109  2.32927698519852  3.57603976937694
 1 -3.84828827152715  0.56158084208421  3.46930934373437
 1 -2.12326481138114 -1.52345230563056 -0.28426233543354
 1 -2.14843651615161  0.27126437683768 -0.65060510011001
 1 -0.31057457485749  0.58879349324932  1.03570396949695
 1 -0.17248505050505 -1.01043555875588  1.33963791899190
 1 -5.77270604600460  7.00675932003200  0.90803651285129
 1 -5.53380036943694  5.94531789488949  2.34032032913291
 1 -4.63157711371137  5.55622678907891  0.91353452905291
 1 -9.51201325382538  5.95511165926593 -0.49437966616662
 1 -9.32458367426743  7.80009074797480  0.65200482228223
 1 -7.82518198399840  7.27173357285729  1.70923930943094
 1 -11.56301040614061  3.17121744774477 -2.31956496119612
 1 -13.18175784498450  2.09204309550955 -1.74938613011301
 1 -12.71735346644665  3.18202685738574 -0.66453769776978
 1 -12.24622940134013 -1.71777122222222 -1.35602055695570
 1 -13.29067778667867 -0.24248098489849 -1.91056658415842
 1 -12.89992634523452 -1.59366405260526 -4.02749263376338
 1 -12.04974853905391 -0.27310184778478 -4.21933542924292
 1 -11.18911519081908 -1.68840370747075 -3.64761338133813
 1 -8.69558916191619 -4.94824556745675 -2.18256152025202
 1 -8.13902326712671 -5.71262126632663 -0.61946155915592
 1 -9.70120000490049 -4.73216823812381 -0.27702952555256
 1 -3.44068476437644 -3.22867611831183 -0.22131740324032
 1 -1.52787095359536 -4.27791423112311  3.40547346264626
 1 -3.19946955555556 -5.26639825742574  3.82616545544554
 1 -1.54923303480348 -5.89837911111111  2.87218117101710
 1  2.45106441054105 -1.67310914681468 -1.50173413841384
 1  2.53674115171517  0.02281656125613 -1.96437959015902
 1  4.28050895649565 -1.14739695489549  0.40149336533653
 1  3.91959092259226  0.93917262766277 -2.74971334103410
 1  5.15424083578358  2.18041830073007 -2.13017948614861
 1  5.86357366496650  0.78748985648565 -2.92238096909691
 1  6.71594365726573  1.44622862286229 -0.14537189438944
 1  6.38634275367537  0.21760372297230  1.00346006270627
 1  7.19562694739474 -1.14215345054505 -1.28786010961096
 1  7.81979441534153  0.27985119321932 -1.80452337593759
 1  9.12362441404140  1.00906879187919  0.14925255745575
 1  9.06997548624863 -0.72799830603060  0.74710257395740
 1  10.22299985138514  0.14289682738274 -1.81030592009201
 1  9.26187117261726 -2.18170614711471 -2.12721864666467
 1  11.03168572427243 -2.29596638053805 -2.01127537143714
 1  10.00338322432243 -2.76725866786679 -0.74403384308431
 1  11.61223890479048  0.78879110931093  0.19726121362136
 1  11.54785783918392 -1.08029399069907  0.74964558615862
 1  12.90704402330233 -1.68187634883488 -1.08921658925893
 1  12.81347510001000  0.01689238023802 -1.65711907320732
 1  13.67528896559656  1.02417497349735  0.38224556755676
 1  13.85388814191419 -0.81567117181718  0.90017653415342
 1  15.36334962346235  0.47680716571657 -1.31953631163116
 1  15.87465490839084 -2.27495778787879 -0.03139459335934
 1  14.91187423812381 -2.10888326392639 -1.82022943804380
 1  16.76569619901990 -1.58709423432343 -1.46552802230223
 1  15.86300150085008  1.09357719141914  0.87040358465847
 1  16.42444689188919 -0.34349352445245  1.43758651985198
 1  18.08266920562056 -0.41871841924192 -0.62074541494149
 1  17.45932299679968  1.02050936983698 -1.13597717351735
 1  18.15150594319432  2.25045920362036  0.81185919121912
 1  18.53113027332734  0.65669985098510  1.72444244454445
 1  20.41577649034904  0.36259240744074 -0.29762269826983
 1  20.10405451205120  3.45353891579158 -0.76608020142014
 1  21.28855310741074  2.27505415821582 -1.39389075237524
 1  19.39659356375638  1.84855666646665 -1.79018598759876
 1  21.24821079627963  1.21131924102410  2.20255987318732
 1  22.09270097639764  2.00271150085009  0.98463342964296
 1  20.69277900780078  3.08479856315632  1.43007344784478

