%nproc=4
%Mem=2GB
# td=(NStates=1) CAM-B3LYP/6-31G(d,p) 

TD

0 1
12 -7.16509708270827  0.64605335343534 -0.00567287988799
 6 -4.82127674567457 -1.92872405080508  0.54608114081408
 6 -4.80181010991099  2.82722116941694  1.06443280818082
 6 -9.47256199169917  3.05640113561356 -0.27742060176018
 6 -9.53749406310631 -1.79078458945895 -0.85756218531853
 7 -5.08397182178218  0.49050886898690  0.70071048934893
 6 -4.32645235133513 -0.72370219221922  0.81504952815282
 6 -2.96932593799380 -0.40644006970697  1.26882723692369
 6 -3.07370080848085  1.10588325662566  1.72215294599460
 6 -4.42433942884288  1.52156290509051  1.11185821572157
 6 -3.18727380948095  1.19700198829883  3.18900030893089
 6 -1.96816027702770 -0.40985624702470  0.07016097439744
 6 -0.48628605120512 -0.35305965316532  0.50374450375038
 6  0.46766790399040 -0.56508002090209 -0.74892027252725
 8  0.15389662976298 -1.05494090169017 -1.75368169986999
 8  1.78428023852385 -0.39381677807781 -0.31022781168117
 7 -7.09633008090809  2.65076066586659  0.28245694119412
 6 -6.03141242024202  3.37641861766177  0.66137967156716
 6 -6.39079633273327  4.76985127452745  0.66035672287229
 6 -7.73963667066707  4.86858749024902  0.29329772107211
 6 -8.15095936753676  3.48565776107611  0.10503304960496
 6 -5.53983193989399  5.89201166706671  1.25087984848485
 6 -8.67407520512051  5.91299233293329  0.17936492189219
 6 -8.48739263056306  7.08820493909391  0.87002325212521
 7 -9.02782505510551  0.65399826092609 -0.61573560726073
 6 -9.84375063476348  1.73889384248425 -0.62352867696770
 6 -11.30283938053805  1.44395273437344 -1.06835855535554
 6 -11.22855525942594  0.07958332243224 -1.24818353235324
 6 -9.94101978267827 -0.39398137243724 -0.83801881798180
 6 -12.27462628632863  2.44744531553155 -1.39811658645865
 6 -12.38534308060806 -0.91038844894489 -1.60222103060306
 6 -12.37610509890989 -1.23850626182618 -3.15990110871087
 7 -7.21989145744574 -1.35543515711571 -0.13011768876888
 6 -8.25992623242324 -2.20424559665967 -0.52870782598260
 6 -7.79780592619262 -3.58371663916392 -0.46537381468147
 6 -6.44627851195120 -3.60988532553255 -0.06803853575358
 6 -6.20118271467147 -2.17454573587359  0.12711551575158
 6 -8.73856132353235 -4.71393423582358 -0.88442692109211
 6 -5.28790326062606 -4.34553843734373  0.23658653125313
 8 -5.09656849474947 -5.60760524392439  0.23765079577958
 6 -4.13263684308431 -3.26311210101010  0.54465433073307
 6 -3.56857748864887 -3.61991721302130  1.91055142804280
 8 -3.72352395299530 -3.12677941414141  2.96222890399040
 8 -2.61747294099410 -4.61900662306231  1.70342892379238
 6 -2.04885547344734 -5.08387261636164  3.05219015451545
 6  2.76822933463346 -0.57526532113211 -1.28619982038204
 6  4.19303139213921 -0.49711788808881 -0.65195534453445
 6  5.20143362776278  0.38850511591159 -1.00311008370837
 6  5.04767319031903  1.26164881418142 -2.25078924422442
 6  6.47122145494549  0.39737158735874 -0.25914239943994
 6  7.73068060596060 -0.17497784468447 -1.04594154465447
 6  8.93034490709071 -0.04470960136014 -0.20597241004100
 6  10.19932055655566 -0.58265533723372 -0.95251622212221
 6  10.01945864606460 -2.03583451955196 -1.30626409140914
 6  11.39984286118612 -0.27800158095810 -0.03107223862386
 6  12.75265017271727 -0.49940399149915 -0.67641766466647
 6  13.89903937233723 -0.12096329912991  0.12157922542254
 6  15.29071519641964 -0.20036376547655 -0.44097233703370
 6  15.84638630753075 -1.64271190499050 -0.89471908960896
 6  16.41857596349635  0.35289964996500  0.56143065026503
 6  17.87283187258726  0.55253665206521 -0.16533234783478
 6  18.87807817731773  1.18010622762276  0.68929936293629
 6  20.33885255445545  1.31705203870387  0.31823658685869
 6  20.50943229702970  1.86117441464146 -1.00455144784478
 6  21.10666159695970  2.00991392769277  1.42262762616262
 1 -4.20420190469047  3.43342886428643  1.56500108700870
 1 -10.16926731943194  4.00401123612361 -0.16482187368737
 1 -10.24361765116512 -2.60640998179818 -1.01659831203120
 1 -2.63054951185118 -1.05354366826683  1.96145683688369
 1 -2.26384999019902  1.72065564816482  1.39009966036604
 1 -2.30816527402740  0.68010846374637  3.82152586608661
 1 -3.26843190319032  1.94578863636364  3.81146331173117
 1 -4.23539698239824  0.77774245824582  3.48368078087809
 1 -2.03733621852185 -1.47485744614461 -0.40228413761376
 1 -2.09574124662466  0.30212746314631 -0.64659469906991
 1 -0.25281879927993  0.65093970787079  1.00709110821082
 1 -0.32032983498350 -1.14875939113911  1.13097705290529
 1 -5.69938871427143  6.93352199629963  0.86290199939994
 1 -5.55045203460346  6.16139950305030  2.25679197629763
 1 -4.45219917591759  5.74792595899590  1.00398357395740
 1 -9.61271332383238  5.39874602270227 -0.40792102030203
 1 -9.19466068196820  8.04983572247225  0.92846246804680
 1 -7.71521098689869  7.13915031453145  1.62487087258726
 1 -12.34074817991799  2.95718604460446 -2.47815081978198
 1 -13.39055872507251  1.75125901710171 -1.50946213771377
 1 -12.52865459655966  3.09402805750575 -0.57433867786779
 1 -12.35655043344335 -1.81428087318732 -0.92070702560256
 1 -13.37479619851985 -0.31785852265227 -1.28263379087909
 1 -13.15901225382538 -1.87920260646065 -3.42837272177218
 1 -12.39084264846485 -0.44079861746175 -3.88490198589859
 1 -11.31158743804381 -1.75138000510051 -3.48260688068807
 1 -8.72039164216422 -4.72658340124012 -1.96393965806581
 1 -8.09106847164716 -5.57618762296230 -0.82645225822582
 1 -9.66036592149215 -4.84538956025603 -0.34511633423342
 1 -3.52531322722272 -3.32968621932193 -0.25449072057206
 1 -0.94968313481348 -4.30665710541054  3.32397531283128
 1 -2.84515412401240 -5.15769738733873  3.81465430433043
 1 -1.63452156365637 -6.16523579677968  2.85584953785379
 1  2.59105840994099 -1.56526836273627 -1.72842680768077
 1  2.50337781538154  0.20728500810081 -2.08907205940594
 1  4.33504441004100 -1.35143735893589  0.00543375937594
 1  4.05265422892289  1.27455616601660 -2.60504887458746
 1  5.51805721742174  2.31898215711571 -2.33175964416442
 1  5.67870517811781  0.64204531203120 -2.92426115711571
 1  6.61569363226323  1.46515051505150  0.05868851165117
 1  6.51230534993499 -0.20362840024002  0.58259797649765
 1  7.53868125282528 -1.39436867206721 -1.33853517711771
 1  7.95079751565156  0.53091629972997 -1.77053997759776
 1  9.08256030763076  1.06419430443044  0.00591822402240
 1  8.82358084678468 -0.41179668586859  0.91100896459646
 1  10.36756430783078  0.20091262896290 -1.67916280578058
 1  9.30679566506651 -1.97913589008901 -2.11951787658766
 1  10.91399395509551 -2.61988877277728 -1.47855209910991
 1  9.63356624262426 -2.57391933393339 -0.27114655435544
 1  11.42488016891689  0.68996122632263  0.52022350985098
 1  11.25715876927693 -1.10435639693969  0.84955557715772
 1  12.77640095899590 -1.45020318151815 -1.06636430403040
 1  12.52973672617262  0.01513220422042 -1.64486784808481
 1  13.72191362806281  0.80719327532753  0.53847119011901
 1  13.79269202230223 -0.98457806250625  0.87100361686169
 1  15.45857914641464  0.49446893189319 -1.37499185718572
 1  16.09560700360036 -2.30280057215722  0.07708625472547
 1  15.16769982068207 -2.13303567916792 -1.71175859095910
 1  16.84108373777378 -1.37270279517952 -1.35844731423142
 1  16.12033723442344  1.40637847154715  0.79082562686269
 1  16.57623207040704 -0.00325950105010  1.39122188338834
 1  18.13541448014801 -0.45330187758776 -0.40484382478248
 1  17.89991705620562  0.99478679757976 -1.11847542334233
 1  18.43581437403740  2.40883504120412  0.82812081738174
 1  18.60980814111411  0.79946412741274  1.89463946424642
 1  20.71592650535053  0.19380552875288  0.49455651965196
 1  20.06251035763576  2.86369993189319 -1.01420501390139
 1  21.65508976107611  2.03959061186119 -1.34508587188719
 1  20.20313421782178  1.33162497329733 -1.82675964496450
 1  20.92982895809581  1.51979008810881  2.43908352555256
 1  22.12480418671867  1.96690792049205  1.22092705900590
 1  20.90348007790779  3.16717680098010  1.30685112561256

