%nproc=4
%Mem=2GB
# td=(NStates=1) CAM-B3LYP/6-31G(d,p) 

TD

0 1
12 -7.12734330733073  0.56051479957996  0.03129081648165
 6 -4.93086770477048 -1.93536471487149  0.47474400710071
 6 -4.81984191309131  2.82719116641664  1.16649301420142
 6 -9.40218495399540  3.10173566906691 -0.53316617631763
 6 -9.54376469016902 -1.70937644864486 -0.85788221732173
 7 -5.08293171777178  0.42706252435244  0.69580999929993
 6 -4.32507221332133 -0.75605542754275  0.77934595779578
 6 -2.91666067146715 -0.37443686938694  1.14567492169217
 6 -2.97380081848185  1.00786345464546  1.58711944264426
 6 -4.43054004890489  1.53504425322532  1.02213924382438
 6 -2.94119920202020  1.24135642374237  3.08862027092709
 6 -1.92400586158616 -0.64333959535954  0.08907286558656
 6 -0.51261868446845 -0.51752609980998  0.56867099639964
 6  0.40117125432543 -0.74466797969797 -0.44304968546855
 8  0.20111135123512 -1.15055046264626 -1.62770910261026
 8  1.67924973547355 -0.53395079147915  0.00583379447945
 7 -7.07921836973697  2.60507609740974  0.27509620512051
 6 -6.05870514951495  3.30917189298930  0.73087662126213
 6 -6.44695194829483  4.68688297769777  0.86876756395640
 6 -7.72525523252325  4.82500313181318  0.30084847614761
 6 -8.18061233283328  3.50234943024302 -0.03742119581958
 6 -5.46869482618262  5.80916338223822  1.26155091559156
 6 -8.52253005060506  5.98996002970297  0.09922690809081
 6 -8.41706559785979  7.10914703330333  0.77202345214521
 7 -9.10624289688969  0.73011587268727 -0.58965299899990
 6 -9.89567582728273  1.84008396149615 -0.76899322342234
 6 -11.12185128172817  1.45135347444745 -1.22453417291729
 6 -11.26607901180118  0.10444580868087 -1.33670238423842
 6 -9.86357203790379 -0.36885886018602 -0.93652866896690
 6 -12.28715753945395  2.51496206720672 -1.39983675847585
 6 -12.49384393069307 -0.57634504460446 -1.80623143164316
 6 -12.32447993639364 -1.01700411161116 -3.31239635823582
 7 -7.31148061636164 -1.35142475607561 -0.18083276027603
 6 -8.30545078487849 -2.19632480458046 -0.49480443564356
 6 -7.94662080768077 -3.64039230673067 -0.52488976627663
 6 -6.54129801390139 -3.48902323932393 -0.03827555945595
 6 -6.27797039343934 -2.18616689798980  0.17998080228023
 6 -8.66612407980798 -4.90105294769477 -0.70903938233823
 6 -5.43607807810781 -4.41435531903190  0.28457132973297
 8 -5.32950178807881 -5.57535201860186  0.26905393609361
 6 -4.26247982738274 -3.33343913371337  0.56921678697870
 6 -3.56756738763876 -3.63385860716072  1.84307468036804
 8 -3.75631723232323 -3.17598433463346  2.97591027212721
 8 -2.62757395109511 -4.71095581798180  1.68578715961596
 6 -2.14508509640964 -5.18067229632963  2.88770370587059
 6  2.83000551225122 -0.55477327192719 -0.86756795719572
 6  4.20946303530353 -0.40033821012101 -0.28865901490149
 6  5.17616110051005  0.42724899029903 -0.76258603130313
 6  5.05888431143114  1.24413706300630 -2.05499966526653
 6  6.59530386318632  0.43422527272727 -0.13755024022402
 6  7.74870240814081 -0.20990133703370 -0.93330028052805
 6  9.04171604420442 -0.07871300170017 -0.16885869866987
 6  10.22831345584558 -0.63547061876188 -0.85598656915692
 6  10.03274997519752 -2.12570350645065 -1.24884834983498
 6  11.53247612451245 -0.33358713951395 -0.07074620602060
 6  12.80167507520752 -0.39519357045705 -0.91193121602160
 6  14.03982345074507 -0.12100330313031 -0.01496442894289
 6  15.39775590049005 -0.28041177027703 -0.65101334113411
 6  15.77845951485148 -1.67443507730773 -1.03452307000700
 6  16.51628573447345  0.34073843384338  0.38567307450745
 6  17.91019560896089  0.54233563196320 -0.21341715631563
 6  18.78582895239524  1.31004922192219  0.77435786878688
 6  20.21029969916992  1.44510484398440  0.24571933513351
 6  20.37582893669367  2.16305460266027 -1.01187217991799
 6  21.13072400320032  2.18840177647765  1.26687205060506
 1 -4.20864234873487  3.48367388878888  1.53538812571257
 1 -10.12777317001700  4.03754458945895 -0.61684707620762
 1 -10.22959624902490 -2.41298063886389 -0.82891954415442
 1 -2.67787424432443 -1.06280459435944  2.14596528772877
 1 -2.19551315651565  1.56717029962996  1.02727337773777
 1 -1.97346180368037  1.14501495439544  3.60136384988499
 1 -3.22860792079208  2.38664272177218  3.43948611401140
 1 -3.71496493919392  0.67442212621262  3.87633004580458
 1 -2.05612809770977 -1.75765572597260 -0.37365127432743
 1 -2.39865153765377 -0.07790053965397 -0.72454249384939
 1 -0.12472598999900  0.28093270717072  1.23095349444944
 1 -0.43357115911591 -1.20988550375037  1.41401535673567
 1 -5.75613438883888  6.89253789788979  0.87083279247925
 1 -5.29426641604160  5.89700306340634  2.25828212531253
 1 -4.35952990899090  5.62099326572657  0.81062423802380
 1 -9.48925097759776  5.90925707380738 -0.52583281148115
 1 -8.98226944284428  7.95167590649065  0.45696531833183
 1 -7.73513297909791  7.10291669116912  1.59881826732673
 1 -11.92816692179218  3.23358368436844 -2.11277428212821
 1 -13.03956362556256  1.95144903610361 -1.60413160466047
 1 -12.56056778787879  3.06076473117312 -0.43138438243824
 1 -12.58722350075008 -1.53637308240824 -1.54043899879988
 1 -13.42535125402540 -0.13648038483848 -1.70541606910691
 1 -13.25833218581858 -1.67599228542854 -3.66414629912991
 1 -12.03138670287029 -0.11356589418942 -3.81772526822682
 1 -11.47895417471747 -1.82669753685369 -3.48895751575157
 1 -8.80667027002700 -5.06204694759476 -1.93637690179018
 1 -7.91814117891789 -5.66508651285128 -0.45277489048905
 1 -9.65317520242024 -4.91261628292829 -0.40852267486749
 1 -3.50560125602560 -3.42355560626063 -0.25242051355136
 1 -1.52902106860686 -4.49903634333433  3.41895481078108
 1 -2.95521513011301 -5.49451106870687  3.69351219011901
 1 -1.56038414991499 -6.12489176237624  2.57744169706971
 1  2.75242454655466 -1.60975281118112 -1.42912687768777
 1  2.55575305290529  0.19316359595960 -1.68041119331933
 1  4.23935484108411 -0.86896911211121  0.79182239823982
 1  3.86762572607261  1.57253596399640 -2.09920829052905
 1  5.73234864656466  2.09584984388439 -1.90292676087609
 1  5.55766307390739  0.48017912541254 -2.93574230523052
 1  6.93149521242124  1.56958095809581  0.09965260806081
 1  6.46665078447845  0.11683364596460  0.83332304900490
 1  7.58128551325133 -1.37866710191019 -1.19663098669867
 1  7.85190762666267  0.46664987308731 -1.82189511311131
 1  9.17429948154815  0.98161604660466  0.09305693789379
 1  8.95806429512951 -0.52215772197220  0.91581944564456
 1  10.21628918031803 -0.03275073737374 -1.68502339183918
 1  9.10850583608361 -2.00519849634963 -2.00452637743774
 1  10.81820437613761 -2.60023680758076 -1.74063830773077
 1  9.74377726372637 -2.71401334333433 -0.34731417111711
 1  11.48441612251225  0.67975020522052  0.43617510501050
 1  11.69431248464847 -1.16412237353735  0.67182780438044
 1  12.76087940684068 -1.47228538973897 -1.41157882548255
 1  12.67375112761276  0.33891458245825 -1.65448881018102
 1  13.89307074377438  0.96384894089409  0.36910425342534
 1  13.82650540364036 -0.83380298499850  0.84855137163716
 1  15.56592988148815  0.29560904590459 -1.65240959895990
 1  15.86464390729073 -2.29163945604561 -0.04293574747475
 1  15.02912596329633 -2.07260963656366 -1.70028744384438
 1  16.75671530093009 -1.75984150905091 -1.68319978947895
 1  16.08266346704670  1.21420925462546  0.68445498979898
 1  16.39718416561656 -0.37410658575858  1.25059782098210
 1  18.38438937763776 -0.49457600500050 -0.51218455885589
 1  17.70339740424043  1.09814713361336 -1.03519709550955
 1  18.35411620422042  2.31500565826583  0.86351435673567
 1  18.79675683598360  1.12834701570157  1.81391139143914
 1  20.54471938463847  0.48822497069707  0.10646771077108
 1  19.89474358095809  3.14989855175518 -0.95942953635363
 1  21.34452870497050  2.31177783058306 -1.49114047734774
 1  19.98785268966897  1.51289310011001 -1.76018298729873
 1  21.34465044024402  1.74992310141014  2.33793341054105
 1  22.18919062536254  2.25875710541054  0.93067803410341
 1  20.76218594849485  3.23766384968497  1.17585802630263

