%nproc=4
%Mem=2GB
# td=(NStates=1) CAM-B3LYP/6-31G(d,p) 

TD

0 1
12 -7.11925249824982  0.62821156925693  0.10197788518852
 6 -4.80487510551055 -1.98780995939594  0.53263979667967
 6 -4.84455438433843  2.79359780708071  1.28224458935894
 6 -9.52473720922092  3.01385688118812 -0.31487434713471
 6 -9.45197551125113 -1.77010252125213 -0.90514694379438
 7 -5.03846727132713  0.39144896299630  0.76994741304130
 6 -4.28251795789579 -0.71447126912691  0.87286530973097
 6 -2.90687969336934 -0.43373279897990  1.30964131833183
 6 -3.09456289468947  1.11957462576258  1.76457718841884
 6 -4.46364335923592  1.52981373017302  1.25406243614361
 6 -2.69913499559956  1.42869515761576  3.26990839973997
 6 -1.88331179217922 -0.61609687108711  0.23886784508451
 6 -0.44464188678868 -0.29891423862386  0.69702383168317
 6  0.53036417361736 -0.54504801770177 -0.47571295179518
 8  0.24066530663066 -0.77010241784178 -1.66389272097210
 8  1.74261607210721 -0.17253464986499 -0.14234102300230
 7 -7.20951139903990  2.53998958875888  0.32793148864886
 6 -6.12069134813481  3.25788676447645  0.82583611721172
 6 -6.49740699379938  4.70976526592659  0.67645833303330
 6 -7.74532723972397  4.81927255875588  0.25765415671567
 6 -8.20454472607261  3.46377557285729 -0.06142359605961
 6 -5.62071002770277  5.90161262716272  1.04554931543154
 6 -8.59530732833283  6.05288632233223  0.01968895429543
 6 -8.43933782508251  7.17606372497250  0.73943019281928
 7 -9.07019929252925  0.59627248834883 -0.54468850255026
 6 -9.89318557825782  1.68669862296230 -0.75942226632663
 6 -11.17425652225223  1.31899023812381 -1.18335005450545
 6 -11.19772217611761 -0.08716335223522 -1.33787250125013
 6 -9.85284096479648 -0.46573854815482 -0.95897091319132
 6 -12.27570639433943  2.32914348534853 -1.54162093689369
 6 -12.32324687098710 -0.90924833493349 -1.76230703920392
 6 -12.33362085048505 -1.20688309950995 -3.23845896449645
 7 -7.22293176147615 -1.35064467806781 -0.16366104310431
 6 -8.22876311611161 -2.26916208830883 -0.56569152435244
 6 -7.76375252085209 -3.57822609010901 -0.55380265756576
 6 -6.42163604770477 -3.57144148114812 -0.07410914281428
 6 -6.14514711111111 -2.27144542584258  0.06860966516652
 6 -8.48744621202120 -4.84183702610261 -0.83637211561156
 6 -5.30819528982898 -4.35907979147915  0.15522839543954
 8 -5.10881971987199 -5.58609309270927  0.12669970067007
 6 -4.17604118351835 -3.41903769356936  0.58588845414541
 6 -3.59771040194019 -3.72612783408341  1.92496286918692
 8 -3.78820042064206 -3.14749148534853  2.99727240834083
 8 -2.60037123082308 -4.69066378877888  1.81500008090809
 6 -2.00040062796280 -5.21651588068807  3.01376631213121
 6  2.83973648534853 -0.24355214981498 -1.21103230363036
 6  4.08119020802080 -0.01997017331733 -0.41161131013101
 6  5.13112659705971  0.61421768716872 -0.90049982268227
 6  5.08145656865686  1.39591224052405 -2.26848101340134
 6  6.47059139193919  0.69258110831083 -0.05523200840084
 6  7.56473401130113  0.03356300940094 -0.90260721122112
 6  8.84588646124612 -0.04961009140914 -0.06085789858986
 6  10.10779140364036 -0.50362743444344 -0.93841481198120
 6  9.98569526972697 -1.92939387548755 -1.44467793279328
 6  11.34813769066907 -0.31163494429443 -0.09706883828383
 6  12.66014092179218 -0.58569262036204 -0.79966998989899
 6  13.85467493589359 -0.12050325312531  0.05378244574457
 6  15.23079920482048 -0.26632036113611 -0.57940618041804
 6  15.47962963186319 -1.74068170197020 -0.97660727842784
 6  16.36092019791979  0.29174353435344  0.34960946814681
 6  17.80586517591759  0.30867226562656 -0.21602741734173
 6  18.81348171767177  1.11192940994099  0.74266469946995
 6  20.31473014221422  1.17181751525153  0.24326909010901
 6  20.40181153495350  1.87748604580458 -1.02690368306831
 6  21.22517344814482  1.72502543884388  1.44829019241924
 1 -4.22441392589259  3.61184670607061  1.85148973587359
 1 -10.19727011971197  3.84687552255226 -0.61953734523452
 1 -10.10782407180718 -2.57204654545455 -1.24189084128413
 1 -2.66975343224322 -1.05124343824382  2.20305099629963
 1 -2.32898650385039  1.63052663526353  1.31231188158816
 1 -1.66301075857586  1.26267672057206  3.44457817131713
 1 -2.84703976397640  2.47524158165817  3.31785395079508
 1 -3.19153259595960  0.82351703570357  4.08907131993199
 1 -1.72781526642664 -1.59247920832083 -0.07468137733773
 1 -2.27011868436844 -0.11962471207121 -0.58636867646765
 1 -0.23716723412341  0.79785439933993  1.20378077717772
 1 -0.35882368436844 -0.92274678987899  1.53562751795179
 1 -5.93865264066407  6.94617326142614  0.44475018421842
 1 -5.64807179657966  6.05977934103410  2.09901619871987
 1 -4.62510646664667  5.60317148354835  0.87545072067207
 1 -9.25504755725573  5.97726387448745 -0.77471769997000
 1 -9.00702191809181  8.02691343024302  0.71152077387739
 1 -7.60290975677568  7.13368976847685  1.50035842134213
 1 -11.95404951005101  2.86381670767077 -2.28560156485649
 1 -13.20408007720772  1.67950184138414 -1.80856204770477
 1 -12.79567129822982  2.98766742144214 -0.73203444744474
 1 -12.34076885528553 -1.80648009310931 -1.08197315221522
 1 -13.13503222212221 -0.07564430123012 -1.67072259975998
 1 -13.21011736433643 -1.89443412961296 -3.55493537803780
 1 -12.33866743094310 -0.27890242784278 -4.03755725142514
 1 -11.47101338063806 -1.81763663076308 -3.67527614761476
 1 -8.40518012101210 -4.97116785968597 -1.92603586768677
 1 -8.01703106790679 -5.60666067026703 -0.17471708470847
 1 -9.49527941284128 -4.85342036333633 -0.33579540214021
 1 -3.39600029592959 -3.50963421412141 -0.12060733223322
 1 -1.82409057555756 -4.36063250295029  3.82515543084308
 1 -2.71075068366837 -6.15109672727273  3.59687252615262
 1 -1.18273638513851 -5.84296356955696  2.75047900080008
 1  2.68760806490649 -1.01097293319332 -1.70149411441144
 1  2.47443492109211  0.40495477507751 -1.85822897509751
 1  4.24893579917992 -0.33777599279928  0.53901711771177
 1  4.17238620212021  1.28592730313031 -2.71579994969497
 1  5.23886929862986  2.40365062396240 -2.00329679787979
 1  5.99957726532653  1.05021612911291 -2.83033176417642
 1  6.69620168306831  1.81693569356936  0.11114375717572
 1  6.46617073647365  0.05742770537054  0.86840655735574
 1  7.44367175187519 -0.98200743594359 -1.14437576117612
 1  7.84036647254726  0.60538374647465 -1.81073399699970
 1  9.15675772737274  1.03312119711971  0.32436006820682
 1  8.77168565726573 -0.97421292749275  0.58725658935894
 1  10.22172972437244  0.26724926262626 -1.68420330983098
 1  9.22007699319932 -2.11066904340434 -2.13921984678468
 1  10.82502505820582 -2.36587337123712 -2.07025126902690
 1  9.99072195819582 -2.64826676867687 -0.67833727342734
 1  11.27137481838184  0.59244147434743  0.27675916341634
 1  11.15372842624262 -1.03933989528953  0.69897051865187
 1  12.69318263716372 -1.48485664686469 -1.22719038663866
 1  12.47351110361036  0.00908159915992 -1.62860622192219
 1  13.78195963266327  0.96262881888189  0.19548689168917
 1  13.95098785188519 -0.72604220892089  1.01497801430143
 1  15.18829211771177  0.42191167616762 -1.68937329532953
 1  15.57533497639764 -2.35726601870187 -0.21219267316732
 1  14.73568661936194 -2.06171854745475 -1.82687010211021
 1  16.37123675307531 -1.91908743364336 -1.48379984948495
 1  16.16990219091909  1.32407024072407  0.48377492179218
 1  16.14118856605661 -0.55283445854585  1.25862862406241
 1  18.15340627932793 -0.67842438983898 -0.51987532793279
 1  17.97565462996300  0.87824514341434 -1.23417699349935
 1  18.64424521712171  2.39332349004900  0.83689169446945
 1  18.85946310661066  0.53510769176918  1.80075007530753
 1  20.63213812651265  0.17716386458646 -0.00020295629563
 1  20.35134924152415  3.12060562246225 -1.00776436983698
 1  21.41240549264927  2.04957160996100 -1.60576193949395
 1  19.84449835423542  1.37032884368437 -1.89035600460046
 1  21.20150612581258  1.08998710781078  2.34057367456746
 1  22.32043374967497  1.69227045674567  0.95914088038804
 1  21.06608633853385  2.76484656795680  1.82296273677368

