%nproc=4
%Mem=2GB
# td=(NStates=1) CAM-B3LYP/6-31G(d,p) 

TD

0 1
12 -7.18494906790679  0.60712946104610  0.11896958435844
 6 -4.83414803280328 -1.99211038943894  0.48598513121312
 6 -4.85858578747875  2.91484993229323  1.04739110401040
 6 -9.51038577407741  3.00553604910491 -0.25374823452345
 6 -9.45902621632163 -1.77853336433643 -0.91074750385039
 7 -5.10376380098010  0.53714353245325  0.67917833613361
 6 -4.37331703780378 -0.68859868186819  0.78602662586259
 6 -2.97674668006801 -0.34912433813381  1.21542189638964
 6 -3.03893733213321  1.18638130643064  1.60323105380538
 6 -4.45552254715472  1.57263801260126  1.16882391229123
 6 -2.75810089218922  1.51265355345535  3.12877428632863
 6 -1.90929439043904 -0.57046230763076  0.15031899019902
 6 -0.49990741334133 -0.39398374557456  0.58296242554255
 6  0.50984212141214 -0.64935844874487 -0.50677605810581
 8  0.32309354945495 -1.06468187578758 -1.66554288598860
 8  1.84334614511451 -0.38238563496350 -0.03872066096610
 7 -7.23935438333833  2.61689727952795  0.37929662516252
 6 -6.18976825582558  3.43351432723272  0.77523105670567
 6 -6.55700295339534  4.85478976837684  0.86759744694469
 6 -7.85967867486749  4.79305993749375  0.39623801510151
 6 -8.28545281688169  3.45912510781078  0.15749829612961
 6 -5.67614557125713  6.05116758265827  1.11644640514051
 6 -8.69910770837084  6.01754278797880  0.21802878827883
 6 -8.67219111041104  7.25629174777478  0.78666491629163
 7 -9.07774004660466  0.60282314341434 -0.61685571927193
 6 -9.85062132183218  1.63455340844084 -0.65358168226823
 6 -11.21690078667867  1.31839017811781 -1.14415613511351
 6 -11.23735613951395 -0.05162979887989 -1.28753746774677
 6 -9.95351103180318 -0.49041101540154 -0.91449646574657
 6 -12.30416924062406  2.33217378837884 -1.45648242304230
 6 -12.49609415571557 -0.82480989108911 -1.59301010951095
 6 -12.54628211661166 -1.04971738293829 -3.17426254485449
 7 -7.12053152145215 -1.38846846044604 -0.35051972897290
 6 -8.19615985578558 -2.31083625572557 -0.68116307150715
 6 -7.72322846844684 -3.68725699319932 -0.45667294459446
 6 -6.40235411951195 -3.54631896889689 -0.19675140704070
 6 -6.12957555395540 -2.13413169446945 -0.03782097789779
 6 -8.47707517491749 -4.95059790219022 -0.72973145154515
 6 -5.20390486078608 -4.35858974247425  0.18643151575157
 8 -5.03459229712971 -5.48830331373137  0.11199823052305
 6 -4.10841442084208 -3.31450724052405  0.50771063636364
 6 -3.46685731663166 -3.62585780708071  1.82920329322932
 8 -3.70063166376638 -2.98863559975998  2.77266994809481
 8 -2.58805999969997 -4.61012573497350  1.67049563046305
 6 -2.00501108900890 -5.05886011511151  2.90750568606861
 6  2.92050456215622 -0.70079787438744 -0.93714491489149
 6  4.21787387638764 -0.36723489978998 -0.36793694269427
 6  5.17990147454745  0.47321358675868 -0.79770954365437
 6  5.05748417141714  1.23791644094409 -2.11017518281828
 6  6.46103043584358  0.57867971817182 -0.18614509970997
 6  7.62906044394439 -0.27635798269827 -1.00439739023902
 6  8.99380125272527 -0.18462359275928 -0.19924173697370
 6  10.13632425692569 -0.52817988968897 -1.05172614311431
 6  10.08959565976598 -2.04370530663066 -1.42444590959096
 6  11.41448432533253 -0.21987576837684 -0.11224035543554
 6  12.77856276397640 -0.61119517061706 -0.78170819371937
 6  13.99975944434443 -0.16453765656566  0.09401646914691
 6  15.38066419131913 -0.30385411451145 -0.43014125392539
 6  15.69243091199120 -1.82775040884088 -0.73048266596660
 6  16.45762986888689  0.35157951795180  0.43270777797780
 6  17.85296988638864  0.44550594899490 -0.06356217081708
 6  18.78169853935394  1.19016723372337  0.85044547754775
 6  20.19182785198520  1.32016234973497  0.20973573677368
 6  20.20345169896990  2.03977227442744 -1.15598659135914
 6  21.17086801760176  1.88256119241924  1.26974233763376
 1 -4.32490397489749  3.76890241164116  1.44649923682368
 1 -10.31498189088909  3.91448228322832 -0.49759515101510
 1 -10.24469775917592 -2.82369170997100 -1.01389804200420
 1 -2.60866732363236 -1.05824413831383  2.00570126132613
 1 -2.37582118731873  1.84842842544254  0.93557420782078
 1 -1.81095555305530  1.12225267816782  3.40624433793379
 1 -2.87731279127913  2.63655771327133  3.16776894229423
 1 -3.66410985368537  1.01535621962196  3.66818923172317
 1 -2.21062354725473 -1.63690365076508 -0.07086099529953
 1 -2.03779545204520  0.01335858625863 -0.63719375897590
 1 -0.21087460486049  0.46364097799780  1.16102650175017
 1 -0.42366016801680 -1.26843135833583  1.34173812901290
 1 -6.09284806020602  6.79894853895390  0.37724343354335
 1 -5.40215720512051  6.27237060016002  2.24872116921692
 1 -4.60258421442144  5.93588475487549  0.69967314291429
 1 -9.46617867036704  5.87192334043404 -0.61462169036904
 1 -9.59065028092809  7.95884662356236  0.63146276807681
 1 -8.09034850065007  7.34437083658366  1.58665705120512
 1 -12.10957506260626  3.10659098509851 -2.26387939263926
 1 -13.25932560176017  1.91946583778378 -1.49738092959296
 1 -12.16713844494450  3.21839049374938 -0.53638488248825
 1 -12.51487626602660 -1.68583802890289 -0.95672062696270
 1 -13.28533725262526 -0.11831856865687 -1.21395692319232
 1 -13.42862921552155 -1.94468915511551 -3.43830371487149
 1 -12.48751231543154  0.04496995939594 -3.54595809150915
 1 -11.55271155045505 -1.42047691479148 -3.49635825582558
 1 -9.04065366836684 -4.76158690159016 -1.60014327842784
 1 -7.91384074887489 -5.85217522172217 -0.90319993299330
 1 -9.41146103100310 -5.03767878917892  0.13434161156116
 1 -3.37486818271827 -3.69886313701370 -0.33067833933393
 1 -1.49425759225923 -4.32606904660466  3.36479939523952
 1 -2.96943655225523 -5.27824944254426  3.49803264216422
 1 -1.38597670917092 -5.89847912111211  2.48650260316032
 1  2.88142744684468 -1.78251008690869 -1.14238820382038
 1  2.81613909150915 -0.00601632203220 -1.90183333553355
 1  4.45122602820282 -0.98454066926693  0.68365158115812
 1  3.92623158665867  1.33912262266227 -2.45450382008201
 1  5.46032144384438  2.23973423232323 -1.99902637083708
 1  5.71028833643364  0.80715182268227 -2.90149888088809
 1  6.77991005390539  1.76680068006801 -0.09493685088509
 1  6.40813493289329  0.12648461106111  0.86834655135514
 1  7.30261764646465 -1.12698193339334 -1.25015633923392
 1  7.71938437433743  0.14478768686869 -1.88670159375938
 1  9.22386443804380  0.93836172117212  0.12845047724772
 1  8.94109259795980 -0.74398990519052  0.66876474017402
 1  10.20384793619362  0.12255479317932 -2.01941683118312
 1  9.16025101060106 -2.13166114261426 -1.96715264006401
 1  10.81197375307531 -2.42776956085609 -2.07477172107211
 1  9.90045293129313 -2.74285622762276 -0.55839527922792
 1  11.40943862476248  0.75518774897490  0.10188167566757
 1  11.19253230663066 -0.70536649794980  0.86087670927093
 1  12.58650196909691 -1.67557571877188 -1.05655332293229
 1  12.79068282078208 -0.14891420042004 -1.84033739503950
 1  13.91963340004000  1.05618817481748  0.19067641064106
 1  13.89346209930993 -0.83811341604160  1.03003952045205
 1  15.53541683018302  0.20150963596360 -1.48129248724872
 1  15.60582802570257 -2.52107239933993  0.17990653675368
 1  14.95654870557056 -2.38913128872887 -1.54301171627163
 1  16.79732936233624 -2.02684820972097 -1.14056552605260
 1  15.93526872757276  1.34033186688669  0.73600014431443
 1  16.43352779997999 -0.18345752085209  1.45391815301530
 1  18.31736267496750 -0.59353590099010 -0.15389873027303
 1  18.01574863936394  0.74932225112511 -1.21773534933493
 1  18.41888268086809  2.15472963066307  1.35877388268827
 1  18.96582374267427  0.54075825682568  1.77356735703570
 1  20.61833674637464  0.32049819801980 -0.11533446944695
 1  19.92013612021202  3.27621118301830 -0.88592218561856
 1  21.27878213031303  2.08073472627263 -1.48581994529453
 1  19.47595149954996  1.51702351315131 -2.00854782378238
 1  21.01226720192019  1.38475658475848  2.23890350755075
 1  22.08846055235523  1.78625985568557  0.87324229052905
 1  20.96771650155016  2.94552463576358  1.42970341084108

