%nproc=4
%Mem=2GB
# td=(NStates=1) CAM-B3LYP/6-31G(d,p) 

TD

0 1
12 -7.15357593059306  0.57134588268827  0.09963765116512
 6 -4.83357797579758 -2.02918409680968  0.46771330403040
 6 -4.77633756265627  2.82984143144314  1.09655602050205
 6 -9.36496123162316  2.99816531203120 -0.54253711341134
 6 -9.60687100080008 -1.78905441644164 -0.79858628772877
 7 -5.13252667726773  0.38529834793479  0.69919033733373
 6 -4.36005571167117 -0.76522634463446  0.70925894909491
 6 -2.94525353075308 -0.43541296699670  1.13032338653865
 6 -3.06818025642564  1.02836550485049  1.66207693839384
 6 -4.43429042394239  1.48703945274527  1.16207323722372
 6 -2.83132821492149  1.29224151225123  3.24977638653865
 6 -1.86162962396240 -0.61771703310331  0.04151811011101
 6 -0.41635905850585 -0.38891323852385  0.57084121342134
 6  0.60602173937394 -0.71312482538254 -0.52537791829183
 8  0.34390563066307 -1.19671507910791 -1.62489882158216
 8  1.86374818531853 -0.39617701410141 -0.14970175907591
 7 -7.12793324122412  2.60824641444144  0.28601729722972
 6 -6.01473075207521  3.38371934773477  0.70429396299630
 6 -6.41296854995499  4.79477376677668  0.82499318651865
 6 -7.75134784178418  4.86103673517352  0.39544793609361
 6 -8.19026329792979  3.45772496779678  0.05981852815282
 6 -5.64087204390439  5.92176464236424  1.14938969946995
 6 -8.61453925152515  5.95924695839584  0.19658664406441
 6 -8.47191108240824  7.13559967856786  0.87218346814681
 7 -9.08275054765476  0.65904876597660 -0.58538257195720
 6 -9.89732599229923  1.67734768786879 -0.64590091419142
 6 -11.16230532713271  1.46172451155116 -1.12047376687669
 6 -11.21163356725673  0.02667803190319 -1.27948666266627
 6 -9.98035371607161 -0.42920489478948 -0.90425544164416
 6 -12.34287311101110  2.39384995599560 -1.35279205400540
 6 -12.41459600590059 -0.77349475957596 -1.68065887438744
 6 -12.36166365476548 -1.22534494569457 -3.15616073467347
 7 -7.30012948124812 -1.39266888048805 -0.15655033203320
 6 -8.32026226602660 -2.26772194429443 -0.45838079327933
 6 -7.81509765536554 -3.60946921442144 -0.57938521582158
 6 -6.43827771187119 -3.50187452445245 -0.21051278317832
 6 -6.14005660206021 -2.13284156545655  0.00016282048205
 6 -8.62880034743474 -4.75311815421542 -0.85154363276328
 6 -5.29153362366237 -4.28802268576858  0.07331020362036
 8 -5.27071590949095 -5.55534001740174  0.13830086078608
 6 -4.19258283768377 -3.28564435423542  0.51716158145815
 6 -3.60543117401740 -3.61068628992899  1.87949832273227
 8 -3.82052365296530 -2.95956269246925  2.86352903400340
 8 -2.81238243194319 -4.61299602200220  1.74934351525153
 6 -2.18216880478048 -5.18617284638464  3.00597553305331
 6  2.91940445214521 -0.55915370997100 -1.11126232663266
 6  4.17183927292729 -0.32304048034803 -0.42860300930093
 6  5.06805028942894  0.46904316971697 -0.85188496119612
 6  4.99467789078908  1.25447809710971 -2.11681584688469
 6  6.51141547434743  0.54405625582558 -0.21588807400740
 6  7.65133267116712 -0.13344369126913 -1.00351730223022
 6  8.98235010761076 -0.13112824322432 -0.10107191999200
 6  10.21805242974297 -0.44991206290629 -0.83706467696770
 6  10.19452615281528 -1.96110704680468 -1.43074653965397
 6  11.41051392829283 -0.17275105590559  0.05791666026603
 6  12.77094200190019 -0.50843489458946 -0.61666168906891
 6  13.94832430083008 -0.11628283108311  0.25229229672967
 6  15.34816094099410 -0.28786251535154 -0.40131837163716
 6  15.63620528942894 -1.87927556135614 -0.72526214391439
 6  16.44262836873687  0.38629298929893  0.45452996019602
 6  17.79394398379838  0.57550894929493 -0.21316713131313
 6  18.93616398589859  1.19796801380138  0.67053748674867
 6  20.25905457465747  1.35346568006801  0.13578834203420
 6  20.30728208200820  2.02591088828883 -1.24206519921992
 6  21.21894282508251  2.02795573187319  1.14671003440344
 1 -3.90011149564957  3.45741126252625  1.36693128002800
 1 -10.00806119881988  3.82871370637064 -0.47515290679068
 1 -10.37262055145515 -2.50740008080808 -1.04189084128413
 1 -2.79205566246625 -1.26811512541254  1.88179887108711
 1 -2.45284889008901  1.61882546514651  0.99204985538554
 1 -1.68590304780478  1.04334478737874  3.32883659715972
 1 -3.39736479647965  2.26332038953895  3.50950311571157
 1 -3.35884932763276  0.35499018301830  3.71323373617362
 1 -1.98721120602060 -1.51809176957696 -0.51007491669167
 1 -2.12982465496550  0.31421867226723 -0.47900794039404
 1 -0.18825234263426  0.47419203310331  1.00807120622062
 1 -0.11816961896190 -1.01434594979498  1.35542949814981
 1 -5.77111588698870  6.72027067116712  0.58103381258126
 1 -5.36301329072907  6.35701906500650  2.30154645174517
 1 -4.61775573157316  5.48064923132313  0.80640381598160
 1 -9.29035108760876  6.24645079317932 -0.64822505070507
 1 -9.21674289018902  7.87309804870487  0.31886150795080
 1 -7.75842530833083  7.50529692919292  1.47179556505651
 1 -12.30641474657466  3.09611993799380 -2.31732473717372
 1 -13.37213688288829  1.83942783398340 -1.50773196469647
 1 -12.43789552065206  3.25766442114211 -0.36400764476448
 1 -12.24760953935394 -1.50341978707871 -0.92994794969497
 1 -13.35981470037004 -0.07760449724972 -1.51188671617162
 1 -13.21868822142214 -1.69443412961296 -3.71796168066807
 1 -12.11679524372437 -0.11524606220622 -3.49970346604660
 1 -11.43246952625263 -1.76571143824382 -3.24226284628463
 1 -8.53418302130213 -4.83134387728773 -2.08599186328633
 1 -8.25586495129513 -5.71592159635964 -0.36003561656166
 1 -9.88979886478648 -4.53178820012001 -0.64759658225823
 1 -3.35849654555456 -3.65989924062406 -0.24404967646765
 1 -1.72461062756276 -4.35076151585159  3.48397131243124
 1 -2.93331293989399 -5.50660227782778  3.66074891379138
 1 -1.60015812731273 -5.97973724692469  2.73596754965497
 1  2.86876618071807 -1.75849768566857 -1.53854781978198
 1  2.76288376597660  0.19258353795380 -1.94187733993399
 1  4.44932583818382 -1.10158237343734  0.54713792979298
 1  3.93984294779478  1.24801351175117 -2.49495786548655
 1  5.08414382608261  2.13824408330833 -2.00161662986299
 1  5.76142344994499  0.81866297379738 -2.94327305830583
 1  6.81329339223922  1.66639063906391 -0.36079343654365
 1  6.55225934533453  0.04049601220122  0.98717843454345
 1  7.21845923062306 -1.32768200340034 -1.38952027562756
 1  7.77640007590759  0.42824603270327 -1.83709663326333
 1  8.96298835043504  0.84218210321032  0.32953058525853
 1  8.62568105680568 -0.69534504070407  0.76014387808781
 1  10.27495504690469  0.20941347904790 -1.82976786628663
 1  9.33970895639564 -2.24176215271527 -2.00840676547655
 1  11.15705826152615 -2.40982776667667 -1.91630587448745
 1  9.91546443244325 -2.60836277827783 -0.52857229692969
 1  11.73891157205721  0.66842907310731  0.51134262176218
 1  11.37144019741974 -0.76127208850885  0.89292991459146
 1  12.87063038193819 -1.51065922712271 -1.12314998259826
 1  12.86862061456146  0.16893758475848 -1.55064842614261
 1  13.82532396909691  0.97670022602260  0.41483882688269
 1  14.04336708980898 -0.69781938663866  1.26407292379238
 1  15.45118840734073  0.18874835983598 -1.47121147914791
 1  15.60277772067207 -2.45055534763476  0.32812135823582
 1  14.80132318301830 -2.17686006160616 -1.12658007310731
 1  16.61658128752875 -2.13605913081308 -1.05247671717172
 1  16.06858205890589  1.36154398809881  0.76207275157516
 1  16.49180362756276 -0.09238841394139  1.43187594879488
 1  18.28218915761576 -0.42797934533453 -0.34539788018802
 1  17.76303336783679  1.05370268916892 -1.12753632943294
 1  18.57142793539354  2.26348050575058  1.04251225652565
 1  19.06255341564157  0.61830601160116  1.56197619791979
 1  20.70665557825783  0.36334248244824 -0.03966690269027
 1  19.94710881748175  2.90716427832783 -1.26639023242324
 1  21.39103335543554  2.32067872067207 -1.46995835913591
 1  19.94089799419942  1.36471828262826 -2.11494846384638
 1  21.07800377557756  1.49320742984299  2.11821143834383
 1  22.17768947524752  1.98885011471147  0.76126109240924
 1  20.80456018591859  2.96557664096410  1.57173761426143

