%nproc=4
%Mem=2GB
# td=(NStates=1) CAM-B3LYP/6-31G(d,p) 

TD

0 1
12 -7.15648622162216  0.67777652575258  0.12291997939794
 6 -4.90573519151915 -1.95018619701970  0.61191772447245
 6 -4.76026595549555  2.87093554085409  1.09822618751875
 6 -9.43856859235924  3.18514400990099 -0.50625348504850
 6 -9.55412572627263 -1.64102961396140 -0.77634406350635
 7 -5.12031545614562  0.46067588568857  0.68119853815382
 6 -4.37290699679968 -0.70224004600460  0.82933095629563
 6 -2.90212921832183 -0.34534396009601  1.20601095529553
 6 -2.93420685908591  1.15237790609061  1.59086981768177
 6 -4.29594658955896  1.53364411321132  1.08472550245024
 6 -2.77777285938594  1.43816610471047  3.16901831073107
 6 -1.87036049704970 -0.56839210061006  0.11351530983098
 6 -0.41778920152015 -0.61739608680868  0.60440456975698
 6  0.51033217041704 -0.77363087598760 -0.58125350585058
 8  0.18250949104910 -1.04110951855186 -1.71064739643964
 8  1.76648845934593 -0.38667606400640 -0.21078786768677
 7 -7.07072752065207  2.63355894569457  0.28470716621662
 6 -6.03336261526153  3.40742171797180  0.74192772637264
 6 -6.39625687878788  4.76168045744574  0.72594328152815
 6 -7.70915362236224  4.85366599809981  0.30174856615662
 6 -8.15958022962296  3.46707590289029 -0.06541399509951
 6 -5.49190714741474  5.89498196409641  1.05053981448145
 6 -8.56247404500450  5.96948798249825  0.12746973237324
 6 -8.61745563686369  7.12217833643364  0.94415066486649
 7 -9.14495676827683  0.69574243534353 -0.40622465616562
 6 -9.90685694539454  1.83011296439644 -0.61107743184318
 6 -11.20500959755976  1.42235057415742 -1.08018973847385
 6 -11.27070947484748  0.11992735683568 -1.18031674567457
 6 -9.96864254495449 -0.38952092639264 -0.72272728882888
 6 -12.35626445014501  2.34685525652565 -1.39082585738574
 6 -12.40795534183418 -0.75648305840584 -1.71074188268827
 6 -12.24390187858786 -0.96361877307731 -3.27313243184318
 7 -7.26488595689569 -1.44451406500650 -0.13152782978298
 6 -8.30253049284928 -2.19860503260326 -0.53486844204420
 6 -7.85453159875988 -3.67590585808581 -0.37707498479848
 6 -6.43624750885089 -3.49065340234023 -0.20484221612161
 6 -6.15428802520252 -2.11450973227323  0.11371417561756
 6 -8.68071553895389 -4.79722256465647 -0.77328580698070
 6 -5.34391886218622 -4.30166404990499  0.07098997159716
 8 -5.10852969086909 -5.55529001240124  0.22417944864486
 6 -4.13231681108111 -3.25627141694169  0.56509637493749
 6 -3.52869350025003 -3.78548376967697  1.77207758065807
 8 -3.91629322992299 -3.27148388458846  2.88811149224922
 8 -2.60482167586759 -4.73582830523052  1.70830941184118
 6 -1.96027661556156 -5.17171140024002  2.86304123962396
 6  2.82133464516452 -0.80049784438444 -1.12437363776378
 6  4.14314640364036 -0.57970614691469 -0.53306345534553
 6  5.12549603400340  0.17981424682468 -1.01289106180618
 6  4.98486690969097  1.08375102440244 -2.22084624992499
 6  6.44177851065106  0.31834368456846 -0.17287377257726
 6  7.65682322022202 -0.26906725362536 -1.02511946244624
 6  8.88721059365937 -0.29610474087409 -0.23668548134813
 6  10.15142576707671 -0.59533660536054 -0.92609357985799
 6  10.19948664886489 -2.06673760986099 -1.30283374837484
 6  11.37625050195020 -0.33794757555756 -0.05345447684768
 6  12.80474538223822 -0.44509856095610 -0.67821784468447
 6  13.99378884728473  0.04218301550155  0.09567663516352
 6  15.28971509640964 -0.15264899399940 -0.54438267806781
 6  15.65891756065606 -1.62975060886089 -0.73249286698670
 6  16.36592069796980  0.52098645864586  0.34954946214621
 6  17.74599918931893  0.63510490889089 -0.16561237583758
 6  18.71919228872887  1.33747196419642  0.81943237623762
 6  20.18091676087609  1.34727506100610  0.30184494769477
 6  20.39032038583859  2.11705000220022 -1.05907690039004
 6  21.10856178697870  1.99405234153415  1.36236159955996
 1 -4.14690617511751  3.50471599299930  1.59219380628063
 1 -10.15355574827483  3.94312514751475 -0.61139653115312
 1 -10.41934522392239 -2.37612695349535 -0.91205785798580
 1 -2.46323278017802 -1.20057837173717  1.82888357955796
 1 -2.16151975717572  1.79125270787079  1.05613626402640
 1 -1.84582904040404  0.91937239013901  3.39528324182418
 1 -2.71390645064506  2.52392645014501  3.36153831923192
 1 -3.47659110181018  0.70387507150715  3.62640505330533
 1 -2.20598308320832 -1.51094105450545 -0.37636154535454
 1 -2.01740341284128 -0.02052480208021 -0.70985102470247
 1  0.01476795939594  0.22182679657966  1.26154655375538
 1 -0.22245004700470 -1.47472198739874  1.35826978217822
 1 -5.73318209360936  6.85519416351635  0.42309801900190
 1 -5.46865385478548  6.11862522562256  2.12393869096910
 1 -4.54814877087709  5.56592775917592  0.81057423302330
 1 -9.28153020552055  5.92362851095110 -0.57442767096710
 1 -9.18706992289229  7.92483322222222  0.52907252905291
 1 -7.98213767956796  7.07660405990599  1.72093047854785
 1 -12.07628173327333  2.95356568256826 -2.24979798449845
 1 -13.25554522372237  1.77072096329633 -1.66368756025603
 1 -12.69486121722172  3.05204385908591 -0.63210445444544
 1 -12.29446422482248 -1.69020846594660 -1.04387934283428
 1 -13.39694841374137 -0.23899063586359 -1.49469499699970
 1 -13.13162951555156 -1.47408209440944 -3.45068495299530
 1 -12.26285985018502 -0.05889042664266 -3.94533802950295
 1 -11.53011929122912 -1.69235410251025 -3.47189580958096
 1 -8.87991759475948 -4.84169491239124 -1.88939220332033
 1 -8.17835720052005 -5.70876088028803 -0.46219583258326
 1 -9.56179606450645 -4.73540856215622 -0.25964778737874
 1 -3.30411110701070 -3.43246649734973 -0.31021629312931
 1 -1.38279644614461 -4.41007744744474  3.66241915721572
 1 -2.81710131873187 -5.51739335693569  3.63947678657866
 1 -1.19339745124512 -5.94314358755876  2.58509246214621
 1  2.72734203830383 -1.98124996089609 -1.38186215121512
 1  2.88830630823082 -0.10324604500450 -2.10188334053405
 1  4.27230813641364 -1.18200041524152  0.42340555655566
 1  4.01347031053105  1.07497620802080 -2.62581095079508
 1  4.89770518221822  2.27430768966897 -1.99479594779478
 1  5.64784209180918  0.89408051555156 -2.92067079807981
 1  6.60508257115712  1.34596859685969  0.06715935873587
 1  6.38133225262526 -0.25288332573257  0.77177689438944
 1  7.48480586528653 -1.11867110231023 -1.56090741434143
 1  7.79032146804680  0.45071827992799 -1.91752467606761
 1  8.96918897049705  0.73000088508851  0.28624625682568
 1  8.83767225592559 -0.76469197539754  0.69695755945595
 1  10.45012256365636  0.14011654935494 -1.71158604810481
 1  9.39311429692969 -2.36221419791979 -1.85588151295129
 1  10.97424998069807 -2.18899568346835 -2.13767801170117
 1  10.54185707170717 -2.75865780778078 -0.35183462316232
 1  11.30277795869587  0.63008523872387  0.28605009250925
 1  11.32970602400240 -0.88557451875187  0.85239586118612
 1  12.97363068196820 -1.56319448064806 -0.97216488408841
 1  12.83132688518852  0.09972066306631 -1.62274563586359
 1  13.91823326002600  1.11138369436944  0.38668601160116
 1  14.03532628572857 -0.37129673437344  1.26940345684568
 1  15.24424771327133  0.50135962096210 -1.57961231923192
 1  15.88063550645064 -2.04166445854585  0.37407595369537
 1  14.92336538723872 -2.16012838843884 -1.44814222932293
 1  16.74737436683668 -1.75361088598860 -1.28720018951895
 1  15.99163436413641  1.49326716041604  0.37858440274027
 1  16.31007545474547  0.17572839773977  1.48396115731573
 1  18.09408034673467 -0.37489403680368 -0.24972831323132
 1  17.84477154165417  1.19296661556156 -1.21089466526653
 1  18.45860665326533  2.32911706940694  1.08165617091709
 1  18.53135029532953  0.55120930193019  1.61513151345134
 1  20.50372528522852  0.24727087528753  0.22005906990699
 1  20.20278438503850  3.16643020492049 -0.86451004440444
 1  21.55983023512351  1.96231288408841 -1.21338270157016
 1  19.84879878427843  1.47596940774077 -1.72220918991899
 1  20.99893586878688  1.12481059015902  2.09318893609361
 1  22.27156886318632  2.11556278597860  1.15658062436244
 1  20.62550228012801  3.00222030533053  1.89161960246025

