%nproc=4
%Mem=2GB
# td=(NStates=1) CAM-B3LYP/6-31G(d,p) 

TD

0 1
12 -7.04008458145815  0.55306405450545  0.05952363976398
 6 -4.86022064006401 -1.93972515091509  0.51314784748475
 6 -4.75200512941294  2.81273972127213  0.96569293419342
 6 -9.41231596709671  3.10965646114611 -0.39237209690969
 6 -9.50699101280128 -1.72140765176518 -0.81152758185819
 7 -5.10674409900990  0.47500731883188  0.65879629792979
 6 -4.37778748484848 -0.71792161416142  0.74694271747175
 6 -2.96715572097210 -0.39488891459146  1.24013436763676
 6 -3.01460489888989  0.96918958725873  1.64061479217922
 6 -4.35097209210921  1.50806155495550  1.04876190609061
 6 -3.03662874497450  1.17111940004000  3.15339674857486
 6 -1.96510997199720 -0.67322258365837  0.05283924222422
 6 -0.47339476207621 -0.46022036923692  0.31814594389439
 6  0.51732286948695 -0.69751326422642 -0.72164754525453
 8  0.28344958505851 -1.20558596619662 -1.75544187588759
 8  1.81918372887289 -0.44529192559256 -0.34819160806081
 7 -7.08804925282528  2.70245583538354  0.23512220772077
 6 -6.03071235023502  3.41807278307831  0.72256579017902
 6 -6.36143339643964  4.87126141554155  0.75077576477648
 6 -7.63489619661966  4.90060069156916  0.34278266956696
 6 -8.17914218581858  3.53428262356236  0.01600414671467
 6 -5.38623658035804  5.91961442734273  1.14514927542754
 6 -8.50137793539354  6.03207424112411  0.20133711911191
 6 -8.38311220252025  7.22394851345135  0.85421167096710
 7 -9.09632190479048  0.70317317841784 -0.61397543124312
 6 -9.82317857755775  1.81942189528953 -0.66024234833483
 6 -11.15134423102310  1.43838217731773 -1.00088180768077
 6 -11.22944534843484  0.15457082118212 -1.20315902990299
 6 -9.88973465416542 -0.37259923422342 -0.84950996709671
 6 -12.24770359405941  2.41057162816282 -1.20453722852285
 6 -12.31597614391439 -0.71346875697570 -1.72933374187419
 6 -12.39749723812381 -0.75595800700070 -3.34059917851785
 7 -7.26692616091609 -1.44147376097610 -0.00068474547455
 6 -8.28606884668467 -2.23514868696870 -0.47678263346335
 6 -7.86592273787379 -3.70225849334933 -0.43814109140914
 6 -6.59295317941794 -3.59622395939594  0.00099836793679
 6 -6.17945054145415 -2.20699898119812  0.17573037723772
 6 -8.56463393079308 -4.88826166856686 -0.79948842724272
 6 -5.38757322762276 -4.43901778527853  0.23425629822982
 8 -5.07285612351235 -5.59183366676668  0.20522755345535
 6 -4.23593717311731 -3.35694148394839  0.60272013731373
 6 -3.51281191209121 -3.66868208950895  2.00760113301330
 8 -3.77242884348435 -3.13031976817682  3.06265894699470
 8 -2.67048824252425 -4.62233695609561  1.76578515941594
 6 -2.11279186708671 -5.18808303740374  3.08396333183318
 6  2.74385689738974 -0.67162495709571 -1.34579577997800
 6  4.15076716571657 -0.57442561886189 -0.71819196819682
 6  5.24585807020702  0.23171943734373 -1.00540031273127
 6  5.15042346534653  1.13686633593359 -2.24332849814981
 6  6.41793612641264  0.33148499869987 -0.18422490769077
 6  7.60169770767077 -0.24957530443044 -0.97589453995400
 6  8.89630150275027  0.02820769036904 -0.23563537633763
 6  10.21387201170117 -0.59454652635264 -1.00837180768077
 6  10.04110081028103 -2.00474141024102 -1.36015948094809
 6  11.41795467236724 -0.38519230003000 -0.06766589798980
 6  12.77444235193519 -0.60038408950895 -0.76915693859386
 6  13.98077754615461 -0.28894009680968  0.10561762926293
 6  15.35715184008401 -0.34287801690169 -0.53419165896590
 6  15.70968263716372 -1.69059669346935 -0.98956857455746
 6  16.36890099599960  0.36376073607361  0.46085059225923
 6  17.77003159255926  0.61909330773077 -0.05952176677668
 6  18.74838520802080  1.38151636863686  0.92256268926893
 6  20.13887255645565  1.52771310481048  0.44048881208121
 6  20.16643799759976  2.22378067526753 -0.94718571127113
 6  20.98101903270327  2.29216215251525  1.40480584398440
 1 -3.92084356885689  3.62285780718072  1.20715530243024
 1 -10.25024541724172  3.92649348434843 -0.31872726422642
 1 -10.37724101350135 -2.38540788158816 -1.01109776197620
 1 -2.62814927182718 -0.98537685158516  2.12319301050105
 1 -2.14783838903890  1.50413399599960  1.42746339673967
 1 -2.04408886638664  1.02250270317032  3.50123383688369
 1 -3.15892095209521  2.14175823332333  3.31995416081608
 1 -3.86027947064707  0.66597128112811  3.66051846464646
 1 -2.02059454435444 -1.70318027842784 -0.17566147534753
 1 -2.21490316281628 -0.08441119071907 -0.79645968556856
 1 -0.06487000440044  0.52966758065807  0.84557495659566
 1 -0.41473927592759 -1.22245676087609  1.19761371657166
 1 -5.24358313371337  6.82978162226223  0.32038774797480
 1 -5.49575656505651  6.15609897299730  2.25661195829583
 1 -4.32104606060606  5.64339550595059  1.04461763736374
 1 -9.38775082758276  6.04193034113411 -0.31093132133213
 1 -9.26340755665566  8.08272901180118  0.72181180298030
 1 -7.86144561036104  7.29538593809381  1.74773315881588
 1 -12.19525363046305  3.04777510351035 -2.09544254895490
 1 -13.26266593579358  1.78032192339234 -1.40842203370337
 1 -12.24507623872387  3.09808846354635 -0.34336558055806
 1 -12.31237601600160 -1.71540098519852 -1.38108306320632
 1 -13.27433615251525 -0.45930266706671 -1.23108863636364
 1 -12.96754310691069 -1.59783446964697 -3.60900078457846
 1 -12.96268983318332  0.34870033243324 -3.68639213491349
 1 -11.30242652195220 -1.07895276237624 -3.70187880788079
 1 -9.20677028002800 -4.80462120502050 -1.59225248934893
 1 -7.93879324412441 -5.84165416961696 -0.73332294529453
 1 -9.32132201710171 -5.20590561186119  0.02768094549455
 1 -3.55078577447745 -3.42846609730973 -0.12845811731173
 1 -1.54124229072907 -4.37162360206021  3.51745466076608
 1 -2.81502111071107 -5.74658627622762  3.58290112901290
 1 -1.36338444994500 -5.81016028922892  2.68141209410941
 1  2.65805510961096 -1.59572140804080 -1.84641860686069
 1  2.54549202680268  0.14524880448045 -2.11977512971297
 1  4.22640354595460 -1.20848306350635  0.20376359235924
 1  4.10454941844184  1.12373108350835 -2.62496086578658
 1  5.32297770947095  2.21686194509451 -1.92406887508751
 1  5.73548085568557  1.05177628512851 -2.94607333833383
 1  6.68288035093509  1.39053305330533  0.13271591439144
 1  6.10570468986899 -0.34175221262126  0.65084480118012
 1  7.29433681838184 -1.20794002920292 -1.25952727632763
 1  7.71679411531153  0.35474868296830 -1.91138406200620
 1  8.96711876347635  0.98450633563356 -0.01026339413941
 1  8.87472596129613 -0.54173968016802  0.69510737443744
 1  10.32853040444044 -0.12863032533253 -1.90826571607161
 1  8.97563254875488 -2.06553452995300 -1.80574649944995
 1  10.96672922862286 -2.35190197409741 -1.82086633053305
 1  10.18646153215322 -2.59936187818782 -0.32800223992399
 1  11.40074775567557  0.75154738493849  0.18436992449245
 1  11.57821087448745 -1.02932889418942  0.95654627622762
 1  12.78167148604861 -1.70850901210121 -1.06676434403440
 1  12.80701445394539  0.03226391739174 -1.60259362066207
 1  13.89858129482948  0.79322187818782  0.46448379137914
 1  13.82961571467147 -1.08950855555556  1.03950046654665
 1  15.10494378287829  0.34830431543154 -1.25820017801780
 1  15.73107054995500 -2.24222451455145  0.05680422652265
 1  15.03230628132813 -2.37191956755676 -1.56257367246725
 1  16.65487511691169 -1.66131165606561 -1.40178164766477
 1  16.02212741344134  1.41302913661366  0.62937948224822
 1  16.31830627782778 -0.33009218431843  1.36588935013501
 1  18.14740567926793 -0.45725227262726 -0.13759710011001
 1  17.92495956045605  0.98540585948595 -1.04432800860086
 1  18.48090888348835  2.33744790249025  1.06175418071807
 1  18.68276543684368  0.87547172817282  1.96343634393439
 1  20.52202711541154  0.56486263446345  0.33007007100710
 1  19.78449255585558  3.32454601650165 -1.18561215461546
 1  21.25524977707771  2.35931258405841 -1.32226358965897
 1  19.67412131653165  1.81683349414941 -1.78830579957996
 1  21.03823979917992  1.61433954305431  2.29758937613761
 1  22.12782448874887  2.47722895259526  1.11636660296030
 1  20.69886961686169  3.16258634193419  1.71211165166517

