%nproc=4
%Mem=2GB
# td=(NStates=1) CAM-B3LYP/6-31G(d,p) 

TD

0 1
12 -7.16821739473947  0.56707545564556  0.10075776317632
 6 -4.82620723872387 -1.97912909130913  0.58474500720072
 6 -4.76564649354936  2.84746319361936  1.18068443334333
 6 -9.33526826232623  3.06412190769077 -0.48502136183618
 6 -9.49487980168017 -1.77562307330733 -0.97119354845485
 7 -5.08463188778878  0.43636345444544  0.80547096539654
 6 -4.27875758185819 -0.77493731573157  0.85376339953995
 6 -2.88710771617162 -0.37646707240724  1.29063941814181
 6 -2.95633907230723  1.09713238153815  1.60449117981798
 6 -4.40445744064406  1.47598834763476  1.14946197609761
 6 -2.68693377547755  1.22996528462846  3.23487489638964
 6 -1.98256171717172 -0.67963322472247  0.11427538583858
 6 -0.52667008960896 -0.45849019621962  0.64430856015602
 6  0.52240337753775 -0.58449196209621 -0.52822820332033
 8  0.30779201930193 -0.96262166976698 -1.66496282798280
 8  1.78482029252925 -0.45707310371037 -0.06284307320732
 7 -7.08768921682168  2.56339192899290  0.34956365186519
 6 -5.93514279327933  3.34889586538654  0.78199173277328
 6 -6.39565681878188  4.76555084448445  0.80525121232123
 6 -7.71735444244424  4.78850948244824  0.39389778107811
 6 -8.12608688028803  3.37284647994799  0.17307985428543
 6 -5.62881083778378  5.95642810871087  1.16779153965397
 6 -8.54964276187619  5.99259029272927  0.21024801020102
 6 -8.46594048534853  7.22394851345135  0.86077232703270
 7 -9.15035730833083  0.63459632073207 -0.61286532023202
 6 -9.80606686638664  1.72484243734373 -0.66284260836084
 6 -11.17636673327333  1.43622196129613 -1.29426114561456
 6 -11.29126153005300  0.09003436753675 -1.39134784878488
 6 -9.94981066176618 -0.41946392069207 -0.95707072317232
 6 -12.22198102180218  2.46275684668467 -1.55019179397940
 6 -12.50255480178018 -0.74229163926393 -1.83637444594459
 6 -12.40269775817582 -1.00273268446845 -3.35966108470847
 7 -7.21386085438544 -1.41863147674767 -0.17603228022802
 6 -8.27697793759376 -2.19449462156216 -0.53230818601860
 6 -7.77958410401040 -3.57969623712371 -0.49923720102010
 6 -6.45649953405341 -3.58345268226823 -0.06184791669167
 6 -6.22452504890489 -2.18105638693869  0.16190899509951
 6 -8.59609707710771 -4.79689253165317 -0.89692817121712
 6 -5.27995246554655 -4.34112799629963  0.27604047664766
 8 -5.11109994789479 -5.51951643504350  0.34529155985599
 6 -4.19695327472747 -3.28657444724472  0.56685655095510
 6 -3.55453608450845 -3.68375359665967  1.87745811871187
 8 -3.68276987758776 -2.98430516671667  2.94843752485248
 8 -2.74191538523852 -4.65718044044404  1.73371195209521
 6 -2.24461504940494 -5.04041827092709  3.00177511301130
 6  2.71942445414541 -0.70350814541454 -1.12276347674767
 6  4.15213730273027 -0.53183135943594 -0.54210435943594
 6  5.14641812621262  0.28121438683868 -0.90266003870387
 6  5.12579100210021  1.03997664696470 -2.31131529682968
 6  6.45721005380538  0.34733658385839 -0.14717120232023
 6  7.55136267416742 -0.09065941284128 -0.92895984648465
 6  8.91573344594459 -0.18619374977498 -0.17674948774877
 6  10.19557018151815 -0.52054912661266 -0.96900787128713
 6  10.03520022022202 -2.10646158225823 -1.33062652765277
 6  11.39260213711371 -0.25250903170317 -0.01667079847985
 6  12.73871877957796 -0.59513356445645 -0.71593161606161
 6  14.02815228362836 -0.22942414521452  0.08480554805481
 6  15.37930405530553 -0.26000973007301 -0.53479171897190
 6  15.63913558245824 -1.59356699049905 -1.01900151785179
 6  16.39685379127913  0.43617797779778  0.46970147734773
 6  17.81178576797680  0.56745814421442 -0.20602641724172
 6  18.77596796629663  1.29798801580158  0.70039047204720
 6  20.17814648384838  1.44816515001500  0.18342310551055
 6  20.26339769356936  2.25975427262726 -1.07231822452245
 6  21.02224315511551  2.01336427272727  1.30747611101110
 1 -4.04994647914792  3.67058257965797  1.56762134903490
 1 -9.66466685938594  4.04305514051405 -1.04676006750675
 1 -10.28718200760076 -2.46826616741674 -1.13860051225123
 1 -2.65674213111311 -0.92894120802080  2.23500419161916
 1 -2.21123472867287  1.76511009360936  1.01932258265827
 1 -1.68724318181818  1.16673712661266  3.61659537303730
 1 -3.06254131413141  2.24339839733973  3.41743390879088
 1 -3.45413885658566  0.57290197419742  3.72574498729873
 1 -1.93695618051805 -1.81138109850985 -0.14190810001000
 1 -2.26144781728173 -0.16266901650165 -0.64302434203420
 1 -0.18966248364837  0.44688930283028  1.09597999709971
 1 -0.03712151415141 -1.21283579877988  1.28847280248025
 1 -5.98895767116712  6.91773041714171  0.68883459265927
 1 -5.70402739213921  6.31779514261426  2.13525982308231
 1 -4.62021597759776  5.81972313871387  1.11721489708971
 1 -9.46651870437044  6.12816896499650 -0.58274850305030
 1 -9.08361957785779  8.03165390429043  0.71300092189219
 1 -7.69500896669667  7.28522492199220  1.52717110261026
 1 -12.06436054115412  3.21253157915792 -2.29093209790979
 1 -13.28867853705371  2.01063495469547 -1.76056724822482
 1 -12.51945367646765  2.99508816351635 -0.57076832083208
 1 -12.56318109650965 -1.57507695279528 -1.12917787268727
 1 -13.44324304320432 -0.14569130593059 -1.58811433893389
 1 -13.50296664926493 -1.41881656785679 -3.86955684018402
 1 -12.26209977417742  0.08244370677068 -3.79011250695069
 1 -11.55403168246825 -1.75715058215822 -3.63391201120112
 1 -9.03980358335834 -4.62599334223422 -1.89241250535054
 1 -7.91721108590859 -5.66610661486149 -0.82193180618062
 1 -9.35342522742274 -4.89462448374838 -0.34784660726073
 1 -3.47614831073107 -3.45232848354835 -0.33496876837684
 1 -1.66690485698570 -4.11090753045305  3.32434534983498
 1 -3.09244885348535 -5.10932254985499  3.51911475037504
 1 -1.76496460796080 -6.01769104230423  2.93956790969097
 1  2.45321462556256 -1.53574541044104 -1.72734669966997
 1  2.67959543714371  0.12130641024102 -1.92512566476648
 1  4.43491439703970 -1.24946716191619  0.22826604260426
 1  3.97644660816082  1.04592330273027 -2.71950031973197
 1  5.31370678237824  2.25815607450745 -1.93517998619862
 1  5.93441074867487  0.64607571507151 -2.97678640964096
 1  6.60600266316632  1.35762976297630  0.07643028582858
 1  6.29147326672667 -0.16708474587459  0.70966068276828
 1  7.34458184288429 -1.15565480068007 -1.53525484908491
 1  7.47454989088909  0.71608481658166 -1.72111503510351
 1  8.92662471407141  0.72048993399340  0.35580321252125
 1  8.75010349904991 -0.91702720892089  0.72884074777478
 1  10.53515106650665 -0.06006346864686 -1.92058694819482
 1  9.17397238273827 -2.40693867036704 -1.85672159695970
 1  10.97664021972197 -2.35991277517752 -1.97079132303230
 1  10.14534742074208 -2.76741868386839 -0.35481492119212
 1  11.30572825372537  0.70948317851785  0.51617310481048
 1  11.28485153855386 -0.92757871917192  0.80248086968697
 1  12.91908522742274 -1.68706686788679 -0.93196086368637
 1  12.90914466696670  0.05942663366337 -1.53147650895090
 1  13.80052148884888  0.84968752475248  0.51720906390639
 1  14.06268902200220 -0.92609221392139  0.98668518501850
 1  15.44442773127313  0.56388587358736 -1.30259461746175
 1  15.95567301020102 -2.34573486558656 -0.11186264016402
 1  14.77262031273127 -2.04539691529153 -1.57438485358536
 1  16.54419404880488 -1.67149267416742 -1.52394386388639
 1  16.17293249394939  1.34090192389239  0.84702124642464
 1  16.56041048824882 -0.37241641674167  1.50263302450245
 1  18.33021396009601 -0.41114766216622 -0.58684202460246
 1  17.80805787028703  1.13959127802780 -1.27558113391339
 1  18.31315210781078  2.25765992369237  0.99442744804480
 1  18.77527468776878  0.85809999099910  1.71296129642964
 1  20.46707161986199  0.48578472667267 -0.07500043604360
 1  19.63529763636364  3.08400196209621 -1.03394698809881
 1  21.42595684778478  2.49899655245525 -1.34386574987499
 1  19.90891479587959  1.69113092389239 -1.92342931193119
 1  20.96246222142214  1.41643975307531  2.29023864106411
 1  22.03603530983098  1.96053728342834  1.04571953825383
 1  20.52648237813781  2.88935901920192  1.96238667916792

