%nproc=4
%Mem=2GB
# td=(NStates=1) CAM-B3LYP/6-31G(d,p) 

TD

0 1
<<<<<<< HEAD
12 -7.08675924892489  0.56824557265727  0.03115080248025
 6 -4.89731434943494 -1.94793597199720  0.37678421112111
 6 -4.87061699059906  2.75468391569157  1.19291565646565
 6 -9.41063579907991  3.12737823332333 -0.42434529422942
 6 -9.54122443614362 -1.64310982198220 -0.86093252235224
 7 -5.02093551815182  0.44210402850285  0.61041145944594
 6 -4.33703340944094 -0.70171999399940  0.80070809400940
 6 -2.89298830423042 -0.45494492019202  1.24906526072607
 6 -3.00235367376738  1.03693636193619  1.63065379607961
 6 -4.33298029292929  1.42870361916192  1.09221625152515
 6 -2.91605668776878  1.39758204630463  3.18757016591659
 6 -1.96453991499150 -0.77599286068607  0.19304326262626
 6 -0.38810623322332 -0.41989633683368  0.54635876517652
 6  0.53371450865087 -0.66580009290929 -0.54874025452545
 8  0.21145238533853 -0.86668207580758 -1.69303563526353
 8  1.81368317881788 -0.51171856825683 -0.13084987388739
 7 -7.13054350225022  2.58926451625163  0.25704439993999
 6 -6.06986626562656  3.27104808060806  0.72549608320832
 6 -6.47570482358236  4.70100438983898  0.80740142734273
 6 -7.72747545454545  4.81400203170317  0.28136652795280
 6 -8.18211248284829  3.47233642894289  0.03927647394739
 6 -5.52766072277228  5.73766623252325  1.22129689018902
 6 -8.63131092869287  5.99301033473347  0.25165215061506
 6 -8.46584047534754  7.12741886048605  0.96487273707371
 7 -9.06036830943094  0.71167402850285 -0.60449448314831
 6 -9.79620588028803  1.82987294039404 -0.67002332643264
 6 -11.17014611121112  1.52056039513951 -1.21587330683068
 6 -11.24066647054705  0.16570193429343 -1.35898461246125
 6 -9.95728140884088 -0.40081205550555 -0.89176419251925
 6 -12.33487231093109  2.43991456245625 -1.36951372617262
 6 -12.44514906120612 -0.73836124622462 -1.73324413291329
 6 -12.44417190559056 -1.17149956115612 -3.17199231783178
 7 -7.20488995729573 -1.45568518211821 -0.21940661766177
 6 -8.26962720252025 -2.21462663476348 -0.55529048424842
 6 -7.85727187278728 -3.63129139663966 -0.53226050335034
 6 -6.54118800290029 -3.64237857485749 -0.07168890079008
 6 -6.20615321172117 -2.24205248654865  0.05762856705671
 6 -8.77321478887889 -4.83994683708371 -0.94044252265226
 6 -5.38715318561856 -4.44586847034703  0.34458733133313
 8 -5.19537837573757 -5.60890537393739  0.44041107180718
 6 -4.24908848824882 -3.36628241804180  0.53564342964296
 6 -3.59754038493849 -3.56855207650765  1.88202857575758
 8 -3.91468306890689 -3.03674041024102  2.92851553265327
 8 -2.71886308000800 -4.52612733513351  1.82267084798480
 6 -1.92075266316632 -5.00364459355936  3.04230916641664
 6  2.81359387108711 -0.70864865946595 -1.16628782918292
 6  4.19102119111911 -0.47410558685869 -0.52351250025003
 6  5.11381486588659  0.37033329872987 -0.98513828652865
 6  5.17585600860086  1.18038068736874 -2.11664582988299
 6  6.50129446224622  0.33367521772177 -0.23516000120012
 6  7.52349988788879 -0.24824517141714 -0.99496644714471
 6  8.83179505210521 -0.15844097449745 -0.16837865066507
 6  10.12218284278428 -0.46410348204820 -0.87985895639564
 6  10.12352905310531 -1.88668960506051 -1.46331979697970
 6  11.43123600050005 -0.20492427322732 -0.05337446884688
 6  12.85554046174618 -0.44428847994799 -0.77441746464646
 6  14.04801426982698  0.01330012721272  0.12894996249625
 6  15.32742886778678 -0.18875260436044 -0.45473371317132
 6  15.59281094999500 -1.62560019381938 -0.77450706840684
 6  16.37108121402140  0.39255361536154  0.44894940214021
 6  17.83016760616061  0.54023542194219 -0.16167198179818
 6  18.90342071157116  1.22949116611661  0.80143057605761
 6  20.33244191339134  1.28698903240324  0.22827759095910
 6  20.44344569836984  2.09987828502850 -1.03873486618662
 6  21.24494542534254  1.89994293059306  1.26809217261726
 1 -4.12526401090109  3.45197071847185  1.46881146804680
 1 -10.24436482918292  3.84843567856786 -0.72262765426543
 1 -10.21609489888989 -2.30070941174117 -1.30020667286729
 1 -2.65911236813681 -1.01685999989999  2.12106279747975
 1 -2.16066967216722  1.73601718431843  1.25084573497350
 1 -2.05088954645465  0.81053150605061  3.42128584208421
 1 -2.76801186118612  2.53236729422942  3.37292945834584
 1 -3.61503494619462  1.09744442844284  3.80694310711071
 1 -2.12421490639064 -1.84656461686169 -0.28217212641264
 1 -1.96757843034303 -0.08905165476548 -0.78537857745775
 1 -0.37570108750875  0.60185479937994  0.68881928102810
 1 -0.08665646764676 -1.04658917411741  1.36428038323832
 1 -5.66068484388439  6.69066771087109  0.53021873107311
 1 -5.75196218561856  5.91941530463046  2.38465476257626
 1 -4.57372132813281  5.39278044444444  0.97059023462346
 1 -9.45226727922792  6.06924307240724 -0.46949717791779
 1 -8.94250546644664  8.12929366826683  0.62485210701070
 1 -7.84395386118612  7.14416081558156  1.93842222772277
 1 -12.17163126822682  3.17474780078008 -2.26951995669567
 1 -13.22714238343834  2.02170606180618 -1.56384757625763
 1 -12.32798452955296  3.07674632933293 -0.54149539353935
 1 -12.28520329872987 -1.67645709080908 -1.09657461236124
 1 -13.48170688958896 -0.20533727052705 -1.34862038953895
 1 -13.19856620922092 -1.78074276047605 -3.38583846834683
 1 -12.61014457865787 -0.40898543614361 -4.06397989368937
 1 -11.39660593989399 -1.62443731083108 -3.43740236023602
 1 -9.29587919091909 -4.58312905580558 -1.93839710381038
 1 -8.16528589338934 -5.90377038123812 -1.09979959295930
 1 -9.60240012491249 -5.05685070637064 -0.27251907450745
 1 -3.39224992089209 -3.43381663236324 -0.44468974047405
 1 -1.24652281878188 -4.25353179287929  3.42180509580958
 1 -2.66975658425843 -5.45542716031603  3.65966880578058
 1 -1.29451756325633 -5.64160343354335  2.65188914181418
 1  2.67940724482448 -1.78660049594960 -1.50497446244624
 1  2.74850232783278  0.03535781538154 -2.09361251345135
 1  4.44515542114211 -0.98759097429743  0.38139135513551
 1  4.22051101460146  0.95501421182118 -2.76077444714471
 1  5.20647605930593  2.28013827272727 -2.02117858605861
 1  6.11188849644965  0.98194930243024 -2.73909264026403
 1  6.82457452035204  1.49512351235123 -0.32963032023202
 1  6.37637175657566 -0.07680571797180  0.79811952865287
 1  7.29022640734073 -1.16983621882188 -1.20214153775378
 1  7.66706914281428  0.45362857095710 -1.92426535013501
 1  8.97857990959096  0.78451633663366  0.16466409860986
 1  8.72645113381338 -0.62730823702370  0.77121498519852
 1  10.34019157055705  0.21719425712571 -1.73546843634363
 1  9.25847083258326 -1.90056803330333 -1.94902082688269
 1  10.98712126782678 -2.13134991889189 -2.06943118701870
 1  9.80887377337734 -2.78823076507651 -0.67885732543254
 1  11.58609629052905  0.73924615481548  0.34249573707371
 1  11.17483053645365 -1.03645960726073  0.74571519311931
 1  13.04657797669767 -1.60141830303030 -1.33245091269127
 1  12.93497725022502  0.08473916491649 -1.62231559285929
 1  13.93109454615461  0.97632018801880  0.45461280428043
 1  13.92290504360436 -0.67939754445444  1.21203772027203
 1  15.43456674517452  0.28527801280128 -1.24607896589659
 1  15.78976641954195 -2.19947023912391  0.03948249434943
 1  14.95008805950595 -2.08318069366937 -1.54525194029403
 1  16.49502913231323 -1.84374989988999 -1.37235870537054
 1  15.91527672837284  1.45866370007001  0.48738528282828
 1  16.28000244744474 -0.29715889098910  1.26084884608461
 1  18.13363430213021 -0.46117266466647 -0.37605094549455
 1  17.81638870337034  0.92052937183718 -1.31323489928993
 1  18.62226301890189  2.19348350605061  1.23707171247125
 1  18.92780994129413  0.50685486648665  1.65002500280028
 1  20.56131104380438  0.25857200540054 -0.12273520952095
 1  20.08087219381938  3.18893245514551 -1.06897049044904
 1  21.46108036013601  2.09700635343534 -1.44256561986199
 1  19.92384628902890  1.76933874467447 -1.92378934793479
 1  21.34973094829483  1.42366047514751  2.21795141234123
 1  22.35475718201820  2.15248647834783  1.02016698299830
 1  20.66703643354336  2.88341842514251  1.74364480498050
=======
12 -7.11436200920092  0.51587033513351  0.05643333073307
 6 -4.83248786678668 -2.01020219861986  0.51604813751375
 6 -4.87805773467347  2.84004245154515  1.26397276217622
 6 -9.39284401990199  3.11872736823682 -0.44755761546155
 6 -9.56561687538754 -1.78094360536054 -0.90380680978098
 7 -5.14464788938894  0.35126494459446  0.87168758705871
 6 -4.39337904400440 -0.69733955595560  0.84420244344434
 6 -2.97201620702070 -0.39138856455646  1.18865922012201
 6 -2.99393283168317  1.07740040834083  1.64231496219622
 6 -4.39627662256226  1.52627337613761  1.22725975587559
 6 -2.82010709280928  1.27453974207421  3.08204961386139
 6 -1.94402786378638 -0.60168542994299  0.07029098739874
 6 -0.52565998859886 -0.43715806300630  0.42473660296030
 6  0.47291842904290 -0.67840135303530 -0.63921930243024
 8  0.17753899399940 -1.04703011061106 -1.77308364006401
 8  1.78806061656166 -0.46053344974497 -0.20067685658566
 7 -7.08699914781478  2.65560114991499  0.32041073657366
 6 -6.05382466146615  3.36423739953995  0.91561509510951
 6 -6.43604085718572  4.71102539193919  0.79066975417542
 6 -7.70540324732473  4.88386901840184  0.31899029032903
 6 -8.11571584318432  3.46813600890089  0.04199674597460
 6 -5.44830278697870  5.80482294819482  1.09076383688369
 6 -8.51453925152515  6.10287132083208  0.04589157455746
 6 -8.47352124342434  7.19347546614661  0.70105635543554
 7 -9.15425769836984  0.60821368246825 -0.43254728842884
 6 -9.89847610731073  1.80106005910591 -0.63960028412841
 6 -11.19962905950595  1.53234157325733 -1.09646136563656
 6 -11.20853325722572  0.09987535163516 -1.23875258925893
 6 -9.95141082178218 -0.42727470177018 -0.85417043314331
 6 -12.22415123882388  2.48016858785879 -1.38617539233923
 6 -12.39497404370437 -0.67729513961396 -1.77219802830283
 6 -12.25623311171117 -1.05398780998100 -3.26955207380738
 7 -7.14583405170517 -1.39942955655566 -0.25487016401640
 6 -8.32380262006201 -2.19856502860286 -0.54658961416142
 6 -7.90207635323532 -3.57767603510351 -0.49901717901790
 6 -6.45330921502150 -3.54842917991799 -0.12289402130213
 6 -6.11951454785479 -2.21206948824882  0.05668847304730
 6 -8.66723419081908 -4.81399424182418 -0.78474695309531
 6 -5.35004947524752 -4.36192007550755  0.32301517411741
 8 -5.17781661956196 -5.55053953735374  0.47391442214221
 6 -4.16620019941994 -3.33802959275928  0.52363222852285
 6 -3.53103373427343 -3.68508372967297  1.83914428732873
 8 -3.64020562116212 -3.09193592979298  2.88881156225623
 8 -2.67398859255926 -4.68155287768777  1.72688126902690
 6 -2.08984957285729 -5.15079930903090  2.91894683018302
 6  2.75414792649265 -0.75267306190619 -1.15474667506751
 6  4.05581767076708 -0.57106528282828 -0.54831498049805
 6  5.03400688508851  0.32216848224822 -0.93966373907391
 6  4.94018244124412  1.14474712401240 -2.12332649794979
 6  6.40554488728873  0.42262411261126 -0.19151563676368
 6  7.64467200510051 -0.06688703560356 -1.09783673417342
 6  8.84674654725473 -0.20330546094609 -0.09004081688169
 6  10.11942256675668 -0.49231630333033 -0.91282225272527
 6  10.05259195939594 -1.96582751885189 -1.61564502950295
 6  11.38894177107711 -0.50522430323032  0.08626949554955
 6  12.77839274697470 -0.56075012611261 -0.74009403230323
 6  14.00459992839284 -0.21428263106311  0.22928999649965
 6  15.36262238713871 -0.19557328642864 -0.44954319411941
 6  15.95765743464346 -1.67330496429643 -0.89617923562356
 6  16.43432753865386  0.55948030803080  0.42789729692969
 6  17.83124771417141  0.70071146954695 -0.09259507410741
 6  18.76554692419242  1.34145236223622  0.84706513951395
 6  20.20970964016401  1.39660999449945  0.28519328252825
 6  20.31272262606261  2.13313161036104 -1.11606259895990
 6  21.12684361516152  1.95759869616962  1.29611497489749
 1 -4.23314479897990  3.45767128852885  1.59042362926293
 1 -10.02626301900190  3.98079891489149 -0.65931132263226
 1 -10.23137642704270 -2.52241158195820 -1.15493214541454
 1 -2.71224768166817 -1.02487080098010  2.02140283148315
 1 -2.00015362056206  1.55081866446645  1.07834848524852
 1 -1.68077253475348  1.04960541344134  3.42322603610361
 1 -3.09848490849085  2.39072312981298  3.60091225662566
 1 -3.51290473317332  0.61725640964096  3.75441785458546
 1 -2.22625511041104 -1.58262822322232 -0.23079698889889
 1 -2.05613728622862  0.24291154155416 -0.76259629922992
 1 -0.29546306370637  0.47650226412641  0.92156255535554
 1 -0.45901370337034 -1.23354786998700  1.24693864906491
 1 -5.84673344874487  6.76074471857186  0.54482019121912
 1 -5.46619360876088  6.10939430253025  2.10315661276128
 1 -4.40869482548255  5.43436460286029  0.84909808540854
 1 -9.21155320782078  6.09136528462846 -0.90096032423242
 1 -8.93486470237024  8.09635037393739  0.34015363716372
 1 -7.70581004680468  7.24322072157216  1.63921230673067
 1 -12.04889899499950  3.22174250025002 -2.16498950365037
 1 -13.24258392759276  2.00352424362436 -1.73229442094209
 1 -12.22984471557156  3.27004565926593 -0.67875911991199
 1 -12.47455223362336 -1.54076352145215 -1.18418337323732
 1 -13.30141886078608  0.04153741694169 -1.58490401790179
 1 -13.14258061066107 -1.59923460966097 -3.67997788228823
 1 -12.21765532973297 -0.10015455305531 -3.84571806750675
 1 -11.19421570087009 -1.66032089918992 -3.34071269126913
 1 -9.24819442244224 -4.78344908780878 -1.68455171927193
 1 -8.02602196699670 -5.55178518271827 -0.82007162016202
 1 -9.38940882578258 -4.95771079237924  0.00569874727473
 1 -3.39468016391639 -3.45283853455346 -0.33087835933593
 1 -1.40607877437744 -4.24919135883588  3.33467638293829
 1 -2.95714532313231 -5.44606622422242  3.67421025992599
 1 -1.40489860136014 -5.91004027722772  2.46400035293529
 1  2.61804110821082 -1.92989482538254 -1.46261022602260
 1  2.71024850245024 -0.00315603600360 -2.04549770197020
 1  4.19542044764476 -1.13459567476748  0.42673588958896
 1  3.99185814931493  1.53826253665367 -2.40589895959596
 1  5.75219063076308  2.21669192809281 -1.87246371457146
 1  5.42185949354935  0.69340044754475 -3.00748947994799
 1  6.56728879177918  1.50342434243424  0.08896153895390
 1  6.27689180858086 -0.09055709310931  0.80216993369337
 1  7.18425581028103 -0.98904814001400 -1.32031335493549
 1  7.84166660256026  0.61159436753675 -1.87098002160216
 1  9.07941999359936  0.72798068306831  0.47699533173317
 1  8.75769425812581 -1.11214672087209  0.79367723142314
 1  10.41839939133913  0.24367690539054 -1.57087197669767
 1  9.28355334083408 -2.07356533303330 -2.38628455325533
 1  10.98799135483548 -2.12783956785679 -2.33373761766177
 1  9.93879676567657 -2.68073001500150 -0.81989142884288
 1  11.36079376027603  0.30208243844384  0.69243073057306
 1  11.31160421382138 -1.39788574987499  0.83370399199920
 1  12.84972829172917 -1.50688885008501 -1.07313498109811
 1  12.87207095959596  0.03744443544354 -1.51289465076508
 1  13.77600903760376  0.73242579857986  0.87753509650965
 1  14.00629338243824 -1.16597620232023  0.85202171867187
 1  15.35337862636264  0.20474995999600 -1.35360971897190
 1  15.94126156905691 -2.12526281838184  0.06314486058606
 1  15.28661171187119 -2.33247562316232 -1.62058947404740
 1  16.78221785118512 -1.48954447934794 -1.48130960046005
 1  15.93445864656466  1.51786962066207  0.50815736003600
 1  16.34376882408241  0.21132195709571  1.62964572577258
 1  18.26885782448245 -0.32946949434944 -0.51825516591659
 1  17.64119118361836  1.25813313221322 -1.09159273507351
 1  18.51698249084908  2.56152030973097  0.99565757105711
 1  18.74375153545355  0.88246242724272  1.78504850515051
 1  20.33063797649765  0.21501764996500 -0.04375731173117
 1  19.88101220782078  3.12935649754975 -0.99919351275128
 1  21.23009726182618  2.07608426122612 -1.60312167546755
 1  19.71494539893990  1.66568837963796 -1.85579254825483
 1  21.10565654085408  1.43698180728073  2.13650326752675
 1  22.13790549684968  2.08579980968097  0.90244521082108
 1  20.89214894479448  3.00255033833383  1.73589402990299
>>>>>>> 8e03b5b5abfc0030b3aa597dc0de36371bfbd096

