%nproc=4
%Mem=2GB
# td=(NStates=1) CAM-B3LYP/6-31G(d,p) 

TD

0 1
<<<<<<< HEAD
12 -7.11507208020802  0.56975572367237  0.09611729912991
 6 -4.83657827582758 -1.87695887428743  0.47214374707471
 6 -4.80596052495250  2.89944839213921  1.20772713761376
 6 -9.47650238573857  3.07611310681068 -0.27278013771377
 6 -9.51614192789279 -1.83060857185719 -0.88432486158616
 7 -5.06530995559556  0.48693851195120  0.66630704900490
 6 -4.34614432053205 -0.64943476547655  0.73632165536554
 6 -2.81013001840184 -0.28335776147615  1.10271062526253
 6 -3.05850928932893  1.18598126642664  1.60921165186519
 6 -4.48477547244724  1.52039278807881  1.17681471137114
 6 -2.77767284938494  1.32345463356336  3.03828523742374
 6 -1.94747820882088 -0.54866012741274  0.00248420672067
 6 -0.43217063966397 -0.23266761396140  0.48832296159616
 6  0.58105924312431 -0.49521303420342 -0.75075045554555
 8  0.23622486258626 -0.95223063066307 -1.85675200690069
 8  1.82787459795980 -0.43232062846285 -0.27926471537154
 7 -7.19961040894089  2.65000058985899  0.27219591509151
 6 -6.04698397739774  3.47096807260726  0.76461999559956
 6 -6.42802005510551  4.77251154055406  0.76935762296230
 6 -7.74988769576958  4.88183881538154  0.31712010331033
 6 -8.21882615421542  3.48877807310731  0.09172171847185
 6 -5.49552750945095  5.83616608250825  1.28104286478648
 6 -8.61023882148215  5.94599563326333  0.09744673007301
 6 -8.52166605790579  7.08021414001400  0.76469271907191
 7 -9.11150342294230  0.62209507060706 -0.51547558125813
 6 -9.85633189288929  1.67755770887089 -0.61066739083908
 6 -11.15150424702470  1.34870320942094 -1.09820153965397
 6 -11.21614401830183 -0.01112574847485 -1.21484019801980
 6 -9.89892557325733 -0.51310328462846 -0.88187320342034
 6 -12.27794661836183  2.28102867386739 -1.32393916871687
 6 -12.34739928622862 -0.87478488858886 -1.72682349084909
 6 -12.39035652405241 -1.15862827402740 -3.21157627622762
 7 -7.16012548084808 -1.42140175377538 -0.20117479447945
 6 -8.23024326412641 -2.27762293439344 -0.48602355755576
 6 -7.72999914551455 -3.70851911941194 -0.57667494479448
 6 -6.40445432953295 -3.58142247924793 -0.04400613251325
 6 -6.15984858125813 -2.21530981228123  0.06133893809381
 6 -8.56968443584358 -4.91406424882488 -0.89347782618262
 6 -5.28001247154715 -4.31218510201020  0.25212808540854
 8 -5.08928776667667 -5.57622210561056  0.35981301200120
 6 -4.07918149754975 -3.29348513831383  0.55180504580458
 6 -3.50041067196720 -3.69103432473247  1.99921029392939
 8 -3.82607420802080 -3.08428516471647  2.99562224332433
 8 -2.68431962566257 -4.64509923232323  1.85219380028003
 6 -1.99582016991699 -5.01363559265927  3.06150108560856
 6  2.86619913161316 -0.63382117671767 -1.26694789518952
 6  4.17186927592759 -0.37651582788279 -0.60055020402040
 6  5.09646313071307  0.46558282368237 -0.98276804950495
 6  4.93005142814281  1.42522517181718 -2.13670783608361
 6  6.39385371817182  0.49535138533853 -0.27907439263926
 6  7.62385992389239  0.04255390849085 -1.08980593109311
 6  8.83036490909091 -0.01197632803280 -0.24151596439644
 6  10.23275389988999 -0.52737980968097 -0.84258522902290
 6  10.00736743694369 -1.94594553065307 -1.29126259125913
 6  11.39811268816882 -0.23500728152815 -0.02060119151915
 6  12.69477438513851 -0.48853290439044 -0.74127415031503
 6  13.95366483488349 -0.13245444824482  0.23440050755076
 6  15.23469959485949 -0.24013774287429 -0.43610184998500
 6  15.60199186808681 -1.63635126892689 -0.99440905860586
 6  16.38877298319832  0.26017037703770  0.46478098529853
 6  17.81649623902390  0.43585498389839 -0.17937375197520
 6  18.68090846034604  1.15763398039804  0.89207964096410
 6  20.14346301550155  1.17572790629063  0.30927569076908
 6  20.33953530733073  1.94866316351635 -1.04379537223722
 6  21.09939086988699  1.65147808410841  1.39026438983898
 1 -4.27365885038504  3.72358788018802  1.58434302120212
 1 -10.06028642134213  4.11574240924092 -0.58724411591159
 1 -10.19019230863086 -2.54829417021702 -1.19406605880588
 1 -2.52583904080408 -0.94971328522852  2.03622431363136
 1 -2.42691629682968  1.98819240184018  1.19022967336734
 1 -1.62491694919492  1.32700315321532  3.39241295479548
 1 -3.00223528352835  2.31552561006101  3.20456262166217
 1 -3.34895833853385  0.79153383738374  3.81047346014602
 1 -1.94481696659666 -1.66531649204921 -0.27592150135014
 1 -1.99452112461246 -0.15798854845485 -1.09519955955596
 1 -0.36300981838184  0.91290590449045  0.84613501260126
 1 -0.22244004600460 -0.84187870307031  1.27051100630063
 1 -5.77892666806681  6.77447609170917  0.96448215741574
 1 -5.43074006340634  5.95138850195020  2.37423372047205
 1 -4.36823077907791  5.57370853725372  1.09627280288029
 1 -9.40845289778978  5.83004915301530 -0.65070529872987
 1 -9.29435065096510  8.00443118201820  0.67642726452645
 1 -7.86812627842784  7.25111151065107  1.59770815631563
 1 -11.86458056315632  3.01786211221122 -2.07142014671467
 1 -13.03428309750975  1.65925981718172 -1.75692688418842
 1 -12.52511424252425  2.78493714841484 -0.39030027402740
 1 -12.54307908630863 -1.90032947804780 -1.23463841874187
 1 -13.40461918081808 -0.44743147994799 -1.30542607010701
 1 -13.00436678927893 -1.95873055925593 -3.35508539303930
 1 -12.59511307550755 -0.25300983858386 -3.77182067776778
 1 -11.44099037833784 -1.73226809390939 -3.48812743274327
 1 -9.23730333333333 -4.86279702260226 -1.86135940004000
 1 -8.03395276007601 -5.78278828302830 -1.04322393539354
 1 -9.20800068496850 -5.10464548584859  0.13329150655066
 1 -3.23038373427343 -3.27442069276928 -0.06239151065107
 1 -1.40035820232023 -4.19393583328333  3.50523343864386
 1 -2.66120572917292 -5.51317293489349  3.83230606950695
 1 -1.26641475297530 -5.78137741094109  2.55136908980898
 1  2.64433373747375 -1.48509034493449 -1.81453541854185
 1  2.51830930853085  0.07493177277728 -2.01411456365637
 1  4.15038594419442 -1.13151536673667  0.31209442544254
 1  4.04362332583258  1.68592730313031 -2.56408477817782
 1  5.23131854355436  2.44682494139414 -1.73129959815982
 1  5.60007731533153  1.24000510801080 -3.02374110511051
 1  6.36426848974897  1.56883088308831  0.09022166496650
 1  6.34019813921392 -0.05862389978998  0.55076479317932
 1  7.50681806650665 -1.10887012221222 -1.49071039463946
 1  7.89865230113011  0.65163837193719 -1.94634755835584
 1  9.03587563916392  1.05842372737274  0.02587021922192
 1  8.70706919561956 -0.69840534673467  0.48354621832183
 1  10.30541809320932  0.00740327802780 -1.76908179767977
 1  9.05341032653265 -2.01819979647965 -1.75890181498150
 1  10.84030658635864 -2.27697448134813 -2.11771601550155
 1  10.10395328132813 -2.59937187918792 -0.38817825752575
 1  11.37491517241724  0.79126135633563  0.48971045854585
 1  11.28529158255826 -0.84352031333133  0.83742436403640
 1  13.01997531643164 -1.49103726492649 -1.17677534513451
 1  12.57283103560356  0.14691538253825 -1.53157651895190
 1  13.85148658535854  1.01736429242924  0.36592393539354
 1  13.93559631273127 -0.55400500520052  1.12783930043004
 1  15.34444773327333  0.37171665666567 -1.17681203920392
 1  15.99119656255626 -2.41918221032103 -0.19386083998400
 1  15.09082213291329 -2.36280865646565 -1.70533794889489
 1  16.65909553895390 -1.51237676257626 -1.46269773927393
 1  15.98132333303330  1.38599643334333  0.71978852315232
 1  16.38050249744974 -0.30286946204621  1.32511527272727
 1  18.31950288898890 -0.44343089048905 -0.26940028042804
 1  17.85224228872887  0.84942226112611 -1.19024260006001
 1  18.28554934753475  2.14441859955996  1.11913991929193
 1  18.83623078337834  0.61504568556856  1.88665866616662
 1  20.31595650835084  0.24990113831383  0.21885894989499
 1  19.97315142174217  2.88669223112311 -0.88325191859186
 1  21.37587183928393  1.83543019581958 -1.10815217851785
 1  19.85732963736374  1.61612342314231 -1.95580254925493
 1  21.15191116631663  0.99499760886089  2.36626624382438
 1  22.17869957625762  1.49366059575958  1.16332129842984
 1  20.90188991889189  2.64665474877488  1.67915835633563
=======
12 -7.05627620062006  0.68383713181318  0.07474516191619
 6 -4.96381099909991 -1.94349552795280  0.61021755445545
 6 -4.72726265516552  2.90815926322632  1.07354371927193
 6 -9.39933466896690  3.11719721522152 -0.27192005170517
 6 -9.50898121182118 -1.71893740474047 -0.77535396449645
 7 -4.95190861546155  0.44099391749175  0.67952837113711
 6 -4.39036874297430 -0.69052887488749  0.83956197939794
 6 -2.72720172557256 -0.46966639233923  1.13584393859386
 6 -2.96192963136314  0.97419008730873  1.62384311501150
 6 -4.27283427832783  1.44541529032903  1.11280831073107
 6 -2.88760384248425  1.23474576267627  3.13970537943794
 6 -1.87574103510351 -0.68428368976898  0.06007996629663
 6 -0.41994941754175 -0.43436778397840  0.38245237453745
 6  0.53812494969497 -0.66661017391739 -0.65823120362036
 8  0.24779601970197 -0.89137454505451 -1.82311864356436
 8  1.80404221472147 -0.66238363476348 -0.21739852875288
 7 -7.07161760966097  2.62225781558156  0.39559825532553
 6 -5.92659193819382  3.32914389018902  0.73027656125613
 6 -6.39974722782278  4.72118640804080  0.73667435463546
 6 -7.69698240524052  4.81548217971797  0.49027741904190
 6 -8.10230450205021  3.48561775707571  0.08061060736074
 6 -5.43942189888989  5.86702916881688  1.02752751325133
 6 -8.48352615021502  6.04169520322032  0.15287227262726
 6 -8.47505139643964  7.16994311291129  0.84656090589059
 7 -9.04310658325833  0.71024388548855 -0.47526155985599
 6 -9.85611187088709  1.83732368546855 -0.68901522562256
 6 -11.10680977757776  1.45979431853185 -1.21039275877588
 6 -11.15918832273227  0.11374673877388 -1.24610332433243
 6 -9.87334301500150 -0.36320829512951 -0.86205122122212
 6 -12.30616944064406  2.40806137713771 -1.41910868566857
 6 -12.28598314461446 -0.69473688378838 -1.84814562306231
 6 -12.06539402780278 -1.02480489168917 -3.37300241884188
 7 -7.21817128542854 -1.35453506710671 -0.08268294529453
 6 -8.28306854665466 -2.18321349344934 -0.40084503970397
 6 -7.83882002760276 -3.66834510201020 -0.43593087038704
 6 -6.55546943104310 -3.57129146614662 -0.05798753065307
 6 -6.20534313071307 -2.23088136943694  0.23943674787479
 6 -8.74284175157516 -4.77009985238524 -0.61491997039704
 6 -5.42512698299830 -4.41028491199120  0.23341621422142
 8 -5.28559739763976 -5.60888537193719  0.22079911061106
 6 -4.27835141454145 -3.35343113291329  0.55435530083008
 6 -3.55925655655566 -3.70253547484749  1.91543191609161
 8 -3.80554215481548 -3.05909264546455  2.87519020012001
 8 -2.84629582328233 -4.84179890229023  1.81462004290429
 6 -2.34003459135914 -5.16414064316432  3.03023795929593
 6  2.85041755345535 -0.70756855145515 -1.28380958135814
 6  4.12610469946995 -0.56346452275228 -0.62817296629663
 6  5.16697018141814  0.26514277967797 -0.96669644234423
 6  5.09732815581558  1.20257290659066 -2.27388155345535
 6  6.45399973277328  0.29389123932393 -0.15426191139114
 6  7.67580511841184 -0.16928727562756 -0.90865781628163
 6  8.84989686228623 -0.21073620402040 -0.16760857365737
 6  10.18985961046105 -0.57685475717572 -0.94526549704970
 6  10.20216691689169 -1.98336927302730 -1.49445291029103
 6  11.42487536443644 -0.23062684348435 -0.05440457185719
 6  12.80268517621762 -0.56276032713271 -0.67461748464846
 6  13.96702617101710 -0.17064826762676  0.30326739423942
 6  15.33092921782178 -0.18696242534253 -0.41341958175818
 6  15.62179384828483 -1.65368300210021 -0.89183880158016
 6  16.29584369026903  0.50502486248625  0.50103461066107
 6  17.70610519991999  0.65638703710371 -0.17291310591059
 6  18.67224759425942  1.35594381138114  0.69217965096510
 6  20.10544921412141  1.46493682718272  0.21835659885989
 6  20.18505985978598  2.29163746094609 -0.99842083478348
 6  21.05083601440144  2.07955089138914  1.29307467086709
 1 -3.95431691619162  3.52678820022002  1.66341092799280
 1 -10.16909730243024  3.79255009000900 -0.38136352785278
 1 -10.30664395379538 -2.32839218001800 -1.22074872707271
 1 -2.52622907980798 -1.26567488138814  1.95926661786179
 1 -2.27319092429243  1.62700628322832  0.89923057345735
 1 -1.72000645814581  1.15169562246225  3.35868958245824
 1 -3.21633669366937  2.14042810031003  3.34431659705971
 1 -3.41855529822982  0.44416910091009  3.58351076387639
 1 -1.86347883278328 -1.94493445384538 -0.19044295349535
 1 -2.16243791629163 -0.28173092269227 -0.87968800840084
 1 -0.34756827422742  0.60983559745975  0.85816621572157
 1 -0.30739854185419 -1.15298981418142  1.18846280148015
 1 -6.02470124552455  6.76829547364736  0.75417112631263
 1 -5.31437842724272  5.82346570967097  2.25985228232823
 1 -4.36476043204321  5.64422558895890  0.55781895749575
 1 -9.11285333783378  6.14326047414741 -0.70640086828683
 1 -9.10207142304230  8.03367410631063  0.35577519931993
 1 -7.89375884168417  7.45147154665467  1.80020840634063
 1 -11.97093119821982  2.98042836883688 -2.20861386608661
 1 -13.15266493569357  2.08410230143014 -1.67954914641464
 1 -12.49021075217522  3.16314496919692 -0.70337158115812
 1 -12.43173795219522 -1.42657210231023 -1.03428838373837
 1 -13.39621834073407 -0.06353309010901 -1.70110563806381
 1 -13.18723507610761 -1.42527721392139 -3.74251413591359
 1 -11.92423598779878  0.01592705510551 -4.04441793749375
 1 -11.31346762606261 -1.67038190529053 -3.62682130213021
 1 -9.03078268126813 -4.65319606250625 -1.61757502160216
 1 -8.28960832563256 -5.70485048924892 -0.47653726672667
 1 -9.66335622052205 -4.30927594889489  0.04978315571557
 1 -3.47314801070107 -3.48432168286829 -0.00710598209821
 1 -1.71741990849085 -4.52938937863786  3.53479639493949
 1 -3.17574718331833 -5.15253687128713  3.86113895279528
 1 -1.66429454095410 -6.35050432363236  2.84909886278628
 1  2.75655495959596 -1.76817865376538 -1.86220018501850
 1  2.88744622222222  0.15774005360536 -1.71806495869587
 1  4.14179508510851 -1.20244245944594  0.19053226922692
 1  4.04737370087009  1.43307201760176 -2.58763713341334
 1  5.66581199289929  2.07040729962996 -1.96936340454045
 1  5.58495580318032  0.58186929442944 -2.97340607160716
 1  6.64185624852485  1.37766176617662  0.08969161196120
 1  6.20240435983598 -0.44459249664967  0.61616133283328
 1  7.38556594129413 -1.25521475667567 -1.29504082768277
 1  7.72989542544254  0.46976018411841 -1.84355727932793
 1  9.03816586818682  0.77994587958796  0.26775440764076
 1  8.64052254095410 -0.93625913211321  0.91053891759176
 1  10.27244479587959 -0.06585404770477 -1.77616250575057
 1  9.02989797529753 -2.20780875737574 -1.84364028882888
 1  11.03978653435344 -2.22185896979698 -2.12014625852585
 1  10.35492837883788 -2.71548349034904 -0.55241468116812
 1  11.51373905480548  0.86401863206321 -0.02478099059906
 1  11.28109116251625 -0.81853781508151  0.81349197079708
 1  12.79841316021602 -1.71399956115612 -1.04224189178918
 1  12.82021577407741 -0.02677198619862 -1.54791815311531
 1  13.62191362806281  0.78585114111411  0.54974231723172
 1  13.89665241834184 -0.74602420712071  1.12128864536454
 1  14.92723601210121  0.50248973397340 -1.44192855085509
 1  15.56966440934093 -2.21880217231723  0.05954450055005
 1  15.00356340704070 -2.31581395699570 -1.49915733083308
 1  16.38944857425743 -1.65675120002000 -1.51427289678968
 1  16.03574877557756  1.46178401210121  0.84841138543854
 1  16.64481892909291 -0.26130530563056  1.43273603480348
 1  18.18084902360236 -0.54644119151915 -0.45656899729973
 1  17.54458152265227  1.22897021592159 -1.17678125392539
 1  18.26849764236423  2.41809596729673  1.07474547984798
 1  18.60919808010801  0.83790797179718  1.81478147844784
 1  20.41866677937794  0.50505665386539  0.17767483148315
 1  19.77362146874687  3.27162072397240 -0.72529612301230
 1  21.12663691579158  2.53476012881288 -1.47937930123012
 1  19.61133503790379  2.07061887268727 -1.89519648864886
 1  20.84387036223622  1.36994510361036  2.10264988218822
 1  22.14423612991299  1.91545277497750  1.05975094139414
 1  21.05572530243024  3.09734981828183  1.69565000550055
>>>>>>> 8e03b5b5abfc0030b3aa597dc0de36371bfbd096

