%nproc=4
%Mem=3GB
# td=(NStates=1) iop(3/107=0140000000,3/108=0140000000) CAM-B3LYP/6-31G(d,p) 

TD

0 1
12 -7.08175286698670  0.60053843734373  0.09466583658366
 6 -4.83406222272227 -1.89505673627363  0.48472387478748
 6 -4.76297232783278  2.90849956785679  1.20419052425243
 6 -9.47009377387739  3.03359091209121 -0.35507798309831
 6 -9.62480857885789 -1.71981374707471 -0.74373117801780
 7 -5.07116414761476  0.55558164876488  0.63423124712471
 6 -4.29830207750775 -0.70817196039604  0.72113000770077
 6 -2.89770599119912 -0.28625702370237  1.13943961306131
 6 -3.00373360026003  1.20885958755876  1.65049132843284
 6 -4.32640287498750  1.59012366346635  1.11743613751375
 6 -2.96592277307731  1.40552337163716  3.23915923052305
 6 -1.91950768046805 -0.52937892709271  0.07068087838784
 6 -0.43806951615162 -0.41469471747175  0.43480686298630
 6  0.54521644484448 -0.69780640254025 -0.72704249434943
 8  0.20688090489049 -0.96464024172417 -1.87674506760676
 8  1.77517611601160 -0.56529646804680 -0.27544293189319
 7 -7.11025866926693  2.58737194709471  0.24202512661266
 6 -6.12541268506851  3.42590635803580  0.84458033413341
 6 -6.50085499389939  4.74189105270527  0.88919717841784
 6 -7.74130891619162  4.89673147834784  0.35464159055906
 6 -8.14367389488949  3.50985792459246  0.00709870847085
 6 -5.58488052195220  5.89110858455846  1.18285844104410
 6 -8.48837884588459  5.99086935653565  0.20092070457046
 6 -8.43749215921592  7.13368251795179  0.86910096939694
 7 -9.09949899099910  0.65324231863186 -0.43662023592359
 6 -9.84656214251425  1.77162048634863 -0.52378519201920
 6 -11.18698265096510  1.49515896039604 -1.00231509120912
 6 -11.28717820502050  0.07402494829483 -1.20426045434543
 6 -9.97459506310631 -0.37623781718172 -0.75531773307331
 6 -12.24805574327433  2.37286252765277 -1.37479693239324
 6 -12.47610140304030 -0.75315143894389 -1.62887221782178
 6 -12.38324023292329 -1.21965215751575 -3.09697034823482
 7 -7.18989195159516 -1.37027186288629 -0.26317899299930
 6 -8.28809313561356 -2.28181672717272 -0.58653023292329
 6 -7.80760280008001 -3.56800735213521 -0.52052235203520
 6 -6.54485227572757 -3.53689667176718 -0.14908699039904
 6 -6.21071480318032 -2.14142209800980  0.06526836223622
 6 -8.56270861036104 -4.94910100850085 -0.90007339043904
 6 -5.37741320422042 -4.32113567696770  0.13570854495450
 8 -5.11183217551755 -5.55910276727673  0.12144809340934
 6 -4.09075357795780 -3.29432688008801  0.53177149874987
 6 -3.58274245104510 -3.66170411311131  1.87553352185218
 8 -3.73861664506451 -2.99160651855185  2.85092845104510
 8 -2.85881123392339 -4.79895851435144  1.80633967146715
 6 -2.23288224522452 -5.22940814671467  3.10078747914791
 6  2.87004332473247 -0.60952924182418 -1.34508802600260
 6  4.16061694689469 -0.42832810071007 -0.67317988078808
 6  5.15035052635263  0.25761228922892 -1.12162503950395
 6  5.07237096269627  1.08605628092809 -2.36261039603960
 6  6.51684796349635  0.36952756875688 -0.36752727712771
 6  7.67537899049905 -0.08585713371337 -1.05384571327133
 6  8.92226993859386 -0.05601741784178 -0.22004810721072
 6  10.15867132773277 -0.62551421462146 -0.79260498049805
 6  10.17768104470447 -2.14990287018702 -1.16599356535654
 6  11.42911757555756 -0.23951884298430 -0.00202816531653
 6  12.74247198269827 -0.45352538603860 -0.64979248434843
 6  14.01037230903090 -0.11362707700770  0.20351676327633
 6  15.36029202020202 -0.15768485208521 -0.45567121962196
 6  15.75069134013401 -1.51201959025903 -1.08602042834283
 6  16.44713170587059  0.34363088038804  0.49096383108311
 6  17.78596618431843  0.38011174077408 -0.07205373237324
 6  18.75513593219322  1.17528560706071  0.81671492819282
 6  20.21119392379238  1.32905233773377  0.36815352135214
 6  20.38212105790579  1.99735704080408 -0.92602729862986
 6  21.12828789578958  1.89121082098210  1.41240518051805
 1 -4.30812117561756  3.67528077947795  1.40237633343334
 1 -10.19363148644864  3.86111838633863 -0.76409093529353
 1 -10.47651207530753 -2.28433396849685 -1.03473129252925
 1 -2.69814710191019 -0.84521472417242  2.01599809050905
 1 -2.28244171047105  1.83889595069507  1.11381503050305
 1 -1.78948203460346  1.16607571397140  3.54179451685169
 1 -3.20399750885089  2.42862208500850  3.65577359955996
 1 -3.48547134763476  0.51048620292029  3.80129181438144
 1 -1.91079619861986 -1.44257492829283 -0.37488549564956
 1 -2.28309467846785  0.03854147394739 -0.84947168176818
 1 -0.28012344104410  0.65880546784679  0.87674153715372
 1 -0.17148556885689 -1.16797756435644  1.09861331963196
 1 -5.66601077877788  6.78193570557056  0.31890172147215
 1 -5.88658012931293  6.37318019941994  2.10111212371237
 1 -4.60070491509151  5.58484275227523  1.24279501210121
 1 -9.38114837463746  5.87823120512051 -0.44214556725673
 1 -9.08190725442544  7.90271999299930  0.71709148484848
 1 -7.91119905200520  7.46423325972597  1.64739369966997
 1 -12.03987446044605  3.19869901700170 -2.02616844834483
 1 -13.07164446214621  1.99582832523252 -1.77591331953195
 1 -12.44576560926093  2.85847318141814 -0.41297173667367
 1 -12.44562652755275 -1.53866478927893 -0.90292379327933
 1 -13.30242254135414 -0.14521723222322 -1.38652440684068
 1 -13.15355055425543 -1.83992765486549 -3.26844780288029
 1 -12.61263166886689 -0.46480495179518 -3.78749772817282
 1 -11.37928276767677 -1.77932896009601 -3.32342062026203
 1 -8.84559917851785 -5.13240974177418 -1.81498756175618
 1 -8.13764815001500 -5.98907486078608 -0.78057801290129
 1 -9.57917209620962 -4.94603305170517 -0.31587385608561
 1 -3.46615413391339 -3.35586219181918 -0.29380711881188
 1 -1.31427481508151 -4.56805901930193  3.36298801640164
 1 -3.07706414371437 -5.08611813671367  3.87569860756076
 1 -1.86217673817382 -6.26705749054906  2.84930829192919
 1  2.89984803960396 -1.58992561536154 -1.73906535523552
 1  2.47311375267527  0.22306039083908 -1.91473253075308
 1  4.32942342904291 -1.10217863166317 -0.06450505030503
 1  4.06866217771777  1.19741528422842 -2.91915240094009
 1  5.51273820602060  2.04932535643564 -2.14998243664366
 1  5.54299386788679  0.53426461736174 -3.02686894379438
 1  6.56955513941394  1.46864684528453 -0.09937032313231
 1  6.40652852495250 -0.04798213491349  0.66076227172717
 1  7.40957308010801 -1.28771944494449 -1.44023878107811
 1  7.74345690419042  0.59097820082008 -1.91322214511451
 1  9.16935297959796  1.00292979047905  0.04655708380838
 1  8.66337945874588 -0.65342369506951  0.68636475987599
 1  10.47287191899190 -0.07644149634964 -1.61654681268127
 1  9.22661227032703 -2.48449673317332 -1.87897627952795
 1  11.05174431503150 -2.29273267256726 -1.77400275837584
 1  10.09500169726973 -2.67146126082608 -0.39722711641164
 1  11.52886452805280  0.78636506990699  0.25999377017702
 1  11.44823241874187 -0.77368866646665  0.95138145824582
 1  12.83519147164717 -1.59122654195420 -0.97369964146415
 1  12.99250508040804  0.11258619461946 -1.54837917161716
 1  13.94295571587159  1.09700506380638  0.42037686638664
 1  13.97039535013501 -0.86782316121612  0.96870924492449
 1  15.38295869726973  0.68676207320732 -1.25861713051305
 1  15.92697649444944 -2.27738707990799 -0.18058619411941
 1  14.89458110251025 -2.04544906490649 -1.86331770527053
 1  16.79144742434243 -1.26453735073507 -1.37908442174217
 1  15.97767104060406  1.34183251695170  0.80804672097210
 1  16.47261133893389 -0.20962724752475  1.44907340204020
 1  18.07645438313832 -0.53135964996500 -0.17866806240624
 1  17.78013532313231  0.77730662476248 -1.26633237683768
 1  18.44293335023502  2.13031429942994  0.93548549534954
 1  18.79183514601460  0.81777661716172  1.90715396089609
 1  20.53686351865187  0.31098209580958  0.17542343454345
 1  20.28458527702770  3.05854663116312 -0.88113029772977
 1  21.40959476027603  1.87825896799680 -1.41856983818382
 1  19.73677207480748  1.84018430863086 -1.71948033243324
 1  21.06913076657666  1.35398103900390  2.25293896269627
 1  22.34161205400540  1.94685515621562  1.17029368296830
 1  20.72883296179618  2.89792590979098  1.80255739243924

