%nproc=4
%Mem=2GB
# td=(NStates=1) CAM-B3LYP/6-31G(d,p) 

TD

0 1
12 -7.04663523652365  0.54833358145815  0.07062474987499
 6 -4.83539815781578 -1.96256743514351  0.43586011871187
 6 -4.68501843074307  2.89794824212421  0.96144250915091
 6 -9.36116085158516  3.13664916041604 -0.43886674637464
 6 -9.58420873457346 -1.76875238623862 -0.74205063416342
 7 -5.07928135273527  0.45446526462646  0.66143656195620
 6 -4.28563826992699 -0.69542936493649  0.70111813501350
 6 -2.88863786918692 -0.46308573427343  1.22545289948995
 6 -2.98693213161316  1.00912358065807  1.62803353405341
 6 -4.36203319821982  1.48349909870987  0.98522555245525
 6 -2.85647072917292  1.32713500160016  3.09923133203320
 6 -1.91428488948895 -0.57648290969097  0.03101706000600
 6 -0.43532095469547 -0.39625397259726  0.46104023332333
 6  0.56811794899490 -0.65357887078708 -0.64926030653065
 8  0.31369260936094 -0.92064747234723 -1.79290562226223
 8  1.85027683818382 -0.37564496089609 -0.15899268816882
 7 -7.14950539843984  2.59352494229423  0.36346504200420
 6 -6.01134041304130  3.37638861466147  0.74266780038004
 6 -6.41355860896090  4.79592388178818  0.82160284748475
 6 -7.73077578457846  4.84980561206121  0.40706909820982
 6 -8.10250452205221  3.55499469476948  0.01637418371837
 6 -5.48304626132613  5.85887835373537  1.18865362586259
 6 -8.59113691129113  5.88730976467647  0.17296428182818
 6 -8.59100299159916  7.12994911351135  0.89107535733573
 7 -8.95021729432943  0.65337819891989 -0.54410844454445
 6 -9.80313657335734  1.78536848994899 -0.70468679277928
 6 -11.18224732133213  1.41464980408041 -0.99844156365637
 6 -11.18836124002400  0.12725808990899 -1.17585629962996
 6 -9.88056373707371 -0.39824179847985 -0.86633164926493
 6 -12.30865968966897  2.46368693969397 -1.24560133493349
 6 -12.35200974727473 -0.73769117921792 -1.64180498899890
 6 -12.19006649504951 -1.08539095029503 -3.15606072467247
 7 -7.20673014131413 -1.40765037863786 -0.17537221422142
 6 -8.29170941074107 -2.22152732483248 -0.49632458765877
 6 -7.90550669626963 -3.61112938043804 -0.35653293059306
 6 -6.44781866596660 -3.55147948494850 -0.17344907680768
 6 -6.17712030843084 -2.15014329562956  0.11868467266727
 6 -8.56284375177518 -4.82498534093409 -0.74225270367037
 6 -5.31102557285729 -4.33029691319132  0.17884075667567
 8 -5.12842168006801 -5.56392087548755  0.27512454315432
 6 -4.22244582398240 -3.29707549734973  0.44051391669167
 6 -3.51527215811581 -3.67230245154515  1.72966333923392
 8 -3.83632523312331 -3.07104384058406  2.82107478857886
 8 -2.66583777747775 -4.68068279067907  1.69424800570057
 6 -2.24082467036704 -5.20909513861386  3.03289822532253
 6  2.78261077277728 -0.60808860346035 -1.23496469686969
 6  4.21174326332633 -0.45431360766077 -0.58648879787979
 6  5.11007449184918  0.38944520992099 -1.06149592229223
 6  5.09013743674367  1.22677532683268 -2.30844500980098
 6  6.35085941874187  0.48286013621362 -0.22132861806181
 6  7.53403094099410 -0.22793314021402 -0.86191314181418
 6  8.81314318691869 -0.19144427482748 -0.06314812761276
 6  10.03910453495349 -0.60464753645365 -0.79524049454945
 6  10.10392709290929 -2.19865080118012 -1.29726319131913
 6  11.36044892179218 -0.49543332413241  0.05472634123412
 6  12.75878078577858 -0.69596364746475 -0.63932395529553
 6  13.85502497089709 -0.09486068886889  0.19569663716372
 6  15.26397252215222 -0.25402913201320 -0.52405064486449
 6  15.63269493839384 -1.64845247904790 -0.67753737143714
 6  16.31604571047105  0.44821918191819  0.36679118631863
 6  17.76215080448045  0.57932933133313 -0.12497831243124
 6  18.71014138363837  1.35518373537354  0.76324675767577
 6  20.26265493469347  1.43060339383938  0.24240900410041
 6  20.31727308110811  2.11484978217822 -1.10099109180918
 6  21.08582951375138  2.10467340364036  1.28423378677868
 1 -4.13874535903590  3.74899042044204  1.45916050295030
 1 -10.04525491819182  3.88928976397640 -0.65505089658966
 1 -10.33942723212321 -2.37926726752675 -0.99230588278828
 1 -2.72657911481148 -1.01390970487049  2.07616830803080
 1 -2.15925953115311  1.59613319591959  1.20343099349935
 1 -1.85289974747475  1.30006045894590  3.46639035253525
 1 -3.20562562256226  2.40809486698670  3.29426159155916
 1 -3.58907234993499  0.74762944694469  3.76520893369337
 1 -1.98777126202620 -1.69532949334934 -0.40420432963296
 1 -2.10494216671667 -0.09736248584859 -0.80621066066607
 1 -0.16661017841784  0.55912052595260  0.89571997109711
 1 -0.29218702070207 -1.20388490369037  1.25401935713571
 1 -6.10174895029503  6.77945658975898  0.75314102330233
 1 -5.25299228862886  5.91172453555355  2.40573687078708
 1 -4.52821677767777  5.56665783218322  0.78574174977498
 1 -9.35628768126813  5.91989813791379 -0.49567979617962
 1 -9.29372058795880  7.80680141904190  0.57145676747675
 1 -7.70970043584358  7.39569596909691  1.40376876237624
 1 -12.19403350845085  2.87146747274727 -2.15078808350835
 1 -13.04719438863886  1.86687057825783 -1.31396258775878
 1 -12.36422815391539  3.09631828652865 -0.44335557955796
 1 -12.15987076547655 -1.61509095419542 -0.90658561346135
 1 -13.17609632853285 -0.07397413421342 -1.52201772927293
 1 -12.94333068566857 -1.69844453065306 -3.57172705720572
 1 -12.33402696689669 -0.20015455305531 -3.95262875857586
 1 -11.17725400470047 -1.63378824592459 -3.21638025802580
 1 -9.17088669166917 -4.61667241014101 -1.72131539563956
 1 -8.04446381118112 -5.70659066326633 -0.75894550755075
 1 -9.54913479837984 -4.77396241754175 -0.08478030063006
 1 -3.60492118801880 -3.52471572227223 -0.41647691919192
 1 -1.78919708620862 -4.31978841854185  3.74249716501650
 1 -2.93871347994799 -5.90589220682068  3.50042288118812
 1 -1.35356346784678 -5.92556182938294  2.86486043894389
 1  2.73583288738874 -1.69257109300930 -1.56333029802980
 1  2.61518899649965  0.01552583218322 -2.04800795299530
 1  4.37658856445645 -0.95976819201920  0.35396861286129
 1  4.16328529202920  1.42374108450845 -2.89747811751175
 1  5.34889030073007  2.29100935983598 -2.04526099429943
 1  5.68276558415842  0.85472658015802 -3.22426115711571
 1  6.82506456935693  1.45147914791479  0.11212385518552
 1  5.98296241564156 -0.11711974937494  0.79528924562456
 1  7.41858924362436 -1.22470170537054 -1.14969629322932
 1  7.70976341224122  0.29939314741474 -2.01519444304430
 1  9.07537958955895  0.71446933193319  0.20604823702370
 1  8.82802129082908 -0.97097260346035  0.72913077677768
 1  10.02118967036704 -0.01152861516152 -1.88081297079708
 1  9.34042902840284 -2.50057803430343 -2.14770069486949
 1  11.21644420012001 -2.61282806670667 -1.53710795469547
 1  9.55222810881088 -2.80144208620862 -0.51460089978998
 1  11.49910759165917  0.57679991019102  0.45136662416242
 1  11.47166021942194 -0.89205516681668  1.11291191279128
 1  12.91152447134714 -1.68146630783078 -1.10458812641264
 1  12.57428118061806 -0.02869217821782 -1.68000136143614
 1  13.67973941064106  1.16337889388939  0.43266060906091
 1  13.77105985908591 -0.60523012771277  1.20088660516052
 1  15.41915520402040  0.39589907490749 -1.61347570557056
 1  15.81429887278728 -2.26970726282628  0.19252779887989
 1  14.81999505020502 -2.11722409800980 -1.12830024512451
 1  16.75740536993700 -1.79529505440544 -1.13710518001800
 1  15.88471367206721  1.34652248594860  0.59004554885489
 1  16.54876932413241 -0.25454462956296  1.30587334853485
 1  18.09420035873588 -0.43961050845085 -0.38712205260526
 1  17.75267233173318  1.06170348924892 -1.17895147094709
 1  18.29543033563356  2.30225438313831  1.08850685598560
 1  18.83778093839384  0.99136331733173  1.84364436473647
 1  20.57827273997400  0.21897804600460  0.25318238223822
 1  19.93248735533553  3.08203176507651 -0.99153274667467
 1  21.38658291039104  2.11900855365537 -1.50883224652465
 1  19.84771867626763  1.64418622942294 -1.91692866186619
 1  20.88345432063206  1.79627773687369  2.44754437163716
 1  22.13726543284328  2.06409763946395  1.02426739303930
 1  20.90564029392939  3.29851993529353  1.04225466596660

