%nproc=4
%Mem=2GB
# td=(NStates=1) CAM-B3LYP/6-31G(d,p) 

TD

0 1
<<<<<<< HEAD
12 -7.20370094309431  0.57623637173717 -0.06286859945995
 6 -4.76994161216122 -1.93686486488649  0.35942247494749
 6 -4.94679460836084  2.87694614191419  1.09202556745675
 6 -9.54203893939394  3.04908040354035 -0.36968982868287
 6 -9.50426073977398 -1.75538104910491 -0.77348377747775
 7 -5.14659808440844  0.51690150825083  0.46492691099110
 6 -4.30401010711071 -0.63531335333533  0.73953197639764
 6 -3.02452145754575 -0.22443186888689  1.14958531273127
 6 -3.10308374677468  1.20409307760776  1.66352708340834
 6 -4.45576257115712  1.53267401620162  1.12053908380838
 6 -2.90854593669367  1.21624391249125  3.17794920382038
 6 -1.88232169316932 -0.40307556895690 -0.01822786448645
 6 -0.48014543714371 -0.25260960816082  0.41177530683068
 6  0.60967210441044 -0.64856836973697 -0.63655903640364
 8  0.30240148024802 -1.14176958455846 -1.73078941064106
 8  1.77702951345135 -0.49289668606861 -0.14286107500750
 7 -7.24445489338934  2.65989157895790  0.21318001350135
 6 -6.11371065006501  3.40046102190219  0.72905643924392
 6 -6.55599285238524  4.84562885228523  0.78359904710471
 6 -7.79501220822082  4.88312894439444  0.35777416871687
 6 -8.30047431903190  3.44759395469547  0.01263380968097
 6 -5.59501745844585  5.84775724162416  1.16987174767477
 6 -8.77493529112911  5.97060809450945  0.22499948534853
 6 -8.58530242154215  7.12767888648865  0.92001825162516
 7 -9.26615888848885  0.60529339043904 -0.51484551825183
 6 -9.97479373907391  1.75003495659566 -0.58582490659066
 6 -11.32416151275127  1.40621896099610 -1.00849256875688
 6 -11.35845824972497  0.02223758785879 -1.11417013101310
 6 -10.04483016371637 -0.42972494679468 -0.80518553465347
 6 -12.47881670537054  2.28171874287429 -1.30067684248425
 6 -12.41251579787979 -0.85655306540654 -1.63000380888089
 6 -12.29443693209321 -1.19510192139214 -2.99302442104210
 7 -7.24977444574457 -1.39192880648065 -0.04027870487049
 6 -8.27261750155015 -2.29877504960496 -0.39214416961696
 6 -7.78193433903390 -3.60995926342634 -0.44755203250325
 6 -6.43795767986799 -3.59068340534053 -0.05467719961996
 6 -6.12309490589059 -2.10300858215822  0.12737554175418
 6 -8.57548501590159 -4.88219106150615 -0.82544102250225
 6 -5.20308477877788 -4.29752363586359  0.21394426702670
 8 -5.01581041894189 -5.50240472387239  0.19031606230623
 6 -4.09385296469647 -3.21689747954795  0.46685655095510
 6 -3.42512314321432 -3.63100832213221  1.84036440934093
 8 -3.63152475307531 -3.09667640384038  2.91036371747175
 8 -2.57199839353935 -4.65883060546055  1.63810239113911
 6 -1.98721930983098 -5.13957818691869  2.82088702420242
 6  2.89337184888489 -0.60671846644664 -1.14083528392839
 6  4.23425551455145 -0.21355953225323 -0.62985313431343
 6  5.24081756615662  0.51588785418542 -1.04363413611361
 6  5.25533395639564  1.31626427572757 -2.34858902420242
 6  6.48903323612361  0.53417526772677 -0.21319780498050
 6  7.72042958085809 -0.09083943084308 -0.91805875637564
 6  8.94382625522552  0.00661553115312 -0.10389220202020
 6  10.23955457995799 -0.45132220392039 -0.89232020252025
 6  10.13093979417942 -2.01939287538754 -1.16725019001900
 6  11.57236011291129 -0.15564934573457  0.02427329592959
 6  12.81313622132213 -0.55930998209821 -0.74987501040104
 6  13.98347781618162 -0.24155535833583  0.21651871937194
 6  15.31902802770277 -0.33589731883188 -0.41472971277128
 6  15.61680334923492 -1.78566620042004 -0.77469708740874
 6  16.39730383628363  0.37592195219522  0.53824833203320
 6  17.83735832523252  0.36425782418242 -0.12705852045205
 6  18.78185855535554  1.06376459345935  0.85169560256026
 6  20.24829349854985  1.27792812631263  0.23561832503250
 6  20.43392474627463  1.96094439163916 -1.10826181888189
 6  21.13263419421942  1.80382331863186  1.24388975237524
 1 -4.26013749824983  3.39135465686569  1.42434702160216
 1 -10.32748314101410  3.76616745174517 -0.46104149564957
 1 -10.28801209060906 -2.40902024282428 -1.30509716191619
 1 -2.50830728762876 -0.89256757065707  1.88275896709671
 1 -2.40099370457046  1.67057063966397  1.11670232063206
 1 -1.67235169266927  1.10731118401840  3.39453316681668
 1 -3.11591665166517  2.26054011151115  3.38296046144614
 1 -3.59466290899090  0.55529021302130  3.73497591039104
 1 -1.94841732663266 -1.43618357875788 -0.45595950515052
 1 -2.17018869136914  0.14702195259526 -0.77157719731973
 1 -0.14265778317832  0.66884149804981  0.90816121522152
 1 -0.40532833483348 -0.91927644284428  1.24606856205621
 1 -5.65856463186319  6.80962960706071  0.50550625982598
 1 -5.74581157055706  6.41309467256726  2.21022731983198
 1 -4.49526348234823  5.41026219261926  0.96449962556256
 1 -9.50822287478748  5.93593974207421 -0.74282451065107
 1 -9.32223343924392  7.73900463936394  0.52760238203820
 1 -7.83727319311931  7.15995239473947  1.48311669716972
 1 -12.35052915801580  2.94916524252425 -2.28158116281628
 1 -13.46891656085609  1.72580647184718 -1.34959615111511
 1 -12.51559329042904  3.06549520422042 -0.35655689968997
 1 -12.37149192759276 -1.72606205130513 -0.97629258415842
 1 -13.44449316821682 -0.48943568036804 -1.45972149964997
 1 -13.04489084168417 -2.00657534373437 -3.32333221772177
 1 -12.42585614981498 -0.29218375597560 -3.58703219891989
 1 -11.24184046334634 -1.66438130523052 -3.35334395439544
 1 -8.90946054905491 -4.84118486138614 -2.00272353645365
 1 -7.97257662246225 -5.57916792099210 -0.57651726472647
 1 -9.60950083498350 -4.92795781708171 -0.40630245284528
 1 -3.36613730963096 -3.51500475117512 -0.29455472697270
 1 -1.18725689218922 -4.37768420812081  3.05369828512851
 1 -2.74501411001100 -5.08257987558756  3.86822966186619
 1 -1.51909002050205 -6.06351562476248  2.55523947684769
 1  3.02951225532553 -1.65746758265827 -1.35711967696770
 1  2.49727720532053 -0.08394411481148 -2.22714586678668
 1  4.33136404200420 -0.90011222642264  0.29585280128013
 1  4.36816578007801  1.24296300670067 -2.79591796149615
 1  5.24097950965097  2.35533579247925 -2.23157962616262
 1  6.17439474707471  0.92537364486449 -2.89290802180218
 1  6.62740480338034  1.70467446744674 -0.07155451265126
 1  6.32372649204920  0.04884684728473  0.73105282198220
 1  7.73604098879888 -1.33711294649465 -0.95918724232423
 1  7.79804224012401  0.42209541764176 -1.80800372397240
 1  9.09603165476548  0.95396328132813  0.20926855905591
 1  8.86327481618162 -0.47591309750975  0.92449031273127
 1  10.21881943334333  0.18316085378538 -1.82867775727573
 1  9.17408239373937 -2.23755173167317 -1.65006093089309
 1  11.05481803750375 -2.33224000790079 -1.50331457535754
 1  9.91963484948495 -2.64719666166617 -0.19419885958596
 1  11.68391607250725  0.83887611781178  0.50327181468147
 1  11.34097715111511 -0.75427138843884  0.89426004760476
 1  12.85640895979598 -1.46406456765677 -1.08337600520052
 1  12.91218497099710 -0.21132044104410 -1.63765712701270
 1  13.88411984868487  0.87681023702370  0.37767511051105
 1  13.81091384448445 -0.92337194189419  1.09808632513251
 1  15.40283357185718  0.21610109510951 -1.29221357935794
 1  15.80217766066607 -2.51410170227023  0.14290283638364
 1  14.90832388308831 -2.23111548714871 -1.63347076217622
 1  16.59698932833284 -2.09532505740574 -1.40342181168117
 1  16.27607280798080  1.39986782048205  0.52978952325233
 1  16.58841328852885 -0.15138431353135  1.43483624482448
 1  18.19080001870187 -0.71069761716172 -0.39627296769677
 1  17.79966703120312  1.07318463736374 -0.95461903770377
 1  18.23645443804380  2.06042019971997  1.05126313161316
 1  18.86822398269827  0.47083126412641  1.77604760506051
 1  20.43260817351735  0.28392454065406 -0.02752568856886
 1  20.04667877447745  2.91699526142614 -1.07557115051505
 1  21.43808806090609  1.92276892969297 -1.34313567686769
 1  19.97628153255326  1.51409322012201 -1.92035900490049
 1  20.99103507870787  1.46687479657966  2.33734335153515
 1  22.20883258955896  1.60364159385939  0.89313427972797
 1  21.01029075897590  2.88906899019902  1.47107754825483
=======
12 -7.14103467646765  0.64492324042404  0.08872656005601
 6 -4.87026164416442 -1.90865204360436  0.57258379107911
 6 -4.85607553645365  2.95154360166017  1.00958732363236
 6 -9.39541427692769  3.07797329282928 -0.42025488518852
 6 -9.37914822852285 -1.67998350935093 -0.97049347844784
 7 -5.07970139473947  0.50101992009201  0.74314473277328
 6 -4.34292399849985 -0.65978580058006  0.86271429462946
 6 -2.88296730213021 -0.26326575227523  1.26711706590659
 6 -2.96735017341734  1.22602527082708  1.58273900460046
 6 -4.40183717861786  1.63123387218722  1.03237026692669
 6 -2.97154223632363  1.41668395649565  3.20888229712971
 6 -1.95104856585659 -0.60072533393339  0.15275923422342
 6 -0.42527995059506 -0.40438478567857  0.49311344064406
 6  0.47157829502950 -0.72085559845985 -0.63350873137314
 8  0.18259950005000 -1.08974438203820 -1.68349468116812
 8  1.74331614211421 -0.37781517791779 -0.16681347024702
 7 -7.05611605950595  2.63470906070607  0.24227292279228
 6 -6.12572185118512  3.42501347714771  0.73537707130713
 6 -6.54883213631363  4.83235752515252  0.78653934113411
 6 -7.82758546554655  4.83042367386739  0.38885727702770
 6 -8.22512678427843  3.45563475877588  0.03977652395240
 6 -5.66361431813181  5.93425589148915  1.18065282578258
 6 -8.74864266186619  5.98843987768777  0.34182116751675
 6 -8.59909380068007  7.28612473107311  0.86984323412341
 7 -9.07747001960196  0.66228909000900 -0.65906994069407
 6 -9.95603186288629  1.76224617771777 -0.74318064216422
 6 -11.21528062466247  1.38530686978698 -1.14977669716972
 6 -11.24315671957196  0.00726609070907 -1.20933964796480
 6 -9.80050573127313 -0.30144211851185 -0.92792780888089
 6 -12.40528935263526  2.38210878187819 -1.40230700550055
 6 -12.31356590289029 -0.94155156525653 -1.63875468396840
 6 -12.16536402480248 -1.11086349754975 -3.20958607720772
 7 -7.20870033833383 -1.34891450505050 -0.15223990099010
 6 -8.22771301110111 -2.28567373947395 -0.61907686288629
 6 -7.74726087168717 -3.57519578707871 -0.58326560386039
 6 -6.42374625872587 -3.53764810181018 -0.02509424132413
 6 -6.21265386178618 -2.19447772907291  0.09318212241224
 6 -8.57431489888989 -4.85998884128413 -0.85423390179018
 6 -5.25683015331533 -4.29367325082508  0.27017989058906
 8 -5.17000583848385 -5.54990947434743  0.25239226992699
 6 -4.05435901530153 -3.27975376517652  0.50823068836884
 6 -3.51856248714871 -3.58526374767477  1.89120949384939
 8 -3.92404400500050 -3.21555829202920  2.99211189228923
 8 -2.63421461516152 -4.65626034843484  1.72607118801880
 6 -2.19990057795780 -5.22839706880688  2.92094703020302
 6  2.82736524822482 -0.71867966256626 -1.15049625002500
 6  4.10956304530453 -0.47624580088009 -0.44461461046105
 6  5.11028451285129  0.32355862126213 -0.88143791649165
 6  5.15178360136014  1.00432308160816 -2.20551471677168
 6  6.41837617041704  0.33306515671567 -0.08687517271727
 6  7.66239377727773 -0.15438578547855 -0.88832578307831
 6  8.90357222982298 -0.18790392079208 -0.04955676847685
 6  10.13720434493449 -0.50993806550655 -0.94322529302930
 6  10.12708940914091 -1.93459439553955 -1.47843130813081
 6  11.38565144204420 -0.28637241804180  0.03532440104010
 6  12.78726363406341 -0.66732078317832 -0.65643566646665
 6  14.02240170857086 -0.27082828562856  0.21108817631763
 6  15.35317144204421 -0.28859258835884 -0.51421966176618
 6  15.81827349624962 -1.67112474627463 -1.11549116681668
 6  16.43046715261526  0.23008736873687  0.40783529072907
 6  17.84387897729773  0.49930132853285 -0.18919473407341
 6  18.77852822232223  1.27128534553455  0.71502193519352
 6  20.20917958715872  1.40098043154315  0.16376113931393
 6  20.33539489328933  2.41694999219922 -0.99919091179118
 6  21.15662659345935  1.88186112241224  1.27170253365337
 1 -4.23424490899090  3.58418393979398  1.49198378527853
 1 -10.19555994869487  3.81746258125813 -0.65356074757476
 1 -10.29779306870687 -2.24345368616862 -0.99817646984698
 1 -2.43597005390539 -0.84700301420142  2.22225291649165
 1 -2.06334994019402  1.64644822742274  1.17617826822682
 1 -1.88477293479348  1.24111456435644  3.57373108660866
 1 -3.10222528252825  2.58402245974597  3.43575574097410
 1 -3.75786922962296  0.81604628862886  3.81678409120912
 1 -1.94471695659566 -1.68853881428143 -0.07155106430643
 1 -2.40597226972697 -0.12270502010201 -0.88506854645465
 1 -0.26514003140314  0.45006962086209  0.82120251935194
 1 -0.25465326732673 -1.06156067126713  1.26081003620362
 1 -6.17256603200320  6.71818046214621  0.69926563576358
 1 -5.49328631803180  6.18655201830183  2.33142944004400
 1 -4.63858781478148  5.65691685808581  0.70531370697070
 1 -9.30878293079308  6.05984213231323 -0.47595782398240
 1 -9.27211842774278  8.07236797569757  0.50510013181318
 1 -7.78017748354836  7.22129852935294  1.52608099359936
 1 -12.06186029112911  2.84597492349235 -2.34129713441344
 1 -13.25922559175917  1.64239813101310 -1.55413660516052
 1 -12.62446417751775  3.14760341504150 -0.59429067306731
 1 -12.51190596899690 -2.01410085518552 -0.97621257615762
 1 -13.16973569246925 -0.53857059385939 -1.49204473197320
 1 -12.86085243784378 -2.07239192539254 -3.51466135063506
 1 -12.38186175037504 -0.17557209480948 -3.80261375707571
 1 -11.12153843314331 -1.52973784088409 -3.40040866086609
 1 -8.74456405940594 -4.94042478537854 -1.84322758685869
 1 -7.89413877867787 -5.73915391959196 -0.47123673667367
 1 -9.49124900980098 -4.67604262556256 -0.41040286288629
 1 -3.54944564046405 -3.25782903360336 -0.35282055355536
 1 -1.78889705620562 -4.44206064576458  3.64717763306331
 1 -3.04873448204821 -5.66022764036404  3.31880471937194
 1 -1.35425353685368 -5.93185245844584  2.71382533543354
 1  2.73660296439644 -1.82869470537054 -1.53768773377338
 1  2.85015249284928 -0.14841056145615 -2.06609976217622
 1  4.33512441804180 -1.13738595379538  0.57187040304030
 1  4.02709167266727  1.06757546794680 -2.68561693139314
 1  5.49224463616362  2.10791105000500 -2.04715118331833
 1  5.75117242484248  0.47058816631663 -2.95735446644664
 1  6.68106016891689  1.24809880988099  0.38206084888489
 1  6.31971609100910 -0.39601763916392  0.70218993569357
 1  7.48914629932993 -1.10835007020702 -1.22441376497650
 1  7.79892232813281  0.48057126522652 -1.84606753035303
 1  8.86142819441944  0.80326821182118  0.61576920912091
 1  8.70455894459446 -0.93975948214822  0.72430029372937
 1  10.16161371277128  0.13611614931493 -1.71916680618062
 1  9.26952193769377 -2.07931590809081 -2.13154907970797
 1  11.06758931463146 -2.28859564346435 -2.05204944884489
 1  9.95113799979998 -2.61313325532553 -0.60476991669167
 1  11.37524520542054  0.88812104230423  0.23171465896590
 1  11.14144719811981 -0.83231919321932  0.90479110071007
 1  12.74615793469347 -1.83749191039104 -0.74071173877388
 1  12.87040079257926 -0.05286459545955 -1.52720608190819
 1  13.74905634233423  0.52376493249325  0.75687303030303
 1  14.41555430853085 -1.09628923362336  1.05534205070507
 1  15.59779306780678  0.52228171317132 -1.30380473847385
 1  16.17930537343734 -2.52811310341034 -0.41726318021802
 1  15.30769382008201 -2.07968034363436 -1.83745116021602
 1  16.81650127952796 -1.39922544744474 -1.60627209670967
 1  16.25117031773177  1.41810964466447  0.61283782808281
 1  16.47173162036204 -0.40768994409441  1.45874863606361
 1  18.34132507120712 -0.61806835423542 -0.37347068746875
 1  17.60698776327633  1.04295161406141 -1.14915849164916
 1  18.47058785138514  2.19865402310231  0.90245825112511
 1  18.94342150245025  0.71988616961696  1.67616761706171
 1  20.57339225192519  0.43756990519052  0.00141720572057
 1  20.06368047464746  3.52176573847385 -0.76080967436744
 1  21.30625487758776  2.26541319411941 -1.51933329662966
 1  19.59280318471847  2.00767257805781 -1.90910787978798
 1  21.07754372957296  1.53003111221122  2.24907452465247
 1  22.05628733503350  1.71997322702270  1.07232219851985
 1  21.04518424832483  3.03479356265627  1.56420686118612
>>>>>>> 8e03b5b5abfc0030b3aa597dc0de36371bfbd096

