%nproc=4
%Mem=2GB
# td=(NStates=1) CAM-B3LYP/6-31G(d,p) 

TD

0 1
12 -7.09589016201620  0.60918966706671  0.12067975537554
 6 -4.81754637263726 -2.01713289168917  0.50715724842484
 6 -4.79360928982898  2.75848429572957  1.10119648454845
 6 -9.27333206870687  3.14242973847385 -0.53679653935394
 6 -9.52578289198920 -1.69710522152215 -0.85347177627763
 7 -5.11302472707271  0.42622244034403  0.75678609690969
 6 -4.30792049814981 -0.72145196719672  0.85773379657966
 6 -2.88111711711171 -0.45598502420242  1.16123647784778
 6 -2.97440087848785  1.03619628792879  1.57969870057006
 6 -4.35665266016602  1.42830357915792  1.10478750865087
 6 -2.89240432253225  1.18452074017402  3.15032644154415
 6 -1.97714117511751 -0.65328058945895 -0.02670871257126
 6 -0.51486890949095 -0.56076042324232  0.48549267856786
 6  0.50183132033203 -0.84845835873587 -0.56288166866687
 8  0.23129436953695 -1.23142855045505 -1.69214554625463
 8  1.81278308880888 -0.48600599699970 -0.16823361226123
 7 -7.08195864376438  2.59201479127913  0.28409710521052
 6 -6.03635291429143  3.34954593039304  0.74481801540154
 6 -6.33328058115811  4.81238552795280  0.76054674187419
 6 -7.54101680868087  4.79513014451445  0.30121851315132
 6 -8.06827109870987  3.47114630993099  0.02542508880888
 6 -5.33361131783178  5.89400186608661  1.05905066556656
 6 -8.41728952655265  6.13683471717172 -0.04309732433243
 6 -8.30792468376838  7.15405152375238  0.76906315611561
 7 -9.08035030763076  0.71277413851385 -0.51892592629263
 6 -9.81298755845584  1.84073402650265 -0.71276760086009
 6 -11.24484358095810  1.51491983108311 -1.13344506400640
 6 -11.30272267616762  0.16009137323732 -1.14231294529453
 6 -9.91452713341334 -0.41028300260026 -0.89232424852485
 6 -12.30583940764076  2.50300087108711 -1.19817659245925
 6 -12.47034158045805 -0.72349976007601 -1.59372018051805
 6 -12.40409789818982 -0.95387779897990 -3.17268238683868
 7 -7.23198266656666 -1.37763737733773 -0.20117479447945
 6 -8.28387862766277 -2.22510768286829 -0.58439339453945
 6 -7.84664080968097 -3.61493976147615 -0.54893217051705
 6 -6.47483136723672 -3.61819615661566 -0.12119385128513
 6 -6.18020061646165 -2.20180846214621  0.21418422262226
 6 -8.61255872327233 -4.82097493989399 -0.73233171157116
 6 -5.36452092239224 -4.36756063956396  0.20447331993199
 8 -5.19888872677268 -5.59229371277128  0.15651268196820
 6 -4.23531711111111 -3.34317010681068  0.60243010831083
 6 -3.59142977387739 -3.68160338163816  1.87277765066507
 8 -3.78620022062206 -3.19410614681468  2.96643932503250
 8 -2.72250344404440 -4.74985970837084  1.83110169106911
 6 -2.15550613851385 -5.26906113521352  3.02904784028403
 6  2.75085759745975 -0.66736453105311 -1.15821702210221
 6  4.10275236423642 -0.54163233953395 -0.55271542054205
 6  5.08587207160716  0.23428969436944 -0.96252602530253
 6  4.99219764276428  1.04985763506351 -2.23239740504050
 6  6.44228856165617  0.42172402260226 -0.21504798999900
 6  7.58415595349535 -0.17352769966997 -1.02798974947495
 6  8.90716258885889 -0.02193732413241 -0.30704251705171
 6  10.20995161966197 -0.35626269796980 -0.99212018251825
 6  10.22520922112211 -1.83640457655766 -1.58628209320932
 6  11.47032990989099 -0.04097787858786 -0.18281741314131
 6  12.73835874357436 -0.26712076317632 -0.86792681558156
 6  13.90037950635064 -0.12382358515852  0.08646571407141
 6  15.29599572447245 -0.22523625272527 -0.48264650445045
 6  15.64563623252325 -1.78990662446245 -0.62938255595560
 6  16.26794089999000  0.51147550755075  0.37231173837384
 6  17.79631422082208  0.62584398279828 -0.02304811941194
 6  18.76899726922692  1.25460367736774  0.85127556055606
 6  20.12974164336434  1.32598293179318  0.35146991019102
 6  20.34091544534454  2.12592088928893 -0.93065405810581
 6  21.04091502230223  1.94803774007401  1.38980434383438
 1 -4.19298078257826  3.50801632303230  1.72716730363036
 1 -9.86804719741974  3.96082691769177 -0.75006039753975
 1 -10.38881217061706 -2.33215255605561 -0.77269392159216
 1 -2.71739819671967 -1.08834714861486  2.09702039323932
 1 -2.39083268846885  1.77640122272227  1.08315896629663
 1 -1.91728618611861  0.96519697259726  3.67195090859086
 1 -3.03736879687969  2.18723278077808  3.66798896429643
 1 -3.60297374007401  0.51019570357036  3.55080749354936
 1 -2.31645413031303 -1.46247620802080 -0.54299820902090
 1 -2.27283895639564  0.21904915531553 -0.78263830343034
 1 -0.21935545294529  0.50070468436844  0.77924832393239
 1 -0.33351115311531 -1.20340485568557  1.36799075427543
 1 -5.62392116751675  6.95508415251525  0.76033174237424
 1 -5.22665965536554  5.95867923102310  2.17017331443144
 1 -4.31567552355236  5.52111327772777  0.63706688228823
 1 -9.09229128162816  6.31331747984798 -1.06804703290329
 1 -8.96216743264326  8.06861760066007  0.70104972677268
 1 -7.90886035183518  7.15049144864486  2.04463284878488
 1 -12.28883298839884  2.97455778177818 -2.25028803350335
 1 -13.23464313351335  2.01642553375338 -1.05647683918392
 1 -12.03728545964597  3.06933558825883 -0.34739598359836
 1 -12.44944972337234 -1.73916336143614 -0.98856381128113
 1 -13.48722744164416 -0.27439417621762 -1.22396792429243
 1 -13.08130448304830 -1.84693938013801 -3.48197808230823
 1 -12.57763132733273  0.10985644804480 -3.70868436413641
 1 -11.23669994929493 -1.29869473657366 -3.10183880388039
 1 -9.08384798779878 -4.97950869376938 -1.76995025912591
 1 -7.93205257005700 -5.67789779397940 -0.38529814281428
 1 -9.45763564846485 -4.69019404070407 -0.31757357995800
 1 -3.25861655755576 -3.40757400810081 -0.22654792629263
 1 -1.32839100560056 -4.48094453415341  3.47549046434643
 1 -2.79558916751675 -5.77603922152215  3.53648648754875
 1 -1.42578068956896 -5.94531380458046  2.55441939483948
 1  2.43338264236424 -1.71061289718972 -1.70287425242524
 1  2.67193467106711  0.12434671427143 -2.03125627782778
 1  4.24797570317032 -0.97346956215622  0.42912612861286
 1  3.98172713621362  0.85569427982798 -2.68119648934894
 1  5.05273068476848  2.24690494939494 -1.99225569376938
 1  5.77336464406441  0.80063117061706 -3.12426115711571
 1  6.68510057295730  1.50077407740774  0.04959760256026
 1  6.45229934933493  0.02122408500850  0.74566428312831
 1  7.29169655435544 -1.21320055525553 -1.35162648624863
 1  7.62840527642764  0.24968817691769 -2.13178610221022
 1  8.78085013661366  1.16302418741874 -0.14114648244825
 1  8.86310479917992 -0.45328083428343  0.68222608630863
 1  10.27756530793079  0.26732927062706 -1.90927581708171
 1  9.60970595609561 -2.03120109660966 -2.23966989178918
 1  11.17041959765977 -2.19416620052005 -1.94997924182418
 1  9.89555244124413 -2.55969791179118 -0.82019145884588
 1  11.41996967786779  0.89972220242024  0.06927841534153
 1  11.27085013841384 -0.77316327762776  0.54414503610361
 1  12.66586990589059 -1.27659582078208 -1.35962362996300
 1  12.82848660116012  0.41625231623162 -1.82745610691069
 1  13.93589502620262  1.00988354435444  0.43091043404340
 1  13.66719947304730 -0.65065467016702  0.96646316281628
 1  15.38902219071907  0.37892737773777 -1.36268062606261
 1  15.89926736963696 -2.21862215431543  0.47186573267327
 1  14.74660771147115 -2.45936831243124 -1.08153556865687
 1  16.66026565596560 -1.95764128902890 -1.22565403490349
 1  16.23701890259026  1.67082491619162  0.70958750305031
 1  15.98351279847985  0.20172099699970  1.39054181538154
 1  18.20810174887489 -0.34084063146315 -0.41175451585158
 1  17.74395145964597  1.35917323622362 -0.73964754055406
 1  18.31295208780878  2.32840699839984  0.99086709200920
 1  18.82139930023002  0.62851703270327  1.80488048834883
 1  20.43744865756576  0.34160030823082  0.05439250325033
 1  20.25924003060306  3.27063062496250 -0.51669526292629
 1  21.44094834693469  2.02362901570157 -1.22758412171217
 1  19.62455636003601  1.73690550135013 -1.65898286728673
 1  20.84413038823882  1.70674878397840  2.41174079127913
 1  22.20324203050305  1.70252148184818  1.18486345264526
 1  20.93507323722372  3.06895697899790  1.45443588408841

