%nproc=4
%Mem=2GB
# td=(NStates=1) CAM-B3LYP/6-31G(d,p) 

TD

0 1
12 -7.13978455145515  0.61779052715272  0.07361504890489
 6 -4.84228884688469 -1.89231040944094  0.47973450615062
 6 -4.75124505340534  2.82958140544054  1.06329269416942
 6 -9.31633636913691  3.08200369586959 -0.47508036773677
 6 -9.46068638233823 -1.70332584358436 -0.85441187028703
 7 -5.08177160176018  0.40964078217822  0.66478689698970
 6 -4.31448115421542 -0.69664948694869  0.73582160536054
 6 -2.85817482288229 -0.32567199289929  1.16578693289329
 6 -2.98230166856686  1.14354702300230  1.58822955365537
 6 -4.35093208810881  1.51425217401740  1.07851488138814
 6 -2.87948303040304  1.22371465956596  3.15139654855486
 6 -1.89527298829883 -0.51687694909491  0.09084304260426
 6 -0.44852227482748 -0.55289963716372  0.54338846814681
 6  0.53187432463246 -0.72215572847285 -0.53046842734273
 8  0.31691293139314 -1.06052145974597 -1.67555388708871
 8  1.80091190169017 -0.47302469886989 -0.07702449134913
 7 -7.06093654155416  2.62191778157816  0.30123881938194
 6 -5.96702598159816  3.38007898369837  0.76388992259226
 6 -6.34808206130613  4.82392668206821  0.68658934613461
 6 -7.70453316031603  4.80698132963296  0.31034942624262
 6 -8.10562483408341  3.50602979827983 -0.05758321202120
 6 -5.47445540224022  5.87967043294329  1.12276703720372
 6 -8.45341313891389  6.06000703440344  0.09976696209621
 6 -8.42963685498550  7.19105522412241  0.81211746154615
 7 -9.01657392999300  0.65899876097610 -0.63679771347135
 6 -9.81858811851185  1.78015796889689 -0.65227155125513
 6 -11.21298039463946  1.43402174127413 -1.03924564406441
 6 -11.25739814371437  0.07941330543054 -1.19484819881988
 6 -9.92753843454345 -0.39143111741174 -0.90443545964596
 6 -12.34368319201920  2.53253382438244 -1.37573434823482
 6 -12.41578612491249 -0.83770118021802 -1.51747255575558
 6 -12.45189267766777 -1.19677208840884 -3.04574969356936
 7 -7.18283775207521 -1.42201181478148 -0.27911258825883
 6 -8.20475071487149 -2.27182235433543 -0.62025698089809
 6 -7.75723186878688 -3.63394166166617 -0.64195147244724
 6 -6.46297018111811 -3.65292962996300 -0.14798653055306
 6 -6.08130072647265 -2.18784706600660  0.07208001220122
 6 -8.68611607900790 -4.78551139353935 -0.73865234363436
 6 -5.25293976427643 -4.39088297179718  0.32359523212321
 8 -5.19881871977198 -5.58331281468147  0.43979100980098
 6 -4.17876145554555 -3.36430222002200  0.50475034033403
 6 -3.55661629252925 -3.71413663496350  1.89012938583858
 8 -3.75945754635464 -3.22895963216322  2.95072775387539
 8 -2.66837803150315 -4.72347707010701  1.78968754965497
 6 -2.12032262016202 -5.24536876597660  2.98599353485349
 6  2.81147365906591 -0.60085788038804 -1.16095729612961
 6  4.11165325432543 -0.35533370967097 -0.61691184018402
 6  5.06280976537654  0.44729099449945 -0.96359613231323
 6  4.89940836383638  1.48800144944494 -2.12072623792379
 6  6.36499083188319  0.47149900010001 -0.24090057525753
 6  7.66714425232523 -0.05171551845185 -1.10824777527753
 6  8.85466733933393 -0.00608573897390 -0.16869868266827
 6  10.14030465496550 -0.50397746944694 -0.96163713421342
 6  10.06609330953095 -1.94145508160816 -1.24345781078108
 6  11.34029690659066 -0.27688146894689 -0.11982111351135
 6  12.75162006970697 -0.55269932103210 -0.75129515241524
 6  13.93383285168517 -0.18522972577258  0.18600566806681
 6  15.28544466936694 -0.18327205630563 -0.54027226702670
 6  15.58985065396540 -1.71142877667767 -1.02448206590659
 6  16.33243734963497  0.27005136513651  0.43660816801680
 6  17.75705029442944  0.42927432583258 -0.11621743634363
 6  18.69528989848985  1.11941015801580  0.73877431043104
 6  20.20445911511151  1.32235256875688  0.37901266446645
 6  20.17708906270627  2.35693399059906 -0.89918091079108
 6  21.14868579937994  1.82808574487449  1.34981034443444
 1 -4.06997848234823  3.57377289868987  1.34246883378338
 1 -9.87672806550655  4.06720755575558 -0.52707809930993
 1 -9.93150644004401 -2.78009735053505 -1.22015866806681
 1 -2.36193265016502 -1.00655896979698  1.89379007020702
 1 -2.12892649784979  1.71171475407541  1.28107875827583
 1 -1.83567802530253  0.94368482138214  3.45389910341034
 1 -3.01502656265627  2.20369442694269  3.36774894029403
 1 -3.71222466516652  0.69493417741774  3.74811722452245
 1 -2.02632511741174 -1.60431039143914 -0.27414132333233
 1 -2.11320299279928  0.08277552795280 -0.81970200980098
 1 -0.27201071847185  0.39299391329133  0.96183658275828
 1 -0.17179498149815 -1.48491300650065  1.31086504170417
 1 -6.00990976637664  6.74263290739074  0.66345205440544
 1 -5.87804479387939  6.03358672177218  2.15753205030503
 1 -4.43114707070707  5.80413157955796  0.96493966956696
 1 -9.33815586808681  6.02874902300230 -0.69758998719872
 1 -8.79013022892289  8.11731247014701  0.33818344014401
 1 -7.70942040784078  7.33676007550755  1.68258664416442
 1 -12.17928203330333  2.96237656365637 -2.29694269896990
 1 -13.28240790999100  1.83714760596060 -1.29894108560856
 1 -12.41943367446745  3.25679433413341 -0.59498074207421
 1 -12.33255803420342 -1.87695714081408 -1.05032998789879
 1 -13.38203692259226 -0.41159789658966 -1.18110363786379
 1 -13.09842619521952 -1.96029071527153 -3.39686957145715
 1 -12.42023558775878 -0.26357089468947 -3.73800729642964
 1 -11.48057433673367 -1.48910377747775 -3.43892251225123
 1 -9.26323592659266 -4.70683142604260 -1.65875914001400
 1 -8.10537990279028 -5.78844884908491 -0.80811042404240
 1 -9.59928981388139 -4.92070709200920 -0.11574339693969
 1 -3.36300699659966 -3.53304655535554 -0.21131640314031
 1 -1.31294946144614 -4.50859729942994  3.26464938023802
 1 -2.87845745434544 -5.25466708430843  3.77619045794579
 1 -1.58329644114411 -6.10271954515452  2.70527448034803
 1  2.87743704780478 -1.66571840774077 -1.49305327032703
 1  2.56398387598760 -0.03464918531853 -1.91091424362436
 1  4.32653355895590 -1.09449166436644  0.22237545354535
 1  3.94177314081408  1.27754646504650 -2.63697206690669
 1  4.75897130883088  2.57947820672067 -1.72940940914091
 1  5.79933724132413  1.40692179967997 -2.63505223622362
 1  6.63289535243524  1.56044004400440 -0.20615797299730
 1  6.33048716811681  0.17111907450745  0.65268498519852
 1  7.43254063876388 -1.08512774797480 -1.34774609820982
 1  7.70995343124313  0.38058126622662 -2.01922484608461
 1  8.93635568716872  0.98003588858886  0.07875550775077
 1  8.71830031873187 -0.61853735993599  0.55302316601660
 1  10.03946149754975  0.05177771547155 -1.75075996549655
 1  9.29919490499050 -2.10916889338934 -2.23589951475147
 1  10.88597115281528 -2.49793657755776 -1.64846909080908
 1  9.71060394639464 -2.54853679567957 -0.33073251295129
 1  11.27951563246325  0.74238646884688  0.40774226172617
 1  11.13849690309031 -0.66795275657566  0.86366698829883
 1  12.79903322222222 -1.66817497869787 -0.92750041764176
 1  12.73265701820182 -0.01383069206921 -1.76031939323932
 1  13.85492692939294  0.84065662166217  0.43332067506751
 1  13.85037779087909 -0.84079368406841  1.05105162166217
 1  15.38724201270127  0.27967745274527 -1.54431878987899
 1  15.43166060896090 -2.42691298339834 -0.13390484438444
 1  14.95616866756676 -1.74070644624462 -1.84605202030203
 1  16.78583821322133 -1.73330885578558 -1.30082155165517
 1  15.98304350505050  1.21511934563456  0.54838138243824
 1  16.40725517271727 -0.41616079117912  1.38011077227723
 1  18.25254619331933 -0.54436098349835 -0.62442578297830
 1  17.88382544704471  1.19126644554455 -0.88714229002900
 1  18.42631342394239  2.07435159285929  1.07859586488649
 1  18.90045720602060  0.58352253325333  1.74026402670267
 1  20.60106501920192  0.34384053225322 -0.01032396839684
 1  19.85266937353735  3.27241080298030 -0.41217481088109
 1  21.18347259935994  2.65924257705771 -1.28894025732573
 1  19.43683758815882  2.10992280308031 -1.81379834883488
 1  21.04774074927493  1.24731284038404  2.22595221242124
 1  22.06231793809381  1.70403163286329  1.01917688398840
 1  20.71070079998000  2.71099118241824  1.72935337583758

