%nproc=4
%Mem=2GB
# td=(NStates=1) CAM-B3LYP/6-31G(d,p) 

TD

0 1
<<<<<<< HEAD
12 -7.19766033903390  0.60955970407041  0.10752844024402
 6 -4.79268388638864 -2.00510168856886  0.56934346704670
 6 -4.85990591949195  2.83368181548155  1.11671803670367
 6 -9.45618035353535  3.10139563506351 -0.43702656235624
 6 -9.52106241994199 -1.78955446644664 -0.84372080118012
 7 -5.13092651725173  0.44153397149715  0.67736815511551
 6 -4.34144385048505 -0.70996081808181  0.90252827602760
 6 -2.93437244264426 -0.33768319401940  1.29508986318632
 6 -3.07797123552355  1.18683135143514  1.66728745944594
 6 -4.50907790269027  1.46518726752675  1.08176520642064
 6 -2.94004908700870  1.33886617471747  3.20289169806981
 6 -1.97243070407041 -0.58697395879588  0.09217317561756
 6 -0.49538696129613 -0.43584793199320  0.53321745104510
 6  0.53422455965597 -0.61098461136114 -0.61226660716072
 8  0.30368160826083 -0.92295770337034 -1.73393972567257
 8  1.76993880438044 -0.48044544094409 -0.20979776867687
 7 -7.15478592649265  2.59392498229823  0.26109480498050
 6 -6.11074035303530  3.39215019081908  0.78372190579058
 6 -6.53167042014201  4.71881617101710  0.83792447964797
 6 -7.81829453645365  4.82491312281228  0.35248363966397
 6 -8.17227149874988  3.54485368066807  0.07952049834984
 6 -5.62749070577058  5.84552701860186  1.25740050055006
 6 -8.65065286288629  6.00833186688669  0.20592757815782
 6 -8.48520241154115  7.20718683728373  0.90664691449145
 7 -9.18161043364336  0.69592245334533 -0.65946998069807
 6 -9.86522278197820  1.76733668676868 -0.68084440854085
 6 -11.19747884448445  1.46766510561056 -1.22747446694669
 6 -11.21157356125613  0.09892525662566 -1.39666838083808
 6 -9.93557923862386 -0.43476545084508 -0.92861787788779
 6 -12.42538136183618  2.46691726272627 -1.60588736353635
 6 -12.36251079737974 -0.89104651475148 -1.81868267676768
 6 -12.40319780818082 -1.10361277247725 -3.29909502810281
 7 -7.25940540884088 -1.38421803540354 -0.09265394239424
 6 -8.25726596639664 -2.25323049514952 -0.50520547574758
 6 -7.82493863946395 -3.67266553405341 -0.46427370467047
 6 -6.50435431953195 -3.54295863286329 -0.00250198209821
 6 -6.22451504790479 -2.17756603790379  0.17064986918692
 6 -8.64565203260326 -4.87891073347335 -0.86838531693169
 6 -5.32276674697470 -4.41084496799680  0.23590646324632
 8 -5.19981881978198 -5.58787327072707  0.11020805150515
 6 -4.23935751515152 -3.34723051285129  0.53907377267727
 6 -3.55262589348935 -3.66918213951395  1.89820019291929
 8 -3.71560316091609 -3.04706144234423  2.95533821492149
 8 -2.70376156985699 -4.68158288068807  1.81891047194719
 6 -2.14140472837284 -5.16661089018902  3.01848678417842
 6  2.86930944264426 -0.61229902450245 -1.21452265266527
 6  4.19078116711671 -0.43223139943994 -0.54995514451445
 6  5.17691117551755  0.33932019741974 -0.87289706240624
 6  5.15139356235624  1.27434008330833 -2.06773093839384
 6  6.47212154495450  0.36716856705671 -0.08929541474147
 6  7.65324286218622 -0.17965831273127 -0.82747969846985
 6  8.91815368796880 -0.12330746114611 -0.00828264106411
 6  10.23563418791879 -0.57596466816682 -0.85019599009901
 6  10.09433613381338 -2.07342827892789 -1.11891535653565
 6  11.56885976287629 -0.31304508530853  0.02400326892689
 6  12.83275818351835 -0.51053510461046 -0.73364338723872
 6  14.12794226262626 -0.03909511231123  0.01697876537654
 6  15.49490561546155 -0.20714444354435 -0.62210044984498
 6  15.67695936483648 -1.60100773457346 -0.93173279097910
 6  16.52142624852485  0.35198955895590  0.28133264046405
 6  17.90890547994799  0.44347574597460 -0.31956777137714
 6  18.80689105860586  1.23275149214921  0.65917635063506
 6  20.26778544774477  1.42871320482048  0.13771853505351
 6  20.46341769556956  2.11399969716972 -1.07418841154115
 6  21.23546447724772  1.90606354265427  1.30179554295430
 1 -4.17627911241124  3.60839636103610  1.25382996989699
 1 -10.25373576627663  3.89431026602660 -0.45540093159316
 1 -10.61971526092609 -2.49998933973397 -1.05925257745775
 1 -2.46210266716672 -0.92310062396240  2.06305699689969
 1 -2.39117272247225  2.02010559315932  1.09876052645264
 1 -1.99988444594459  1.09052950585058  3.53808752225223
 1 -3.26894195419542  2.37433149064907  3.63665583098310
 1 -3.83865730843084  0.52527721172117  3.53661607440744
 1 -2.01962444734473 -1.50044000440044 -0.39155306450645
 1 -2.25703737623762  0.09108635903590 -0.66990703030303
 1 -0.49548306570657  0.61655626952695  0.87751815091509
 1 -0.35996379837984 -1.12410692589259  1.44547850305031
 1 -5.58861763716372  6.89048769286929  0.78931464066407
 1 -5.85429241864186  5.97610097319732  2.27645394249425
 1 -4.48054201020102  5.50125129152915  1.08869204480448
 1 -9.42740479297930  5.99773592169217 -0.65246547474747
 1 -9.14104532043204  7.96596733563356  0.57175679747975
 1 -7.67659712551255  7.38229462896290  1.67926631213121
 1 -11.99218332343234  3.07948827482748 -2.45747875257526
 1 -13.31482115131513  1.87642153335333 -1.98228942044204
 1 -12.69799153025303  2.94990364506451 -0.74397564156416
 1 -12.10463524192419 -1.81649109420942 -1.20148510341034
 1 -13.32746146504650 -0.40209694649465 -1.50888641614161
 1 -13.27347369997000 -1.60289497569757 -3.44465434993499
 1 -12.53359692389239 -0.13802834043404 -3.76975047074708
 1 -11.47965424472447 -1.45689055615561 -3.89143776377638
 1 -8.83950355335534 -4.83098384128413 -1.97934119821982
 1 -8.13298266306631 -5.84641464566457 -0.70395000800080
 1 -9.44698458335834 -4.81936695799580 -0.23183500610061
 1 -3.38142883878388 -3.51624487518752 -0.27315258675868
 1 -1.92224039053905 -4.30183662336234  3.72124503980398
 1 -3.11735134373437 -5.56564818241824  3.57403024192419
 1 -1.34672278377838 -5.72219149234923  2.70492444534453
 1  2.87681698579858 -1.62307414331433 -1.62327629262926
 1  2.78798627622762  0.09181346094610 -1.96986013821382
 1  4.17376828242824 -0.88628084328433  0.54475769176918
 1  4.11557052055205  1.43586229662966 -2.47468583828383
 1  5.53567897959796  2.27199745864586 -1.60401686988699
 1  6.01637894549455  0.95185629312931 -2.81130986198620
 1  6.64681674457446  1.42949694969497  0.40977362016202
 1  6.34152827222722 -0.20764880228023  0.91603131983198
 1  7.35553293799380 -1.21942117731773 -1.14745606920692
 1  7.97428986488649  0.45390859895990 -1.74761768536854
 1  9.08937098869887  0.82865075007501  0.42216984918492
 1  8.90739922862286 -0.86114162036204  0.75012287598760
 1  10.47731528292829 -0.16653411571157 -1.84890978047805
 1  9.24137912341234 -2.34268224472447 -1.75663158795880
 1  11.04775733143314 -2.59451623552355 -1.71530577447745
 1  9.96506939293930 -2.61679362136214 -0.03350278997900
 1  11.46056373727373  0.78950118031803  0.35709719721972
 1  11.48378143154316 -0.92117807910791  0.91028164976498
 1  12.77047036593659 -1.62254041524152 -0.90421808940894
 1  12.77905165766577 -0.09266857585759 -1.70781414271427
 1  14.06227766446645  0.86759931593159  0.44654199719972
 1  14.08577133023302 -0.39891949664967  1.06431294779478
 1  15.57645093359336  0.33943342834283 -1.61021537953795
 1  15.48233567646765 -2.15933622572257 -0.02287374127413
 1  15.08575162586259 -2.17810018561856 -1.53233064816482
 1  16.70195982538254 -1.94249977487749 -1.31514298379838
 1  16.11728692939294  1.25336317001700  0.68701524582458
 1  16.70187463466347 -0.17670684578458  1.12279504070407
 1  18.37404834353435 -0.60162671007101 -0.42410575097510
 1  17.85189225372537  0.67181450035003 -1.38077165296530
 1  18.18886967956796  2.29168332603260  0.92285029032903
 1  19.04840200050005  0.77848202920292  1.70218021832183
 1  20.33016792949295  0.30809695789579 -0.17956089208921
 1  20.46600070667067  3.33645720762076 -0.88577217061706
 1  21.50804505660566  1.87599425222522 -1.29618098139814
 1  19.77129103350335  1.94169598039804 -1.87236420542054
 1  21.18778475367537  1.36770487958796  2.30109972717272
 1  22.29520122642264  1.99760098979898  0.91335630193019
 1  20.90233996389639  3.01914199749975  1.49360980148015
=======
12 -7.08872944594459  0.57685643374337  0.17049473687369
 6 -4.83226784478448 -1.93590476887689  0.55161169386939
 6 -4.77472740164016  2.85378382568257  1.18458482338234
 6 -9.42661739723972  3.10078557405741 -0.33657651735173
 6 -9.50728104180418 -1.70540605160516 -0.81757818691869
 7 -5.09602302690269  0.49971979007901  0.80351076937694
 6 -4.39128883498350 -0.66454627662766  0.80440846404640
 6 -2.91381038643864 -0.39023844954495  1.28820917511751
 6 -2.93399683808381  1.07170983928393  1.74889562026203
 6 -4.32403939883988  1.53319406820682  1.20548757865787
 6 -2.97425250735074  1.30026231433143  3.20970237913791
 6 -1.89939340034003 -0.53600886228623  0.09797375567557
 6 -0.39741716431643 -0.38662300950095  0.44028815811581
 6  0.53640477767777 -0.67635114801480 -0.72717809830983
 8  0.13379461956196 -1.07250265786579 -1.80409674137414
 8  1.79857166766677 -0.37454485088509 -0.31341813071307
 7 -7.07295774367437  2.58946453625363  0.36634533003300
 6 -5.99364864386439  3.35645662146215  0.78270180378038
 6 -6.48155540864086  4.78547283668367  0.79641032823282
 6 -7.69948265526553  4.84746537803780  0.29080747204720
 6 -8.18550282188219  3.46289548484848  0.04445699199920
 6 -5.47096505320532  5.88584105000500  1.08727348784878
 6 -8.51688948654865  6.08630966466647  0.16908389378938
 6 -8.52139603090309  7.20882700130013  0.81959820962096
 7 -9.15507778037804  0.67064992609261 -0.44261829552955
 6 -9.90963722342234  1.72163211631163 -0.70344666876688
 6 -11.23139223582358  1.35977431653165 -1.16361808130813
 6 -11.22260466436644  0.03714907900790 -1.28540725472547
 6 -9.93080876157616 -0.44718669296930 -0.87964298039804
 6 -12.30994981868187  2.43811438243824 -1.52721949674968
 6 -12.36468101440144 -0.82816022612261 -1.77033784228423
 6 -12.35581306970697 -1.18039045024502 -3.27605272387239
 7 -7.20128959725973 -1.38549816341634 -0.18091276827683
 6 -8.25509574937494 -2.17827299939994 -0.45026998219822
 6 -7.82950909650965 -3.59844811231123 -0.47851512881288
 6 -6.44062794689469 -3.59056339333933 -0.06192792469247
 6 -6.16015861226123 -2.19848813011301  0.15056786098610
 6 -8.53157062446244 -4.86103894629463 -0.84650312871287
 6 -5.23351782208221 -4.36931081458146  0.24258713131313
 8 -5.08809764766477 -5.53623810721072  0.10521755245525
 6 -4.16071965136514 -3.28937472727273  0.65168503380338
 6 -3.60606123702370 -3.64305952725273  1.96652702560256
 8 -3.87804940554055 -3.06830356655666  3.01270395149515
 8 -2.77258845254525 -4.74509923232323  1.81678025892589
 6 -2.20618120602060 -5.21587581668167  3.11928686418642
 6  2.81362387408741 -0.72124991959196 -1.26928812921292
 6  4.12969505850585 -0.43274145044504 -0.58265841484148
 6  5.11387487188719  0.34383064846485 -1.05579535223522
 6  4.94121254425442  1.16640929022902 -2.31969613491349
 6  6.38580291309131  0.39624147434743 -0.33241972717272
 6  7.65140267816782 -0.03825417231723 -1.12031898239824
 6  8.94603647624763 -0.08626375677568 -0.20818263106311
 6  10.21692231673167 -0.48319539123912 -1.00029099959996
 6  10.05379207940794 -2.01349228532853 -1.46584004900490
 6  11.48464134103410 -0.11286506730673 -0.21087021842184
 6  12.80127503520352 -0.44910896199620 -0.82142216511651
 6  13.95686515491549 -0.15636683948395  0.08407547504750
 6  15.31279740464046 -0.24299802890289 -0.50678891869187
 6  15.71929359825983 -1.59630726452645 -0.94959457715772
 6  16.36554065996600  0.37615197519752  0.42279678687869
 6  17.85927051645164  0.42097349574958 -0.10349616421642
 6  18.76308667816782  1.17351556855686  0.88764919791979
 6  20.24862353155315  1.26972730623062  0.42069683288329
 6  20.30346169997000  2.22704100130013 -0.91252224492449
 6  21.15898682948295  1.86302923922392  1.48950431383138
 1 -4.08020950545055  3.66726224762476  1.51822640954095
 1 -10.16894728742874  3.86263709870987 -0.70567595909591
 1 -10.04458774817482 -2.57173651445145 -1.07269392159216
 1 -2.65787224412441 -0.72125043894389  2.17498819001900
 1 -2.07843144834483  1.63703728632863  1.33218386878688
 1 -2.07054151165117  0.68738919181918  3.74956867036704
 1 -2.98937399739974  2.39218327582758  3.47361952735274
 1 -3.82187563026303  0.71497618161816  3.43608602140214
 1 -2.10016250115011 -1.60557051745175 -0.40423433263326
 1 -2.32813448594859  0.01164841524152 -0.66273631323132
 1 -0.21759527692769  0.62133674757476  0.86073647274727
 1 -0.23962176417642 -0.95238975417542  1.37792174737474
 1 -6.10740951635164  6.87442608670867  0.63252896209621
 1 -5.20172716211621  5.90098346144614  2.25491178827883
 1 -4.67329128512851  5.74920608700870  0.60907408300830
 1 -9.56211826432643  5.80047619571957 -0.43054328252825
 1 -9.19060027592759  7.99031977087709  0.50835045684568
 1 -7.54909437523752  7.64179057855786  1.51549993549355
 1 -11.87049115421542  3.20879120512051 -2.24753775847585
 1 -13.17738740794079  2.02107599879988 -1.81175236673667
 1 -12.56225795689569  3.05437409210921 -0.60219146314631
 1 -12.24627940634064 -1.61882132723272 -1.08098305320532
 1 -13.23094181308131 -0.42970970777078 -1.48574410191019
 1 -13.06351270387039 -1.92533721992199 -3.55270515501550
 1 -12.56006957115711 -0.24443898149815 -3.78271176687669
 1 -11.31387766706671 -1.50252511961196 -3.66700532053205
 1 -9.13776337933793 -5.09329007190719 -1.76967023112311
 1 -7.83512287708771 -5.67913791799180 -0.75187480048005
 1 -9.28025791069107 -5.11836685798580 -0.05156697929793
 1 -3.39836053195320 -3.39848309900990 -0.05190046154615
 1 -1.38008617511751 -4.37809424912491  3.42166508180818
 1 -3.03667327592759 -5.37025864346435  3.89215205410541
 1 -1.80358847034704 -6.25550482368237  2.97202115501550
 1  2.83878318241824 -1.85404724062406 -1.62500646564656
 1  2.60285776337634  0.10045432503250 -2.11486463866387
 1  4.29070997659766 -1.05087730293029  0.31233444944494
 1  3.79064802830283  1.00397910831083 -2.58658702840284
 1  5.26826223792379  2.16092635153515 -2.09726619481948
 1  5.66906421402140  1.11921302880288 -3.21199993099310
 1  6.56833889678968  1.34590859085909  0.11617426022602
 1  6.52291641104110 -0.31200923832383  0.64489420612061
 1  7.29193657835784 -1.10546978217822 -1.64898622222222
 1  7.73842627852785  0.45818902700270 -2.01738466206621
 1  8.90843289488949  0.88933681868187  0.05264289648965
 1  8.76111460016002 -0.80464597079708  0.53508137183718
 1  10.25401295269527  0.23107564526453 -1.83929881938194
 1  9.32265725122512 -1.99702767926793 -2.14014993979398
 1  10.91708426412641 -2.50031681558156 -1.78828307220722
 1  9.90357324332433 -2.61540348234824 -0.48191763146315
 1  11.47392507340734  0.84756698689869  0.10898238573857
 1  11.12274532793279 -0.73163912521252  0.63729435103510
 1  12.88476179507951 -1.73667182838284 -1.05356302390239
 1  12.90157390989099  0.10483117411741 -1.85038840014001
 1  13.78709014571457  0.79135169116912  0.65769311231123
 1  13.95393814691469 -0.89881948664866  0.88996551305131
 1  15.31665495399540  0.29805929092909 -1.37989234723472
 1  16.00862830573057 -2.27528782088209 -0.04757621152115
 1  15.08313136383638 -2.32563493909391 -1.67370478557856
 1  16.80955058445845 -1.56615214011401 -1.26320779027903
 1  16.01898709940994  1.42176000970097  0.64561110541054
 1  16.54583903110311 -0.19263843894389  1.32229499069907
 1  18.28386932563256 -0.51470801820182 -0.57196053645365
 1  17.85947301180118  1.00057737663766 -1.09044262006201
 1  18.45727652025203  2.29263342104210  0.88251625692569
 1  18.73183034333433  0.73713789478948  1.90422042234223
 1  20.61918683138314  0.35523167136714  0.42652971697170
 1  19.78740284688469  3.17219078097810 -0.74742833623362
 1  21.65379963206321  2.28884553735374 -1.17368873217322
 1  19.83433733813381  1.73379519031903 -1.78033500250025
 1  20.91439741494149  1.43677178627863  2.65672528972897
 1  22.31911361766176  1.80658188788879  1.61250621692169
 1  20.97037676757676  2.84186426972697  1.70742118261826
>>>>>>> 8e03b5b5abfc0030b3aa597dc0de36371bfbd096

