%nproc=4
%Mem=2GB
# td=(NStates=1) CAM-B3LYP/6-31G(d,p) 

TD

0 1
<<<<<<< HEAD
12 -7.07760833383338  0.54279302740274  0.02397008440844
 6 -4.90086470447045 -1.95735691409141  0.58018455115512
 6 -4.76776670557056  2.84090253755376  1.11168753365337
 6 -9.43137787328733  3.01490698619862 -0.47226008570857
 6 -9.45271558525853 -1.73148865986599 -0.88339476857686
 7 -5.12487591219122  0.51939175727573  0.68805922422242
 6 -4.37520722682268 -0.69908973097310  0.78669669286929
 6 -2.91984098949895 -0.37095652135214  1.24325467966797
 6 -3.01769520792079  1.07178984728473  1.68133886458646
 6 -4.37048404330433  1.49306005480548  1.11643867376738
 6 -3.05849093119312  1.29429171727173  3.21107251615162
 6 -1.85409887088709 -0.56746200760076  0.11352531083108
 6 -0.48176559915992 -0.17252159935994  0.53684781408141
 6  0.49291042824282 -0.56952046494649 -0.62004738523852
 8  0.15746698679868 -0.94413982158216 -1.68709504120412
 8  1.80013182368237 -0.27731512791279 -0.20811760066007
 7 -7.11222167006701  2.54093968376838  0.23302199769977
 6 -6.07971725072507  3.28218919471947  0.75520905450545
 6 -6.48567582068207  4.66972126152615  0.72595328252825
 6 -7.82713542054205  4.77974860636064  0.35428381968197
 6 -8.14986925852585  3.41681087638764 -0.02188964266427
 6 -5.49268722542254  5.73185565146515  1.33014777527753
 6 -8.61623942154215  5.91824285798580  0.24230121552155
 6 -8.58854274557456  7.06083220182018  0.82678892869287
 7 -9.11782405500550  0.62855571667167 -0.51396543024302
 6 -9.89785604530453  1.74010396349635 -0.74338066216622
 6 -11.14313340994099  1.46317465656566 -1.19505122462246
 6 -11.17647005090509  0.04590995509551 -1.30399911391139
 6 -9.97387306800680 -0.42932490679068 -0.85715073117312
 6 -12.38400722442244  2.39643021402140 -1.36242301710171
 6 -12.39346389268927 -0.79152656275628 -1.63061386988699
 6 -12.27479496789679 -0.96757916911691 -3.24326944554455
 7 -7.17086655495550 -1.47368698229823 -0.06454113111311
 6 -8.24262450225022 -2.20868604070407 -0.51991694689469
 6 -7.78756490209021 -3.59907817531753 -0.55386266356636
 6 -6.49963384748475 -3.54632896989699 -0.10176190809081
 6 -6.14028662506251 -2.20011829312931  0.15392819701970
 6 -8.66975444284428 -4.89378222062206 -0.70150862926293
 6 -5.31807627792779 -4.35176906040604  0.28260113271327
 8 -5.18513735163516 -5.51979646304630  0.24665169586959
 6 -4.21651523092309 -3.26993278307831  0.61674153945395
 6 -3.50881151205121 -3.62769799109911  1.98916928982898
 8 -3.65485708630863 -3.09488622482248  3.02469515061506
 8 -2.73842503620362 -4.74586930933093  1.81549012991299
 6 -1.94109469736974 -5.20279450855085  3.01043597909791
 6  2.78079059075908 -0.47704549914991 -1.27045824622462
 6  4.02851494049405 -0.14636281258126 -0.62862301130113
 6  5.10502398679868  0.44119038443844 -1.22440221292129
 6  4.95466388938894  1.22617526682668 -2.42437660296030
 6  6.52695702850285  0.42543439363936 -0.44720120532053
 6  7.64931246914691 -0.20996134303430 -1.23054000450045
 6  8.94170604320432 -0.00011514191419 -0.37238905170517
 6  10.24029465396540 -0.51706877857786 -1.07967893839384
 6  10.26329302950295 -2.09912084818482 -1.31119458445845
 6  11.36413929082908 -0.21385516631663 -0.00361949334934
 6  12.73651855955596 -0.56425047614761 -0.62586260916092
 6  13.89666913531353 -0.00336153895390  0.14148121562156
 6  15.34928105300530 -0.24542827192719 -0.48598683848385
 6  15.59926159505951 -1.70963859765977 -0.83197281498150
 6  16.45718982488249  0.31840620062006  0.50554506170617
 6  17.88315290469047  0.24561595999600 -0.12235805040504
 6  18.80984135363536  1.15567378437844  0.78184861786179
 6  20.29206787598760  1.25771610511051  0.44048881208121
 6  20.41825317911791  2.08065636283628 -1.00314130683068
 6  21.08263919471947  1.95181811811181  1.50533589698970
 1 -4.00653213771377  3.58724424582458  1.68092267916792
 1 -9.88942933563356  4.00992182718272 -0.77554294579458
 1 -10.03994728412841 -2.58166750755075 -1.23602025422542
 1 -2.77369382628263 -1.05514382828283  2.11689238043804
 1 -2.16279988518852  1.58974255685569  1.35738638903890
 1 -2.05740019751975  1.00261071397140  3.80608432193219
 1 -3.03536859685969  2.41251530903090  3.45117728312831
 1 -4.06330977367737  1.04970965496550  3.77181959475948
 1 -2.11632411731173 -1.53992395279528 -0.24500841004100
 1 -2.03842551505150 -0.00849359895990 -0.75559559915992
 1 -0.21489500690069  0.91934654855486  0.66511691079108
 1 -0.25925372737274 -0.67942245744575  1.46895085028503
 1 -5.87044581998200  6.51073971807181  0.89675538473847
 1 -5.66011300070007  5.73967733083308  2.45905220232023
 1 -4.43920787678768  5.56249741614161  1.01039421502150
 1 -9.28070012251225  5.97846399449945 -0.58584881308131
 1 -9.38462967886789  7.72448318721872  0.86504612641264
 1 -7.87693715951595  7.37534393389339  1.52809119461946
 1 -12.40135424052405  3.02174250025002 -2.31293429812981
 1 -13.43043271247125  2.15017890909091 -1.40408159965997
 1 -12.26531826292629  3.23574222892289 -0.42458370237024
 1 -12.31370614901490 -1.82680212531253 -1.37495245014501
 1 -13.45408412731273 -0.22535927272727 -1.49839536703670
 1 -13.13327968056806 -1.47516220242024 -3.49813969846985
 1 -12.18758232243224  0.04686014841484 -3.51917541324132
 1 -11.36188246754675 -1.45278014511451 -3.61156977697770
 1 -9.18284788778878 -4.71845258815882 -1.64606787088709
 1 -7.86657602240224 -5.65506551075107 -0.60315992899290
 1 -9.34463434833483 -4.80276529782978  0.03132130953095
 1 -3.39202989888989 -3.43513676437644 -0.07042231373137
 1 -1.51288945544554 -4.03408984868487  3.18399131443144
 1 -2.51398100670067 -5.70432204980498  3.86444928382838
 1 -1.04258236973697 -5.83337261046105  2.72291624452445
 1  3.05952525662566 -1.50090192609261 -1.70728469346935
 1  2.43173065066507 -0.03865958635864 -2.10715386758676
 1  4.37284819041904 -0.86204842004200  0.22961617761776
 1  3.85448441194119  1.68906761716172 -2.53893226292629
 1  5.62333774547455  2.13864412331233 -2.22496896509651
 1  5.29731703930393  0.76904801230123 -3.32707143814381
 1  6.60175223812381  1.51453545354535 -0.43019037623762
 1  6.37333145254525 -0.02505054245425  0.59444916161616
 1  7.27860524522452 -1.21041027622762 -1.40681200480048
 1  7.84497693359336  0.60525373347335 -1.95687861146115
 1  9.09394144574457  1.19294717971797 -0.24686705450545
 1  8.90535902460246 -0.35474098029803  0.68749661336134
 1  10.61911946334634 -0.34332179447945 -1.91699658915892
 1  9.34784977047705 -2.11752972947295 -2.15613153795380
 1  11.00837339303930 -2.20327711161116 -2.07694193809381
 1  10.25144803080308 -2.64649659165917 -0.35700514021402
 1  11.28755643654365  0.86035826602660  0.01689317681768
 1  11.03133618701870 -0.86847280858086  1.01963258485849
 1  13.04652797169717 -1.68994715591559 -0.62508017561756
 1  12.74903865636563 -0.00844015301530 -1.76840020132013
 1  14.02343378007801  1.02703525952595  0.33201054405441
 1  13.86251900500050 -0.50096970167017  1.04945146164616
 1  15.33388667716772  0.35564504950495 -1.26505086308631
 1  15.53250069296930 -2.24915520762076  0.17074562066207
 1  14.99293234393440 -2.12580495609561 -1.43125054015402
 1  16.57593722312231 -2.06684220912091 -1.36968843834383
 1  16.25171037173717  1.45240307400740  0.84861140544054
 1  16.48653310051005 -0.36829600470047  1.36293905510551
 1  18.09826076477648 -0.79015556295630 -0.19175251565156
 1  17.89351641614162  0.87168448734874 -1.07356093189319
 1  18.38286907950795  2.10846500420042  1.01509951525153
 1  18.70591775207521  0.68661284228423  1.79096909720972
 1  20.73798871157116  0.17346349454946  0.33417048104810
 1  19.91329543614361  3.09483304520452 -1.04970856425643
 1  21.52448670077008  2.02345899869987 -1.29373073637364
 1  19.95715962036204  1.45567737853785 -1.95300226922692
 1  20.89513548874887  1.64108221732173  2.50641025822582
 1  22.25331703800380  1.71338256795680  1.19247421372137
 1  20.81048077797780  2.98996908020802  1.64239467996800
=======
12 -7.18813938693869  0.58849759785979  0.01335902330233
 6 -4.77740235823582 -2.00064124252425  0.44013054575458
 6 -4.77585751465147  2.82821126842684  1.09943630853085
 6 -9.41682641814181  3.07036253175318 -0.34814767446745
 6 -9.60707102080208 -1.71251676267627 -0.76789321842184
 7 -5.01776520112011  0.40781059915992  0.62314273257326
 6 -4.29330903700370 -0.72457227922792  0.73334135733573
 6 -2.97234624002400 -0.43731315701570  1.25058541274127
 6 -3.03193663206321  0.99474214251425  1.79401013171317
 6 -4.27690468536854  1.43609435823582  1.09967699759976
 6 -3.11327640974097  1.20659294739474  3.28291970087009
 6 -1.90604406540654 -0.68281354275428  0.10181413971397
 6 -0.45578300090009 -0.45106945414541  0.57612174147415
 6  0.58171930913091 -0.58644215711571 -0.53063844434443
 8  0.20262150225022 -0.89985539313931 -1.65470180188019
 8  1.79495130563056 -0.32668006440644 -0.16067285618562
 7 -7.06243669156916  2.58323391319132  0.23285198069807
 6 -5.99612889188919  3.30133110891089  0.64898843244324
 6 -6.37031428452845  4.71013530293029  0.77284797199720
 6 -7.66773948094809  4.85080571207121  0.32252064336434
 6 -8.09794406600660  3.50330952625263 -0.00813826752675
 6 -5.52072002870287  5.84934740064006  1.13990875137514
 6 -8.53323112071207  5.90952198589859  0.03329031443144
 6 -8.50854474577458  7.28880499909991  0.52942919271927
 7 -9.18088036063606  0.67784064516452 -0.43683771747175
 6 -9.89327558725872  1.81860181328133 -0.57185350945095
 6 -11.23906300290029  1.46709504860486 -1.03363508300830
 6 -11.28985138903890  0.07628299239924 -1.22345105910591
 6 -9.96906258695870 -0.35579755405541 -0.80665568166817
 6 -12.33634245794579  2.43550412141214 -1.39229600440044
 6 -12.31157570387039 -0.79141655175518 -1.78221903040304
 6 -12.35160264866487 -0.94208661986199 -3.24456957555756
 7 -7.27538700700070 -1.37289690329033 -0.16529120612061
 6 -8.33909414921492 -2.23398857095710 -0.50837579277928
 6 -7.92845899149915 -3.62780104760476 -0.45137241454145
 6 -6.53597748184819 -3.59268360536054 -0.12461419331933
 6 -6.18785138153815 -2.22201048234824 -0.04753194899490
 6 -8.63354082148215 -4.82965580798080 -0.89551803020302
 6 -5.38100257055706 -4.37972185568557  0.17488036063606
 8 -5.24362320022002 -5.58266274967497  0.29922695339534
 6 -4.20765434483448 -3.42350814061406  0.54915478077808
 6 -3.60194082498250 -3.75810103140314  1.82779315221522
 8 -3.92900450105010 -3.28104484068407  2.93091577267727
 8 -2.72527372107211 -4.71518624102410  1.77008558945895
 6 -2.21151173907391 -5.25277950705070  2.98436337183718
 6  2.94831734343434 -0.45404319891989 -1.11937313771377
 6  4.17423951295129 -0.32262043834383 -0.45465561456146
 6  5.17159064346435  0.53601986738674 -0.81784155685569
 6  5.21979040204020  1.45960861016102 -2.04980914621462
 6  6.45160949374938  0.55011686188619 -0.04288077327733
 6  7.64905244314431 -0.16313666056606 -0.82437938843884
 6  8.96137801040104 -0.07754288468847 -0.01221303410341
 6  10.19631025552555 -0.62442951465146 -0.74128509900990
 6  10.19687638783878 -2.13889482558256 -1.19141260626063
 6  11.47501037793779 -0.24983876467647  0.14657552615262
 6  12.78889379707971 -0.46068011911191 -0.75438546144614
 6  13.98489795819582 -0.06844804760476  0.20862793029303
 6  15.39043516841684 -0.25622935203520 -0.40134837463746
 6  15.59989165806581 -1.61881951575158 -1.00489010671067
 6  16.47886199209921  0.28928328832883  0.33797830503050
 6  17.83858844824482  0.43531492989299 -0.33592940754075
 6  18.82945331483148  1.17108532553255  0.62740317331733
 6  20.20290896009601  1.40923125662566  0.16311107430743
 6  20.32847420122012  2.22484078127813 -1.18440943364336
 6  21.25744667546755  1.95737867416742  1.15492085548555
 1 -4.12381386588659  3.61040656205621  1.33343793069307
 1 -10.13990438313831  3.94307514251425 -0.66815220672067
 1 -10.40882417181718 -2.42282162296230 -0.94834148634864
 1 -2.73356981388139 -1.09733804770477  1.98084877607761
 1 -2.17771137633763  1.52482606520652  1.44662531293129
 1 -2.17860231773177  1.10250070297030  3.93108682218222
 1 -3.57386244624463  2.26852090959096  3.32477464286429
 1 -3.98581202390239  0.62219690369037  3.63165557835784
 1 -2.19778226312631 -1.68499846024602 -0.21392530173017
 1 -2.25571724422442  0.09737698809881 -0.69055909550955
 1 -0.16356987438744  0.57837245114511  0.98329872897290
 1 -0.17254505650565 -1.13079759495950  1.25716967216722
 1 -5.80785956135614  6.64978362246225  0.57289299849985
 1 -5.51029801920192  6.15530889398940  2.14311060816082
 1 -4.43716767276728  5.60201136753675  0.75558873447345
 1 -9.34496654915492  5.67196334443444 -0.60028025622562
 1 -9.13669488538854  7.79985072397240  0.20330995279528
 1 -7.81072053785379  7.60698709820982  1.25762414791479
 1 -12.05628973407341  2.91573189918992 -2.37513051775178
 1 -13.36937660686069  1.94745863706371 -1.60045123662366
 1 -12.33051478257826  3.39890854555456 -0.79142038603860
 1 -12.27075185358536 -1.88362780788079 -1.24049900480048
 1 -13.21848056695670 -0.35404214101410 -1.60370589808981
 1 -13.03621997459746 -1.80121480768077 -3.74286417091709
 1 -12.44763832803280 -0.19299383698370 -3.92980647634764
 1 -11.41658793809381 -1.48820368746875 -3.53488210821082
 1 -9.10032963596360 -4.74785552845285 -1.98608187228723
 1 -8.17346671147115 -5.86259626382638 -0.73526313931393
 1 -9.54728461336134 -4.95550057135714 -0.34424624722472
 1 -3.31384208010801 -3.77227047774777 -0.25883115461546
 1 -1.60240840734073 -4.45320175987599  3.42371528682868
 1 -3.00970057865787 -5.59097071467147  3.50725356425643
 1 -1.70344845634563 -6.08383765696570  2.64782873577358
 1  2.69218852295229 -1.45550738663866 -1.65683964896490
 1  2.90594807240724  0.16798107770777 -1.84046719891989
 1  4.29534043964396 -0.89704191939194  0.41222443844384
 1  4.12733169666967  1.55660437083708 -2.42733110281028
 1  5.82515792749275  2.33454371327133 -1.88000446864686
 1  5.71727903550355  0.88184929242924 -3.02435116611661
 1  6.76804886778678  1.64835883588359  0.22453509630963
 1  6.28700281968197  0.13607557015702  0.84317403410341
 1  7.15621300600060 -1.01387062226223 -1.41451277487749
 1  7.82254469036904  0.54714792289229 -1.79122204580458
 1  8.97960001160116  0.91783966896690  0.18220585278528
 1  8.76743523222322 -0.71500700690069  0.68411627532753
 1  10.16880443184318 -0.10162762506251 -1.67303219271927
 1  9.26944192969297 -2.40571854835484 -1.79147507230723
 1  11.17110966666667 -2.27406419031903 -1.80439468336834
 1  10.28487137313731 -2.58524046604660 -0.20117955765577
 1  11.32431011191119  0.74938716891689  0.54980646814681
 1  11.63645669906991 -1.21205716701670  0.76258688028803
 1  12.92481580048005 -1.52391055225523 -1.19957762536254
 1  12.77795154765477  0.12606329732973 -1.67309067036704
 1  13.79059049574957  0.94645720172017  0.48970631363136
 1  13.90903365646565 -0.64098370307031  1.15852236873687
 1  15.30983427192719  0.38252773777378 -1.24628898689869
 1  15.30219766266627 -2.46499679177918 -0.14732618651865
 1  15.07793084378438 -1.90885326092609 -2.00084749984998
 1  16.98021765116512 -1.91121664656466 -1.14747621712171
 1  15.91494669536954  1.23407124082408  0.52821936623662
 1  16.61607605480548 -0.11526070117012  1.45600836203620
 1  18.11345228392839 -0.53041958935894 -0.49658299869987
 1  17.75460252475248  0.75472279117912 -1.44485806160616
 1  18.40083087568757  2.10214437213721  0.93619162446245
 1  18.91584874517452  0.44470865186519  1.42539253955396
 1  20.63192810551055  0.34960110831083 -0.00987392339234
 1  20.00668477507751  3.22658622052205 -0.92256584998500
 1  21.30517476957696  2.12518917171717 -1.59277064036404
 1  19.67468137253725  1.91924373517352 -2.08698566756676
 1  21.09408538373837  1.43621173027303  2.10178979617962
 1  22.12688439473947  1.68539976967697  0.57541250755075
 1  21.04379410931093  3.07011709500950  1.40661110161016
>>>>>>> 8e03b5b5abfc0030b3aa597dc0de36371bfbd096

