%nproc=4
%Mem=3GB
# td=(NStates=1) iop(3/107=0140000000,3/108=0140000000) CAM-B3LYP/6-31G(d,p) 

TD

0 1
12 -7.18871356305631  0.59839822332233  0.11130750075008
 6 -4.83231204770477 -2.02955018561856  0.55527092949295
 6 -4.71053708430843  2.83722244014401  1.31545165036504
 6 -9.37190395489549  3.11734928792879 -0.45243771907191
 6 -9.50971706970697 -1.69363112881288 -0.92981978687869
 7 -5.09226625782578  0.45394148474847  0.75847367136714
 6 -4.37126937423742 -0.70827197039704  0.75036293099310
 6 -2.91461768236824 -0.45583398139814  1.31597726682668
 6 -3.01631485838584  1.05983468506851  1.78293457275728
 6 -4.42399263396340  1.45776042714271  1.30461485538554
 6 -2.77013319411941  1.30823364266427  3.25704101870187
 6 -1.95765149484948 -0.61305729492949  0.08065187548755
 6 -0.46690239943994 -0.31691493949395  0.55059844214421
 6  0.50288221142114 -0.70908753065307 -0.55724551465147
 8  0.22773299009901 -1.17820159785979 -1.65024241734173
 8  1.74709330773077 -0.32306224462446 -0.15689107670767
 7 -7.08759640304030  2.63488669856986  0.29816074017402
 6 -5.98519866366637  3.37307107450745  0.84251012711271
 6 -6.31051595999600  4.77959482308231  0.81716997569757
 6 -7.64526931223122  4.86501830703070  0.44744087048705
 6 -8.09562909040904  3.53336027482748  0.02596059465947
 6 -5.42459449334933  5.90149962366237  1.19325948114811
 6 -8.51733174117412  5.97493776337634  0.10302091459146
 6 -8.38380679067907  7.22412156185618  0.59065312461246
 7 -9.10114915601560  0.66335332973297 -0.62210878477848
 6 -9.78668615491549  1.81100442474247 -0.75423823732373
 6 -11.18942289498950  1.52406185068507 -1.08211307100710
 6 -11.19623911111111  0.25542308810881 -1.32105213351335
 6 -9.88437604120412 -0.37602779617962 -0.86080828212821
 6 -12.32666360406041  2.60052529392939 -1.28418787148715
 6 -12.39316310921092 -0.62576870067007 -1.67631696229623
 6 -12.20938284718472 -1.15296548884888 -3.15710636183618
 7 -7.19944290669067 -1.36355119081908 -0.07971064616462
 6 -8.24458878517852 -2.25133367886789 -0.52635421532153
 6 -7.77645968576858 -3.56318687008701 -0.60502080188019
 6 -6.39980777127713 -3.53343632573257 -0.15283736543654
 6 -6.11000473217322 -2.14307226302630  0.04416625202520
 6 -8.63137547704770 -4.83728982738274 -0.85859924302430
 6 -5.23483894679468 -4.34257782118212 -0.01796682258226
 8 -5.19244023632363 -5.58753561056106  0.03418936753675
 6 -4.14250875347535 -3.36273372077208  0.46311463306331
 6 -3.51505568236824 -3.77378532123212  1.83812978147815
 8 -3.76300908430843 -3.11398875677568  2.89322268046805
 8 -2.70844619741974 -4.81214983348335  1.67819685718572
 6 -2.17524648164816 -5.20956616251625  3.00595799619962
 6  2.75403172357236 -0.75727401630163 -1.17850136733673
 6  4.03903478867887 -0.67796306420642 -0.65832839563956
 6  5.01071656295630  0.23518004600460 -1.02716559355936
 6  4.90731445704570  1.24887256255626 -2.18777291229123
 6  6.31287756645665  0.39193980998100 -0.22163268766877
 6  7.64454590719072 -0.27738628662866 -0.98024835353535
 6  8.96975468706871 -0.11503331943194 -0.12718882128213
 6  10.23683914451445 -0.59746140934093 -0.84655037503750
 6  10.08478175477548 -2.08329620952095 -1.28144511051105
 6  11.41108577237724 -0.19403429452945  0.08579061656166
 6  12.76749448494849 -0.54180421392139 -0.72320982608261
 6  13.92269354115411  0.01006529222922  0.16080249184919
 6  15.38183417441744 -0.22942202580258 -0.54279993249325
 6  15.64567083808381 -1.67190557885789 -0.81365319161916
 6  16.37026401910191  0.47417393469347  0.42979771447145
 6  17.75302288998900  0.48491222082208 -0.13209973697370
 6  18.72105252385238  1.31764984348435  0.73570682738274
 6  20.11580438483848  1.27051648414841  0.25417212321232
 6  20.19965281108111  2.01406871197120 -1.14327902380238
 6  21.03928899589959  2.10276197609761  1.25594953495350
 1 -3.96739710321032  3.59198244964496  1.72396849264926
 1 -10.28487061036104  3.73859613411341 -0.47726225242524
 1 -10.25576000010001 -2.43594913001300 -1.28723654305431
 1 -2.64988227542754 -1.21133133583358  2.09531602230223
 1 -2.24800826712671  1.64195625672567  1.31771542054205
 1 -1.65412849924993  1.17582668906891  3.55981631903190
 1 -3.17192430153015  2.23559278207821  3.69925794799480
 1 -3.39681248174818  0.64859001330133  3.85839752495250
 1 -2.18712383138314 -1.69092976377638 -0.13969197629763
 1 -2.18968533753375 -0.12214459465947 -0.90410714531453
 1 -0.39631506020602  0.70718030533053  0.74928879187919
 1 -0.04329274957496 -0.70472123872387  1.51785524382438
 1 -5.64312849054906  6.86934444644464  0.62892272357236
 1 -5.61343281458146  6.27288016941694  2.25910792329233
 1 -4.43624846944694  5.58308257625762  0.95179591219122
 1 -9.31696195599560  5.80522390439044 -0.54156550925092
 1 -9.19056812051205  7.93649337033703  0.14971474717472
 1 -7.53347127922792  7.67951478787879  1.20192915321532
 1 -12.15959643264326  3.23516266336634 -2.19795562706271
 1 -13.24619191689169  1.97474621702170 -1.56902263046305
 1 -12.37694872757276  3.29000633473347 -0.42892333183318
 1 -12.54619658455846 -1.39879080188019 -1.07373087398740
 1 -13.28035033413341 -0.19701241174117 -1.67478323272327
 1 -12.95204040324032 -2.07358102020202 -3.41534249234924
 1 -12.26078648434843 -0.32368083938394 -4.01680065846585
 1 -11.30650548994899 -1.66046707390739 -3.22885116331633
 1 -9.25223984258426 -5.01063756455646 -1.80395645864586
 1 -8.15097948314831 -5.77166311961196 -0.81493144824482
 1 -9.38003218221822 -5.04399284768477 -0.09105137383738
 1 -3.20340785928593 -3.27663426902690 -0.23400113821382
 1 -1.52777616521652 -4.33890610401040  3.29651136873687
 1 -3.04357079437944 -5.19554907980798  3.59848088578858
 1 -1.62248276877688 -6.09657044184418  2.84545790689069
 1  2.95404345914591 -1.80567719051905 -1.51241268996900
 1  2.68016445774577 -0.09613152835283 -2.04837589508951
 1  4.41213169986999 -1.23170158395840  0.26706810701070
 1  3.82461777327733  1.26360190289029 -2.67547803350335
 1  5.08205513771377  2.17675809970997 -1.86963440184018
 1  5.57843741224122  1.03663485438544 -3.08337459435944
 1  6.72913109700970  1.40517049764976 -0.02151253735374
 1  6.08755662776278 -0.29698703540354  0.60909710521052
 1  7.46320844364436 -1.22896356935694 -1.38634339153915
 1  7.74602716121612  0.31083018601860 -1.90363118601860
 1  9.13979002330233  0.99541903940394  0.03677610571057
 1  8.75675879667967 -0.60491884458446  0.95948207160716
 1  10.30508514031403  0.05697184498450 -1.84292945094509
 1  9.20533014211421 -2.20970925442544 -1.74990337223722
 1  10.91236037663766 -2.36486988628863 -1.93094845294529
 1  10.21046324342434 -2.69068318301830 -0.34301169486949
 1  11.36765840744074  0.88871530493049  0.39838760956096
 1  11.27021461696170 -0.70705200280028  1.06901322142214
 1  12.82712066456646 -1.66828424772477 -0.76303857535754
 1  12.71223705360536  0.08932386838684 -1.82357669136914
 1  13.76270769106911  1.19930529382938  0.33688851755176
 1  13.86281459205921 -0.56372275117512  1.05980835483548
 1  15.52676307770777  0.02958635563556 -1.73083435223522
 1  15.73647744454446 -2.19239858105811  0.06542840734073
 1  14.96432807720772 -2.28049256925693 -1.63447482098210
 1  16.64966324592459 -2.00199109610961 -1.24737125042504
 1  16.10154342784278  1.47898623232323  0.73139905620562
 1  16.28361243904390 -0.09744602940294  1.48532702740274
 1  18.20823756145615 -0.55019153315332 -0.32096229182918
 1  17.67692500210021  0.88321721582158 -1.06087183078308
 1  18.19745880278028  2.43076434443444  0.89886183298330
 1  18.85147110961096  1.02989782928293  1.72407565306531
 1  20.62512234453445  0.37203820142014  0.45623151535153
 1  19.75874269276928  2.91485226172617 -1.13284546924692
 1  21.25037883868387  2.20573171527153 -1.40343832503250
 1  19.75265366296630  1.47778806900690 -2.03996238063806
 1  20.81214506800680  1.61827746864686  2.31807547634763
 1  22.20635852865286  2.00972144284428  0.77649430303030
 1  20.90405048354836  3.12610872807281  1.50419755645565

