%nproc=4
%Mem=2GB
# td=(NStates=1) CAM-B3LYP/6-31G(d,p) 

TD

0 1
12 -7.13874444744474  0.52148089618962  0.15653334073407
 6 -4.83224784278428 -1.97194837323732  0.54708124082408
 6 -4.81012094099410  2.79298774607461  0.93802016691669
 6 -9.34245898139814  3.02057755325533 -0.35742860256026
 6 -9.52382269596960 -1.74385989698970 -0.89295572467247
 7 -5.10619404400440  0.39518933703370  0.68434885318532
 6 -4.28777848394840 -0.67158698069807  0.94071209440944
 6 -2.77987699309931 -0.42506193189319  1.23476383058306
 6 -3.03138657705771  1.13274594289429  1.69996072677268
 6 -4.36277327222722  1.49900064886489  1.00309733963396
 6 -3.05078016011601  1.39296158425843  3.16029743864386
 6 -1.87600106110611 -0.53532879427943  0.06072003030303
 6 -0.55838326092609 -0.27412175937594  0.48937306660666
 6  0.49745088228823 -0.75870938383838 -0.60346572707271
 8  0.18081932203220 -1.04993040064006 -1.72094842654265
 8  1.75313712421242 -0.39865726212621 -0.17394418331833
 7 -7.14847529542954  2.59113470327033  0.23935263076308
 6 -6.02260153915392  3.30340131593159  0.57619115271527
 6 -6.37485473857386  4.79045333473347  0.53574426162616
 6 -7.66426913391339  4.79994062556256  0.25898428972897
 6 -8.09689396099610  3.43203239853985  0.09351189748975
 6 -5.37355531223122  5.86397886378638  1.08582334283428
 6 -8.57612541014101  6.00156118981898  0.18329531493149
 6 -8.46686057735774  7.15186130473047  0.83665991579158
 7 -9.08114038663866  0.56484934603460 -0.48807284098410
 6 -9.86223248294830  1.83196314941494 -0.61042736683668
 6 -11.15081417801780  1.47089542864286 -1.09677139663966
 6 -11.25022742664266  0.14264962906291 -1.21343005700570
 6 -9.92673835453545 -0.39064103840384 -0.87711272737274
 6 -12.29586841054105  2.40795136613661 -1.32174894969497
 6 -12.27821236753675 -0.75441285138514 -1.70284109260926
 6 -12.52709019741974 -0.94074648584858 -3.19993511211121
 7 -7.23586305460546 -1.41441105470547 -0.21575625262526
 6 -8.23094333413341 -2.23098827092709 -0.59484443964396
 6 -7.73468961456146 -3.58381664916492 -0.67301457875788
 6 -6.47219110321032 -3.52093643064306 -0.20751248314831
 6 -6.22631522792279 -2.22130041134113  0.13562636683668
 6 -8.54929239663966 -4.80897373977398 -0.95051352975298
 6 -5.28248271857186 -4.38865274877488  0.14211708430843
 8 -5.21920075797580 -5.58479296269627  0.06193322402240
 6 -4.15058863826383 -3.35459124892489  0.59957982328233
 6 -3.53835446634663 -3.65731095239524  1.92088246114611
 8 -3.74782638323832 -3.08744548074807  2.99466214731473
 8 -2.82624381808181 -4.74290901330133  1.80473905480548
 6 -2.26081666956696 -5.23482771187119  3.15290022552255
 6  2.79298180988099 -0.60304809940994 -1.13879507990799
 6  4.09513160216022 -0.40111828812881 -0.47022717171717
 6  5.10705418981898  0.42139840524052 -0.76854662736274
 6  5.13750217321732  1.37975062436244 -2.00572473777378
 6  6.47942227502750  0.40040189038904 -0.02519900510051
 6  7.57826536443644 -0.22371271817182 -0.85423237373737
 6  8.95434730733073 -0.20681581198120 -0.10867268006801
 6  10.20994161866187 -0.68898597029703 -0.81062203270327
 6  10.02473917411741 -2.14322525862586 -1.31546501150115
 6  11.45372824972497 -0.36891067186719  0.02039290789079
 6  12.84034894259426 -0.64876892799280 -0.64368439133913
 6  14.03125259365937 -0.17028823162316  0.19411647914791
 6  15.35050117501750 -0.19995372447245 -0.50193843364336
 6  15.66537820672067 -1.57833546734673 -0.93147276497650
 6  16.42006611251125  0.39727408740874  0.39273378057806
 6  17.83090768016801  0.60953235163516 -0.24358017261726
 6  18.79804017351735  1.17371558855886  0.77537797079708
 6  20.08054672387239  1.41433176667667  0.11574633783378
 6  20.08940029382938  2.32578087528753 -1.08881987468747
 6  21.16002693349335  2.05012794909491  1.14738010141014
 1 -4.04330581508151  3.72956847824782  1.02849743664366
 1 -10.01566195889589  3.93231406640664 -0.61846723822382
 1 -10.18836212561256 -2.62763210401040 -1.15289194139414
 1 -2.42942939983998 -1.05817413131313  2.06813750495049
 1 -2.23711731693169  1.73011659425943  1.21395204560456
 1 -1.97987244474447  1.09673012591259  3.59164287778778
 1 -3.16881194119412  2.50007406490649  3.23580574597460
 1 -3.75310875357536  0.82057674167417  3.60563297609761
 1 -2.13032551745175 -1.60923088348835 -0.06523043224322
 1 -2.30053172567257 -0.02285503510351 -0.88245828542854
 1 -0.23273679107911  0.73807842174217  0.80960135923592
 1 -0.27181498349835 -0.90922543774378  1.32110606580658
 1 -5.84143291869187  6.70173881798180  0.72156786598660
 1 -5.47476446584658  5.94828819191919  2.27200349744975
 1 -4.35813976997700  5.78827999439944  0.75976915251525
 1 -9.10543259575958  5.95352150025002 -0.72248247644764
 1 -8.85502671857186  8.04043478237824  0.51765138693869
 1 -7.66635610141014  7.24744114361436  1.55007339283928
 1 -11.87225133023302  3.27462778877888 -1.97642064676468
 1 -13.14024369356936  2.19029292049205 -1.79567075857586
 1 -12.18885061616162  3.02743139783978 -0.26652789678968
 1 -11.95001978037804 -1.78213765886589 -1.20411536643664
 1 -13.21257997689769 -0.35672240904090 -1.27739326682668
 1 -13.40374672727273 -1.32788747494750 -3.46431631613161
 1 -12.47601116531653  0.06247170957096 -3.78920241594159
 1 -11.59719599889989 -1.60735560266027 -3.34023264326433
 1 -8.68454805780578 -4.78957970087009 -2.01949521362136
 1 -7.85141450625062 -5.61603160736074 -0.59791940494049
 1 -9.58352823772377 -4.99633465476548 -0.48328015061506
 1 -3.30409110501050 -3.54814806550655 -0.25085035653565
 1 -1.73867203370337 -4.31539797949795  3.24056697199720
 1 -3.16645625422542 -5.71302291989199  3.68645148404841
 1 -1.61938004950495 -5.96578585178518  2.87297125002500
 1  2.90278958305831 -1.73248508440844 -1.38982294729473
 1  2.51369884748475  0.10338461806181 -2.06756990919092
 1  4.32621352695269 -1.16061827702770  0.41929514551455
 1  4.07290625412541  1.53937264766477 -2.39789815951595
 1  5.31606701840184  2.37161742064206 -1.80795726392639
 1  5.86249355695569  0.77282839033903 -2.68238696969697
 1  6.84934699759976  1.40405440544054  0.15494813761376
 1  6.63886800620062 -0.22257029442944  0.85452516921692
 1  7.17041442614261 -1.12097133233323 -1.04916624022402
 1  7.76237867376738  0.22958616671667 -1.95609853345335
 1  9.00901295289529  0.74953283828383  0.42205983818382
 1  8.80733922262226 -0.71285679187919  0.74382224592459
 1  10.29095664706471 -0.07542500480048 -1.78143303280328
 1  9.19309429492949 -1.93528150465047 -2.14174009880988
 1  10.92992554825483 -2.68642542644264 -1.88863310721072
 1  9.71721460746075 -2.74991693369337 -0.56656609630963
 1  11.35707338823882  0.65659788998900  0.40185167266727
 1  11.64114716811681 -1.09582554385439  0.97339796139614
 1  12.69531285018502 -1.69330749194919 -0.98385605320532
 1  12.73771752425242 -0.09336864586459 -1.61879524082408
 1  13.94045548224823  0.81725428142814  0.31712905590559
 1  14.22716546964696 -0.64194379907991  1.25943245974597
 1  15.16956024452445  0.48248773377338 -1.49539389738974
 1  15.97355479837984 -2.40538083018302 -0.03806526042604
 1  14.96551960266027 -2.21524389999000 -1.54122153725373
 1  16.64511414081408 -1.55417094199420 -1.36427789728973
 1  16.00433563426343  1.41203903760376  0.79683622792279
 1  16.60195464266426 -0.28143731883188  1.23781654285429
 1  18.27092803150315 -0.38451499889989 -0.58458179857986
 1  17.64603166766677  0.99766708560856 -1.29186276207621
 1  18.43214400700070  2.15594975267527  1.04161216651665
 1  18.83732089238924  0.43581776277628  1.53047304760476
 1  20.62665757845784  0.40090623882388 -0.05327826382638
 1  19.70957506410641  3.42201576347635 -0.54257785118512
 1  21.16900115221522  2.20581723452345 -1.35494685798580
 1  19.37342124652465  2.13767557835784 -1.95163213221322
 1  21.43227920312031  1.45223333243324  2.09665928312831
 1  22.06802850915091  2.20479170887089  0.55434040034003
 1  20.75003473337334  3.06024610791079  1.31874231473147

