%nproc=4
%Mem=2GB
# td=(NStates=1) CAM-B3LYP/6-31G(d,p) 

TD

0 1
<<<<<<< HEAD
12 -7.16874744774477  0.51183993209321  0.07892557995800
 6 -4.85953057105711 -2.01541271967197  0.53812034473447
 6 -4.80247017591759  2.78689713701370  1.02656902180218
 6 -9.40690542604260  3.12701819731973 -0.35708856855686
 6 -9.48781909560956 -1.73435894689469 -0.88530495959596
 7 -5.18479190379038  0.38959877797780  0.80123054135414
 6 -4.41490119621962 -0.74988481048105  0.92317034023402
 6 -2.92126113151315 -0.40531995769577  1.24228458265827
 6 -3.09393283168317  1.10930359865987  1.71937266796680
 6 -4.43408040294029  1.41232198099810  1.07956498639864
 6 -3.04817990009001  1.24216650475048  3.18325973487349
 6 -1.94023748474847 -0.59064432583258  0.07895185348535
 6 -0.49507693029303 -0.49279362656266  0.59699382868287
 6  0.49912104930493 -0.55186869976998 -0.46723210371037
 8  0.10489172927293 -0.90784619221922 -1.63377970967097
 8  1.79543135363536 -0.44676207260726 -0.11546833573357
 7 -7.06786723462346  2.55708129792979  0.21418011351135
 6 -5.93792307130713  3.33212418821882  0.68750228382838
 6 -6.30239749284928  4.66256054545455  0.76802748994900
 6 -7.59920262726273  4.85063569506951  0.29734812611261
 6 -8.10930520212021  3.52189138443844  0.04498704500450
 6 -5.41523948064807  5.81538400430043  1.01964672517252
 6 -8.49424722232223  6.01455248894890  0.24031101650165
 6 -8.35071896319632  7.20161628022802  0.92344859465947
 7 -9.15116738933893  0.73025588668867 -0.57699173287329
 6 -9.92109836953695  1.87057701080108 -0.59086541064106
 6 -11.23653274987499  1.48945728482848 -1.12395411491149
 6 -11.21452385628563  0.13763912801280 -1.31072978697870
 6 -9.89341502220222 -0.36979895419542 -0.93825884198420
 6 -12.29862868656866  2.49359993099310 -1.35574234903490
 6 -12.33403795009501 -0.73654106420642 -1.82575338383838
 6 -12.26533402180218 -0.97950036123612 -3.44796991559156
 7 -7.17974744304431 -1.40043965756576 -0.16003068006801
 6 -8.27661790159016 -2.27884305640564 -0.54397935313531
 6 -7.80247639323932 -3.64807307480748 -0.54339161646165
 6 -6.51184506860686 -3.66102043904390 -0.01612334423442
 6 -6.18238083448345 -2.27415569686969  0.13520632483248
 6 -8.48960642804280 -4.87082992539254 -0.98029650805081
 6 -5.24665913621362 -4.41876576007601  0.21517439003900
 8 -5.11821065896590 -5.61968645204520  0.14072110281028
 6 -4.14986856625663 -3.39062485228523  0.59712957825783
 6 -3.50167079797980 -3.68249347064706  1.93907428032803
 8 -3.84831643224322 -3.09334607080708  2.91652433353335
 8 -2.60158135183518 -4.63285800820082  1.85943452435244
 6 -2.00024061196120 -4.98626285538554  3.01976691219122
 6  2.79622213391339 -0.69821761636164 -1.11715291569157
 6  4.03913600260026 -0.38247642394239 -0.40167031603160
 6  5.05218870327033  0.30883714911491 -0.95602537523752
 6  5.04975339833983  1.06254890419042 -2.28718288358836
 6  6.41277561036104  0.56298814901490 -0.26897338253825
 6  7.50332787068707 -0.16171651855186 -0.97008395889589
 6  8.85717759035904 -0.07288241864186 -0.20227204000400
 6  10.12613323782378 -0.61483855555556 -0.81432240274027
 6  9.98483518371837 -2.11940287638764 -1.12824628962896
 6  11.36197907480748 -0.20803458425843 -0.08559769116912
 6  12.71851675937594 -0.30418446954695 -0.80785080798080
 6  13.97994746314631 -0.00125132793279  0.17174424192419
 6  15.29924604950495 -0.17761149024902 -0.49896813661366
 6  15.63378504740474 -1.57270490429043 -0.91904152185219
 6  16.48090219611961  0.36624098409841  0.34169867706771
 6  17.84799938933893  0.50764216261626 -0.21594740934093
 6  18.79300967046705  1.17912612961296  0.69586001900190
 6  20.23615228442844  1.31653198669867  0.18717348054805
 6  20.32186354015402  2.14574287148715 -1.05918691139114
 6  21.11824275507551  1.94842777907791  1.28614397779778
 1 -4.10874235873587  3.46228174957496  1.34124871177118
 1 -10.13400379307931  3.99284011901190 -0.54573996549655
 1 -10.26578986838684 -2.56733607440744 -0.94170082228223
 1 -2.54555101200120 -1.00841915581558  2.00180087128713
 1 -2.41028463366337  1.68478206080608  1.13323397379738
 1 -2.23846830433043  0.89008946184618  3.60718443194319
 1 -3.28401346134613  2.27619167666767  3.50814297969797
 1 -3.89695313801380  0.83045772977298  3.68846125892589
 1 -2.10373285818582 -1.62582254265427 -0.17330123932393
 1 -2.08891056355636 -0.12438518811881 -0.81230126972697
 1 -0.39771328872887  0.38295290919092  1.19548994809481
 1 -0.21237903990399 -1.15890040524052  1.36547050225023
 1 -5.61508028342834  6.75246389048905  0.39062477167717
 1 -5.46030301970197  6.19077244034403  2.07296359345935
 1 -4.26164012001200  5.67422858925893  0.92167534313431
 1 -9.24538659115912  5.96142229032903 -0.62285251345135
 1 -8.89332054795480  8.09951068996900  0.47428705050505
 1 -7.68134760056006  7.34245064456446  1.68860724622462
 1 -11.76627073217322  3.45682600860086 -1.85359836453645
 1 -13.06884655385539  2.02177606880688 -1.75998719021902
 1 -12.78115984708471  2.79908856355636 -0.36743798779878
 1 -12.15939071747175 -1.65182462756276 -1.34687964286429
 1 -13.25461418031803 -0.33998073487349 -1.55980150765077
 1 -13.19580593319332 -1.43120780698070 -3.76087597209721
 1 -12.38053161736174  0.02408787118712 -4.00345384108411
 1 -11.27194347364737 -1.52499736683668 -3.54264288428843
 1 -8.73220282328233 -4.68158890179018 -2.11715497959796
 1 -7.99297866266627 -5.90352035623562 -0.80105971897190
 1 -9.37431731663166 -5.09225424672467 -0.21442326492649
 1 -3.44382507840784 -3.36610986168617 -0.27815308680868
 1 -1.18791695819582 -4.32842928262826  3.39629254455446
 1 -2.77155676427643 -5.17172879047905  3.78879171807181
 1 -1.44145225672567 -5.92896216941694  2.70554450735073
 1  2.74489379347935 -1.70477231313131 -1.60960492549255
 1  2.56513399099910 -0.02905862626263 -1.94533768596860
 1  4.27691859745975 -0.71942415761576  0.48042125812581
 1  4.01878084158416  0.75319402980298 -3.02878124782478
 1  5.01078649034903  2.14038429732973 -2.05406187438744
 1  5.86361366896690  0.59630073757376 -2.97628635963596
 1  6.73519558245825  1.63485748574857 -0.05943330053005
 1  6.25568968836884  0.05637760036004  0.76121583828383
 1  7.15101248594859 -1.22997223242324 -1.13712503610361
 1  7.72884532043204  0.46366957505751 -1.89415233883388
 1  8.96917896949695  0.90968885388539  0.14241187338734
 1  8.86323481218122 -0.52404791099110  0.82195005870587
 1  10.03888143954395 -0.07115457775778 -1.89799468896890
 1  9.18387337283728 -2.49121709820982 -1.59414533933393
 1  10.98465102080208 -2.70623740764076 -1.65649989388939
 1  9.86283916991699 -2.57668961096110 -0.04146358605861
 1  11.25303298419842  0.85146737693769  0.21270275777578
 1  11.38258131153115 -0.86348230953095  0.74533515511551
 1  12.85182850175017 -1.35594375557556 -1.45841350895089
 1  12.92832658515852  0.60910160116012 -1.46078944024402
 1  14.05119655635564  1.03176573257326  0.53174051705171
 1  14.14192694579458 -0.76877648234823  0.98247476397640
 1  15.56886017451745  0.46498598359836 -1.41146550455046
 1  15.88744618751875 -2.20904119621962  0.03733227932793
 1  14.76209926062606 -2.04769714531453 -1.21078849394939
 1  16.63336296569657 -1.57526305120512 -1.61726319581958
 1  16.19421462216221  1.33470130383038  0.69077562186219
 1  16.52560700790079 -0.38556773187319  1.32880564176418
 1  18.03060399909991 -0.51134768216822 -0.47870121052105
 1  17.71859892439244  0.94266158505851 -1.14421799759976
 1  18.39306009860986  2.10057421512151  0.97136514181418
 1  19.10305746604660  0.49043322432243  1.60608060836084
 1  20.68525343804381  0.36046219441944 -0.01410434643464
 1  19.76574068066807  3.08091165306531 -0.87692128552855
 1  21.45298955105510  2.01101775457546 -1.22439380268027
 1  19.89128303270327  1.71119293009301 -1.97683465246525
 1  21.03443941914191  1.34712282138214  2.21783140034003
 1  22.18804051035103  1.84159538923892  1.12093706000600
 1  20.75984571447145  2.87043712701270  1.55098553905391
=======
12 -7.16417699069907  0.64725347344734  0.09538722612261
 6 -4.83253787178718 -1.92829400780078  0.44214074677468
 6 -4.79069899879988  2.88164661196120  0.93720008490849
 6 -9.38357309280928  3.13800929642964 -0.29785264496450
 6 -9.59497981168117 -1.80092560356036 -0.87666409550955
 7 -5.18266169076908  0.36006582468247  0.68600901920192
 6 -4.32914262036204 -0.72770259225923  0.75391341454145
 6 -2.91496050145014 -0.30359978567857  1.23285363956396
 6 -3.12732617101710  1.17173984228423  1.76702743344334
 6 -4.43310030493049  1.47613836263626  1.15053208310831
 6 -3.01736681878188  1.08222051015102  3.32491390029003
 6 -1.94039750075008 -0.48223348474847  0.04822878117812
 6 -0.51725914851485 -0.32309665686569  0.44659878917892
 6  0.52333347054705 -0.65243875677568 -0.63943932443244
 8  0.25968720882088 -1.14529993759376 -1.68549488118812
 8  1.76058786928693 -0.32666006240624 -0.16903369226923
 7 -7.02411285918592  2.69402499229923  0.24280297579758
 6 -6.00365964496450  3.37917889368937  0.61973550715071
 6 -6.45266251935193  4.80109439883988  0.62708339553955
 6 -7.73672637963796  4.83862449394939  0.19051744304430
 6 -8.15756002760276  3.47475667096710  0.02545509180918
 6 -5.60365832253225  5.94539700560056  1.23197795829583
 6 -8.56606440404040  6.02574360806081  0.02894988038804
 6 -8.49838372967297  7.20966708530853  0.70424667446745
 7 -9.17319959255926  0.62928578967897 -0.43858789248925
 6 -9.92503876357636  1.76512646574657 -0.67502382648265
 6 -11.26226532313231  1.41374971407141 -1.08396011551155
 6 -11.36872927682768  0.08578394249425 -1.10337905190519
 6 -10.01828750945094 -0.46564853915392 -0.87942295839584
 6 -12.25084390809081  2.49732030303030 -1.21369814461446
 6 -12.48364291059106 -0.78203561366137 -1.59457026552655
 6 -12.48440592899290 -1.01948435963596 -3.19642476107611
 7 -7.19330879917992 -1.40706031963196 -0.10711538853885
 6 -8.21793203300330 -2.24407958005801 -0.39478443364336
 6 -7.73823996959696 -3.65925419291929 -0.57133441074107
 6 -6.46228011211121 -3.54867920492049 -0.11842357425743
 6 -6.18089068546855 -2.14714299559956  0.12736554075408
 6 -8.71356882428243 -4.72876571897190 -0.81493997239724
 6 -5.24667913821382 -4.39200308380838  0.15145801840184
 8 -5.00196903480348 -5.56996147954795  0.24516154685469
 6 -4.16848042744274 -3.25154094389439  0.46276614191419
 6 -3.46985761666167 -3.65999122042204  1.79509988288829
 8 -3.58232983358336 -3.13017975417542  2.84858753985399
 8 -2.60309150285029 -4.83920864326433  1.59419800070007
 6 -2.08131871977198 -5.31454568366837  2.80350528602860
 6  2.72241475317532 -0.66090388498850 -1.19541074147415
 6  4.04534662366237 -0.38963714001400 -0.59495964496450
 6  5.11074455885589  0.29808607400740 -1.04231400410041
 6  5.07310573357336  1.02252490179018 -2.36047021232123
 6  6.35635996879688  0.50385223542354 -0.24801128632863
 6  7.72944048194819 -0.06368671557156 -0.97658460896090
 6  8.96625849844984 -0.11329646004600 -0.01556336913691
 6  10.13855447994799 -0.61605867756776 -0.71479244974497
 6  10.15703240344034 -2.18301923802380 -1.09871333633363
 6  11.46163904080408 -0.34018779957996  0.11330219881988
 6  12.76126103380338 -0.51643569466947 -0.58140816371637
 6  13.98831830023002 -0.13089429222922  0.38417548504850
 6  15.31361748664867 -0.13171690079008 -0.35814405420542
 6  15.66586825572557 -1.56869450325033 -0.88452807050705
 6  16.50867497339734  0.40927528752875  0.55842034923492
 6  17.86556114551455  0.49119051745175 -0.16875268986899
 6  18.78969933943394  1.35698391539154  0.64851528452845
 6  20.33678234743474  1.31640197369737  0.10732549574958
 6  20.43172452625263  2.04739303650365 -1.19623061576158
 6  21.15429636043605  1.96793973027303  1.21491685508551
 1 -4.09632111661166  3.64302982438244  1.35447003390339
 1 -10.12849324202420  3.89981081608161 -0.28673406490649
 1 -10.37732102150215 -2.58054739553955 -1.18666531873187
 1 -2.46377283418342 -0.92383069696970  1.94105479667967
 1 -2.25559916511651  1.78405198779878  1.33066371677168
 1 -1.96336079357936  0.74891534443444  3.71434514801480
 1 -2.90398545854586  2.17478153565356  3.71988415381538
 1 -3.97652109480948  0.46810149414941  3.73389580238024
 1 -2.08222070697070 -1.50924088448845 -0.33697760696070
 1 -2.33609528202820  0.19924717511751 -0.73646368596860
 1 -0.27787130453045  0.62612722662266  0.94485488458846
 1 -0.43157095909591 -1.12180669586959  1.25753970917092
 1 -5.92365114051405  6.71314995909591  0.56408211741174
 1 -5.81014800420042  6.20113347644764  2.28345464256426
 1 -4.57134109010901  5.84684585098510  1.22662583818382
 1 -9.44053610611061  6.14573072117212 -0.81931215941594
 1 -9.14836605250525  8.10571131003100  0.53859348114812
 1 -7.80311977777778  7.25978237773777  1.74884326982698
 1 -11.78481258635864  3.21572189818982 -1.97441044574457
 1 -13.29098876807681  2.23719761096110 -1.34537572907291
 1 -12.32154388548855  3.13288194289429 -0.35045628962896
 1 -12.50197497589759 -1.78567801290129 -0.98867382228223
 1 -13.40382910181018 -0.32206894369437 -1.51145667316732
 1 -13.18636498909891 -1.57577226342634 -3.61689157365737
 1 -12.33115667986799  0.00703616601660 -3.64873836953695
 1 -11.64891117041704 -1.50527539463946 -3.35593421342134
 1 -9.27817742074208 -4.70044078697870 -1.77520078417842
 1 -8.16294565936594 -5.62709271347135 -1.06563617661766
 1 -9.33295318021802 -5.30914593589359  0.01865004240424
 1 -3.60775147104711 -3.52082533323332 -0.28713398489849
 1 -1.53621178767877 -4.40624706440644  3.15896881218122
 1 -2.81225083368337 -5.60269188678868  3.56529936883688
 1 -1.50078819031903 -6.10342961616162  2.69444339723972
 1  2.32568187228723 -1.70279211511151 -1.33655762076208
 1  2.44820229782978  0.14696897649765 -2.04580773297330
 1  4.02834373997400 -0.93411562676268  0.39575279127913
 1  4.04986394989499  1.22059076947695 -2.74771314101410
 1  5.40466587828783  2.02864312321232 -2.14918138633863
 1  5.78143545114511  0.69768087558756 -3.24566329732973
 1  6.30443250615062  1.58243224322432  0.04489713251325
 1  6.34730885028503  0.00670263286329  0.62098181488149
 1  7.45917330203020 -0.98756799199920 -1.47831915551555
 1  7.99593202910291  0.48902211031103 -1.92105502910291
 1  9.02702475407541  0.86344422942294  0.36598423062306
 1  8.69407789648965 -0.57653315951595  1.02547041074107
 1  10.06521407280728  0.00581311901190 -1.73890878037804
 1  9.67221220672067 -2.40292826932693 -1.93815974077408
 1  11.15424798049805 -2.49119590349035 -1.54161840574057
 1  9.74114700070007 -2.74151609360936 -0.29359879957996
 1  11.43097077797780  0.64597682788279  0.58333982148215
 1  11.38586163956396 -1.12483844514451  0.97817843944394
 1  12.71849516841684 -1.66227438863886 -0.80316798439844
 1  12.92490624312431 -0.03134244324432 -1.44932829412941
 1  13.78311974867487  0.89962251825183  0.70994833783378
 1  14.03446619971997 -0.88943854855486  1.08224474097410
 1  15.29267255575557  0.45996548154816 -1.36919127712771
 1  15.67855529842984 -2.18078837093709 -0.19007046094609
 1  15.00407345804581 -2.00206258185819 -1.67142455755576
 1  16.71040066946695 -1.60213573847385 -1.25581705120512
 1  16.21427662836284  1.30758859255926  1.09304584888489
 1  16.55198964616461 -0.18953812891289  1.22943570477048
 1  18.43424436313632 -0.50792734013401 -0.27938127852785
 1  17.88524558905891  1.10811813071307 -1.06888046384638
 1  18.26368716131613  2.40983514121412  0.58169617491749
 1  18.73996115641564  0.98681286228623  1.68455845614561
 1  20.58893380608061  0.11367751595160 -0.03501643764376
 1  20.05874998159816  3.18872243414341 -1.11797539093909
 1  21.49747399949995  1.95716236903690 -1.51523288658866
 1  19.80892479687969  1.67541935273527 -1.99118608760876
 1  20.98259423462346  1.51547965706571  2.22348196539654
 1  22.31690339663966  1.92177340704070  0.78019298559856
 1  20.85230496039604  2.92393247654765  1.44080452095209
>>>>>>> 8e03b5b5abfc0030b3aa597dc0de36371bfbd096

