%nproc=4
%Mem=2GB
# td=(NStates=1) CAM-B3LYP/6-31G(d,p) 

TD

0 1
<<<<<<< HEAD
12 -7.03692426542654  0.67030577867787  0.04313200060006
 6 -4.81934655265527 -1.94339551795179  0.48541507420742
 6 -4.81595152405241  2.81537998529853  1.14986135103510
 6 -9.44211894739474  3.18191368686869 -0.47338019771977
 6 -9.55268558225823 -1.69273478447845 -0.91795822492249
 7 -5.07862128672867  0.40479029712971  0.72644306260626
 6 -4.31721142724272 -0.67585740774077  0.83543156635664
 6 -2.90536954235424 -0.33047247294729  1.25381573577358
 6 -2.95195863426343  1.08333100140014  1.56821755245525
 6 -4.34076107100710  1.48406915571557  1.09158618851885
 6 -2.90614569666967  1.24454674277428  3.19471087998800
 6 -1.96353981498150 -0.60078533993399  0.06908086638664
 6 -0.49552697529753 -0.40845519271927  0.49126325562556
 6  0.46602773997400 -0.67245075797580 -0.60471585208521
 8  0.20306154625463 -0.95253066066607 -1.78056438813881
 8  1.69943175367537 -0.49109650605061 -0.11581837073707
 7 -7.10025047294730  2.67886347614761  0.29514821032103
 6 -6.02945222422242  3.38882985878588  0.68962249584958
 6 -6.45142239533953  4.76763105250525  0.82464315151515
 6 -7.70962366936694  4.87877850935094  0.31766015731573
 6 -8.19285355695570  3.54722391769177 -0.00206766046605
 6 -5.58679663636364  5.95489795569557  1.14552931343134
 6 -8.45706350395039  6.01108214191419  0.10289727512751
 6 -8.45452934423442  7.04545066366637  0.97471372117212
 7 -9.05992826542654  0.76688955005501 -0.55019905360536
 6 -9.83696995669567  1.86464641774177 -0.74906123022302
 6 -11.16409550615061  1.43885222432243 -1.11448316781678
 6 -11.22543494739474  0.06908227232723 -1.21584029802980
 6 -9.89018469916992 -0.37020899519952 -0.86297131323132
 6 -12.26229505320532  2.43338390939094 -1.43786056085609
 6 -12.42350689698970 -0.73612102220222 -1.69387019551955
 6 -12.36236372477248 -1.07233964516452 -3.23170828942894
 7 -7.24682415071507 -1.34755436903690 -0.16622129912991
 6 -8.25360560036004 -2.26518169026903 -0.55552050725073
 6 -7.81247739333933 -3.61083935143514 -0.43860113741374
 6 -6.50550443454345 -3.53437777477748  0.04972324042404
 6 -6.09128172457246 -2.17200548184818  0.18316112031203
 6 -8.66572403980398 -4.84623746614661 -0.80645912431243
 6 -5.36357082738274 -4.38332221572157  0.21389426202620
 8 -5.09634847274727 -5.55162964636464  0.26491352205221
 6 -4.14745832523252 -3.36968275807581  0.58632849814982
 6 -3.45537616851685 -3.73173839513951  1.86294666756676
 8 -3.57170877147715 -3.11148788498850  2.95361804290429
 8 -2.80405159885989 -4.77375209760976  1.69011759265927
 6 -2.09693028092809 -5.24955918501850  2.93557849334933
 6  2.76399891159116 -0.72063985858586 -1.15277647804780
 6  4.13431552055205 -0.55690386668667 -0.60354050305031
 6  5.10566405080508  0.28247451285129 -1.00025979867987
 6  5.01810023302330  1.15346799609961 -2.28004216951695
 6  6.41706603940394  0.32623447364736 -0.25794227942794
 6  7.57677521542154 -0.17503785068507 -1.00635758625863
 6  8.89673154575458 -0.25998112851285 -0.10835264806481
 6  10.16676730123012 -0.64440151185119 -0.86984795529553
 6  10.21231793199320 -2.12335327142714 -1.33025649064906
 6  11.43964684158416 -0.30548432923292  0.06464733333333
 6  12.72395730343034 -0.40245429652965 -0.73083310621062
 6  14.04027349574958 -0.06691789458946  0.04973204070407
 6  15.41663778867887 -0.26396012511251 -0.59977821762176
 6  15.68783045194519 -1.84415204900490 -0.64698431613161
 6  16.34205831173117  0.38439279927993  0.40494500170017
 6  17.86439102850285  0.52271366976698 -0.18020383498350
 6  18.73259362886289  1.24471268826883  0.77569800280028
 6  20.23086175537554  1.50149048254825  0.20661542474247
 6  20.08445979977998  2.36598489568957 -1.02769376207621
 6  21.21597252805281  2.05623856015602  1.36865222862286
 1 -4.10727221172117  3.49919544094410  1.42903749064906
 1 -10.24328472117212  4.04095493049305 -0.78092348384839
 1 -10.28848213761376 -2.46440578137814 -1.12410906310631
 1 -2.45485194209421 -0.88290660456046  2.19489018021802
 1 -2.15997960316032  1.67842142474247  1.10951160156016
 1 -1.87024148164816  1.22502295519552  3.69055276877688
 1 -3.13589864986499  2.28118217571757  3.56931909730973
 1 -3.40928437113711  0.69928461246125  3.80310272307231
 1 -2.07509999489949 -1.72700266066607 -0.17741165036504
 1 -2.20128180068007 -0.01007375697570 -0.76518655825583
 1 -0.25740925832583  0.53727834173417  0.80526092519252
 1 -0.21831963396340 -1.07731224642464  1.22412636783678
 1 -5.99702847824783  6.84878352245224  0.76928263746375
 1 -5.65203219261926  6.36007937103710  2.12956925402540
 1 -4.53809776577658  5.65472663906391  0.72957613321332
 1 -9.25381743424342  6.08019416751675 -0.82077230543054
 1 -8.94194541044104  7.98336907580758  0.78278790059006
 1 -7.96997646344634  6.98974537403740  1.85844422992299
 1 -12.06369047414741  2.80916124212421 -2.39929293399340
 1 -13.22160182938294  1.81344523572357 -1.36987817931793
 1 -12.42267399849985  3.00996965166517 -0.51209245324532
 1 -12.51023580198020 -1.61653109820982 -1.10387534243424
 1 -13.38434715361536 -0.32689942674267 -1.30266579407941
 1 -13.18016436903690 -1.46593127932793 -3.41199108360836
 1 -12.32286585078508 -0.20660519811981 -3.49448294399440
 1 -11.39536581588159 -1.66033090019002 -3.82265088508851
 1 -9.39235883888389 -4.99407014991499 -1.77780104420442
 1 -7.94166353115312 -5.63422342654265 -0.62440205320532
 1 -9.30742062696270 -5.04606962826283 -0.02345416801680
 1 -3.46838753465347 -3.43330658135814 -0.13032830433043
 1 -1.28731689818982 -4.63228966866687  3.12188510381038
 1 -2.97746735533553 -5.27209882748275  3.76150898979898
 1 -1.62745085658566 -6.38798807200720  2.60335428832883
 1  2.68930823492349 -1.75145698159816 -1.66523048804880
 1  2.57257473507351  0.18791307090709 -1.96533968616862
 1  4.08923982958296 -1.33341555675568  0.19760297629763
 1  4.08593755725573  1.35276398679868 -2.42004037373737
 1  5.21094650635064  2.18139839873987 -2.10922739093909
 1  5.68851615921592  0.89839094659466 -3.09744847584758
 1  6.39675173807381  1.40051405140514  0.11484412721272
 1  6.19774389378938 -0.24875291269127  0.84718443514351
 1  7.25310269496950 -1.13958319351935 -1.29741106470647
 1  8.07776021192119  0.47574078217822 -1.87673059665967
 1  9.22816486808681  0.75127301230123  0.41125875807581
 1  8.92054054275428 -1.09375488168817  0.77412527622762
 1  10.22385993739374  0.14811734943494 -1.75965085458546
 1  9.07537252275228 -2.19888786528653 -1.73613953875388
 1  11.02320487618762 -2.24882166606661 -1.91362560646065
 1  10.11597448344835 -2.68289023102310 -0.35339477917792
 1  11.22813049394940  0.57133936413641  0.43505499299930
 1  11.50638369176918 -1.10476643794379  0.69419004060406
 1  12.64435775467547 -1.50359852105211 -1.09656732433243
 1  12.62029578207821  0.15154584558456 -1.53145650695070
 1  13.82341377807781  0.98334089008901  0.19162650565057
 1  13.97206996009601 -0.58628823352335  1.02093861036104
 1  15.32556584508451  0.14638412341234 -1.50934529252925
 1  15.54463190609061 -2.14858515061506  0.37644619071907
 1  14.92675572627263 -2.29850222582258 -1.35606302140214
 1  16.63941357075708 -2.19339486438644 -0.96058752825283
 1  15.90878607930793  1.44602243594359  0.68289483378338
 1  16.48562300950095 -0.08683785888589  1.39133189438944
 1  18.20497143584359 -0.44195074247425 -0.40489382978298
 1  17.72489955445545  1.16406372527253 -1.14565814161416
 1  18.31386217881788  2.30460461816182  1.16053405870587
 1  18.84177133743374  0.51626580758076  1.56432643294329
 1  20.42651756445645  0.42466861506151 -0.09855279127913
 1  19.66981108770877  3.30732429432943 -0.68548214161416
 1  20.97391164326433  2.47353400620062 -1.52490385368537
 1  19.39197310171017  2.08302011281128 -1.71571854085409
 1  21.13023899909991  1.47358546764676  2.17642725992599
 1  22.25099680598060  2.17064829452945  1.15117008330833
 1  20.76214594449445  2.99647973127313  1.59283972447245
=======
12 -7.16867744074407  0.58083683178318  0.08176586398640
 6 -4.78893351135113 -1.92643382178218  0.44632116481648
 6 -4.84597452635264  2.78435688298830  1.28687505240524
 6 -9.42008674417442  3.09026452195220 -0.36218907860786
 6 -9.55352566626663 -1.67064257525753 -0.84236066516652
 7 -5.13620704530453  0.36676649474947  0.71103152145215
 6 -4.28202790889089 -0.73563338533853  0.59894791799180
 6 -2.81567057245725 -0.31186061176118  1.10737109130913
 6 -2.98834227262726  1.15826849514952  1.57596832753275
 6 -4.40862785768577  1.47657840664066  1.20435746564656
 6 -2.96487156925693  1.15715800390039  3.16141755065507
 6 -1.78767222822282 -0.58662392379238 -0.06631267296730
 6 -0.39155657825783 -0.40429477667767  0.34368849814981
 6  0.60803194039404 -0.67643115601560 -0.73450883138314
 8  0.34028526862686 -1.15214062166217 -1.84731106280628
 8  1.83857566806681 -0.41562895929593 -0.34130091899190
 7 -7.13337378527853  2.64046963676368  0.30908960446045
 6 -6.03299257825783  3.32762373817382  0.75307884148415
 6 -6.44327158025802  4.76648093749375  0.87086777397740
 6 -7.72076478347835  4.82033266476648  0.36443483478348
 6 -8.13746801840184  3.46641583688369  0.12262480878088
 6 -5.46135409210921  5.91495396129613  1.25980074057406
 6 -8.54008180578058  5.97095812951295  0.14575156055606
 6 -8.38278216951695  7.09064518311831  0.72786903670367
 7 -9.18457072967297  0.64019688078808 -0.51292532623262
 6 -9.85576183588359  1.77780773387339 -0.70385670977098
 6 -11.18756785338534  1.51761010011001 -1.06936865636564
 6 -11.30491289518952  0.06664202830283 -1.12911162516252
 6 -9.94889056975697 -0.29679165346535 -0.87207222332233
 6 -12.27979680338034  2.40339091009101 -1.33650042484248
 6 -12.38629317561756 -0.80198760886089 -1.64587539603960
 6 -12.32785027342734 -1.21713412461246 -3.20104522312231
 7 -7.26527599589959 -1.37260687428743 -0.22830750775078
 6 -8.27587782758276 -2.20676584868487 -0.49238419361936
 6 -7.86535268086809 -3.58258652615262 -0.53175045234523
 6 -6.54158804290429 -3.53133747074707 -0.08557028892889
 6 -6.13433603000300 -2.12713099439944 -0.05706290209021
 6 -8.58222568996900 -4.82107494989499 -0.81593007140714
 6 -5.30830530083008 -4.28921280478048  0.21577445004500
 8 -5.18490732863286 -5.50379486288629  0.22507953865387
 6 -4.19196277567757 -3.40179596939694  0.48029789508951
 6 -3.63736436733673 -3.67234245554555  1.97286765966597
 8 -4.01049264986499 -3.06678341454145  2.94203688478848
 8 -2.80751194489449 -4.69889461186119  1.97675625652565
 6 -2.23311389928993 -5.08926315541554  3.20431536703670
 6  2.87909042074207 -0.61702949754975 -1.27657885828583
 6  4.20762285128513 -0.36136431273127 -0.60861101010101
 6  5.14270775517552  0.38091435683568 -1.00148992169217
 6  5.17039546254625  1.20996364566457 -2.14364853015302
 6  6.51892622542254  0.45870772097210 -0.21673815901590
 6  7.68218575647565 -0.03949429632963 -1.07735468596860
 6  8.98585045764576 -0.14404953535354 -0.20681249404940
 6  10.23633425792579 -0.59995706740674 -0.91968293879388
 6  10.13252995319532 -2.11148208430843 -1.29145261026103
 6  11.43365624252425 -0.36658043884388 -0.02668179957996
 6  12.79462437013701 -0.58751280238024 -0.53966398929893
 6  13.97216668506851 -0.14778598139814  0.29573664116412
 6  15.29837596249625 -0.23349707880788 -0.50972921272127
 6  15.62624429332933 -1.55956359015902 -0.93204282198220
 6  16.33325743164317  0.45277963796380  0.53132763996400
 6  17.73638822822282  0.61964336273627 -0.18192400700070
 6  18.79733010251025  1.19275749274927  0.76817725072507
 6  20.22200086928693  1.35212554605461  0.24068883208321
 6  20.30333168696870  2.13373167036704 -0.99099009170917
 6  21.06416734753476  2.01645458175818  1.31861722512251
 1 -4.29582106660666  3.49503502490249  1.71048563546355
 1 -10.17447784048405  3.87691852685268 -0.40444583608361
 1 -10.27583087248725 -2.32321166196620 -1.11960861306131
 1 -2.77438389528953 -1.10391870577058  1.81940263146315
 1 -2.21100470567057  1.69046262886289  1.10837148754876
 1 -1.96239069656966  0.79149960286029  3.38359207270727
 1 -3.41490655065507  2.21168522602260  3.49291145654565
 1 -3.64279772247225  0.50272495649565  3.36269868266827
 1 -1.70706319121912 -1.71527148754875 -0.33087699689969
 1 -1.86471814431443  0.11191844224422 -0.98180822042204
 1 -0.41908542594259  0.74850946484648  0.78525892499250
 1 -0.09639744174417 -0.87841235643564  1.20699465466547
 1 -5.68560733613361  6.74476312041204  0.68286399559956
 1 -5.51819880928093  5.98684204730473  2.39986628372837
 1 -4.34921887788779  5.70879204560456  1.11454463006301
 1 -9.27470952345235  5.79350549864987 -0.50554078227823
 1 -9.05472668856886  7.90495123402340  0.28612823462346
 1 -7.60441990779078  7.37861426092609  1.52128051355135
 1 -12.27994209930993  2.92673299929993 -2.22605561026103
 1 -13.27867753695369  2.01352524372437 -1.35457664916492
 1 -12.42304403550355  3.16201485618562 -0.38332957695770
 1 -12.38443322172217 -1.71093053815382 -1.04613956885689
 1 -13.31539025792579 -0.32291902870287 -1.43628915641564
 1 -12.83358971157116 -2.19111379757976 -3.40433031753175
 1 -12.41943550775077 -0.42258679627963 -3.93181667736774
 1 -11.29861614091409 -1.62036690379038 -3.45609422942294
 1 -9.26378598159816 -4.69588033093309 -1.61691495559556
 1 -7.90517988278828 -5.59171917611761 -0.92048166116612
 1 -9.26376626152615 -5.15719074037404  0.15015319271927
 1 -3.24303499939994 -3.82878612931293 -0.14511978347835
 1 -1.59145731223122 -4.40871731143114  3.70337325262526
 1 -2.97261687028703 -5.30785240284028  3.87313015191519
 1 -1.77376548804880 -6.10643991719172  2.78063201610161
 1  2.58520782488249 -1.63475531143114 -1.65405937093709
 1  2.62886036363636  0.20891517111711 -2.07797094929493
 1  4.28144905050505 -1.11942415761576  0.11002421842184
 1  4.07165612911291  1.49298800920092 -2.71795016471647
 1  5.74283969566957  2.20070032893289 -2.08359482768277
 1  5.62883019061906  0.63982509000900 -2.96104483548355
 1  6.77448951185118  1.35156915691569  0.34069671247125
 1  6.43778789818982 -0.01867990539054  0.65752546924692
 1  7.55623300800080 -1.17680691589159 -1.51712303590359
 1  7.75468790469047  0.56502971107111 -1.97815073867387
 1  9.13223527512751  0.90231811681168  0.18407603980398
 1  8.84756324502450 -0.83522902910291  0.77868573227323
 1  10.59263681508151  0.22017455515552 -1.97972286178618
 1  9.36235122062206 -2.21822979947995 -2.19562548734873
 1  11.03222577827783 -2.65634241814181 -1.60467471137114
 1  9.66218910491049 -2.63098504050405 -0.44811425112511
 1  11.36269395029503  0.55948817901790  0.52020350785079
 1  11.42903595699570 -1.00117607890789  0.96652727432743
 1  13.03017633653365 -1.81668983018302 -0.63160082768277
 1  12.77912166466647 -0.09166847584758 -1.54756811811181
 1  13.89525096179618  1.15737829382938  0.33701104410441
 1  13.93132588568857 -0.53651325602560  1.24796131263126
 1  15.30583387188719  0.21448093309331 -1.40362472047205
 1  15.99220666356636 -2.15432572467247  0.03117166326633
 1  14.79411246194620 -2.20117249284928 -1.39847726282628
 1  16.67585721512151 -1.86830235513551 -1.71793326282628
 1  16.02258745944594  1.33062089578958  0.63064960926093
 1  16.42315676287629 -0.07957713281328  1.44117687888789
 1  18.00174111281128 -0.38996554395440 -0.83736707710771
 1  17.43558062256226  1.10550786968697 -1.00298387418742
 1  18.30412120472047  2.09090324802480  1.08840684598460
 1  18.76965412571257  0.67770195119512  1.51405140544054
 1  20.53241815451545  0.33042919111911  0.14839190319032
 1  19.93401750835083  3.13089665156516 -0.89075266866687
 1  21.29384363646365  2.43341999479948 -1.40085144844484
 1  19.79978388278828  1.88732054285429 -1.92705967496750
 1  21.10491646684669  1.45582369146915  2.19795941314131
 1  22.01469317561756  2.14581581128113  0.88089305560556
 1  20.67276700660066  3.02484256755676  1.35529597009701
>>>>>>> 8e03b5b5abfc0030b3aa597dc0de36371bfbd096

