%nproc=4
%Mem=3GB
# td=(NStates=1) iop(3/107=0140000000,3/108=0140000000) CAM-B3LYP/6-31G(d,p) 

TD

0 1
12 -7.14882957465747  0.58411679517952  0.01309767976798
 6 -4.89885870237024 -1.96711394199420  0.56494189658966
 6 -4.76749277987799  2.80208892679268  1.16119622482248
 6 -9.43147991249125  3.13370092309231 -0.46206868216822
 6 -9.57180327832783 -1.65407717341734 -0.88472527742774
 7 -5.18394542574257  0.41632772337234  0.68930675467547
 6 -4.38450069736974 -0.75282642584258  0.83739163386339
 6 -2.86583280388039 -0.36072447044704  1.19739540864086
 6 -3.00058328522852  1.05939464106411  1.70105638493849
 6 -4.45770600530053  1.50931558265827  1.12954734863486
 6 -2.95608178897890  1.11817463676368  3.23324863946395
 6 -1.93548927862786 -0.37718370757076 -0.00994718441844
 6 -0.46662237143714 -0.32527577557756  0.47344072637264
 6  0.51126304950495 -0.74021064296430 -0.52425221532153
 8  0.26743696049605 -1.16461023872387 -1.69609700280028
 8  1.74493309170917 -0.53801373977398 -0.25547093469347
 7 -7.12475011841184  2.59965317521752  0.34999592369237
 6 -6.08009815361536  3.37213098049805  0.81766764286429
 6 -6.41233614201420  4.68993585718572  0.77046530523052
 6 -7.75499028432843  4.85250705590559  0.41443757015702
 6 -8.13106263376338  3.46565350415041 -0.05728773017302
 6 -5.62848488238824  5.90008948264826  1.23063321852185
 6 -8.59585959395940  6.03859412901290  0.16568718121812
 6 -8.35808421842184  7.21143029272927  0.79407346664666
 7 -9.07025606670667  0.74202119651965 -0.58449502340234
 6 -9.93659114541454  1.81079440374037 -0.67290010351035
 6 -11.26192014471447  1.50192963746375 -1.13186804650465
 6 -11.24404389158916  0.13488103390339 -1.25609563786379
 6 -9.96878448204821 -0.29409960336034 -0.88640084138414
 6 -12.27584852255226  2.57069231063106 -1.26763621632163
 6 -12.39636342924292 -0.82927905170517 -1.67278660926093
 6 -12.21457336623662 -1.26735692799280 -3.22027267846785
 7 -7.24523748614861 -1.37875271097110 -0.16772944804480
 6 -8.36339066536654 -2.19880842634263 -0.43599517941794
 6 -7.85878791859186 -3.54508505990599 -0.68828912871287
 6 -6.48388617911791 -3.55923890599060 -0.31343342504250
 6 -6.19162289398940 -2.17466542234223 -0.00282844744474
 6 -8.63321566106611 -4.70335643404340 -1.12056543964396
 6 -5.35551101400140 -4.38606216961696  0.29899487358736
 8 -5.16672766506651 -5.54740159715972  0.35175112371237
 6 -4.14225872847285 -3.38551599899990  0.61663998559856
 6 -3.61824600140014 -3.62826076877688  1.90527649614961
 8 -3.69426220962096 -3.10862822072207  2.99812317051705
 8 -2.76507185998600 -4.69719833833383  1.77352639013901
 6 -2.13574253125313 -5.21790699659966  2.98894629502950
 6  2.84802112251225 -0.82480076897690 -1.20638415561556
 6  4.09393027822782 -0.55423069096910 -0.51369393219322
 6  5.03811930323032  0.29762629062906 -0.91799467646765
 6  4.99141286688669  1.13263093839384 -2.22568670367037
 6  6.37461374007401  0.37843845984598 -0.18434895929593
 6  7.63057451005100  0.00744219621962 -0.96918724742474
 6  8.90864857645765  0.02873105700570 -0.17533363576358
 6  10.18633409400940 -0.49348101130113 -0.91259697969797
 6  10.17162043864387 -1.97017489738974 -1.25205217121712
 6  11.44522918671867 -0.18689358045805 -0.06768473097310
 6  12.80787852335234 -0.45325535903590 -0.78374587968797
 6  14.02326359815982 -0.11945766006601  0.16364277587759
 6  15.41929792079208 -0.28511759535954 -0.40721637413741
 6  15.71681795279528 -1.67513590189019 -0.86820864716472
 6  16.44801179387939  0.36347286458646  0.55204993969397
 6  17.85093268096810  0.60474420402040 -0.19651617861786
 6  18.97481790039004  1.13634171267127  0.86881013771377
 6  20.33002580698070  1.33106253875388  0.21676838283828
 6  20.33410625642564  2.04908221332133 -1.19368406430643
 6  21.25947101410141  1.87783948384838  1.27955189518952
 1 -4.10132049554955  3.78992224362436  1.35663175897590
 1 -9.97761988528853  4.18447072157216 -0.64217874407441
 1 -10.44673909800980 -2.28991452655266 -1.16227404680468
 1 -2.55763305050505 -1.00055025772577  1.99356584728473
 1 -2.28357182348235  1.58736079717972  1.14071772077208
 1 -1.97470055645565  0.67767687408741  3.69791012841284
 1 -3.10586769586959  2.03725294809481  3.67948597079708
 1 -3.86475927642764  0.52263741804180  3.68693037823782
 1 -2.25388050705071 -1.45081575237524 -0.45400340744074
 1 -1.94106047504750  0.41372899269927 -0.74736147074707
 1 -0.16859228792879  0.68033762106211  0.67523138613861
 1 -0.25432385268527 -0.87544831143114  1.14091755005501
 1 -5.97046122382238  6.97907541954195  0.80428025932593
 1 -5.51187265856586  6.06394927632763  2.36312832533253
 1 -4.60709555415542  5.74519878787879  0.81034176677668
 1 -9.18028828862886  6.03405678767877 -0.67477883058306
 1 -8.89827889158916  8.01917163816382  0.65983575927593
 1 -7.56339427152715  7.20592742914291  1.70537949824982
 1 -12.05070554355436  3.15220436753675 -2.28236406790679
 1 -13.27402470017002  2.33099184158416 -1.24469019721972
 1 -12.12301333403340  3.17119445354535 -0.29788022752275
 1 -12.16754871977198 -1.61432235503550 -0.85407890879088
 1 -13.32123442254226 -0.62526523702370 -1.41194694909491
 1 -13.12858805800580 -1.73183684578458 -3.49687064516452
 1 -12.17089749544954 -0.31214968626863 -3.89239821822182
 1 -11.32441728112811 -1.88044907210721 -3.33821209940994
 1 -9.02058667726773 -4.47976447724772 -2.08849491249125
 1 -8.09912429762976 -5.50281623492349 -1.13010296539654
 1 -9.41344552355236 -4.65833428182818 -0.35963823252325
 1 -3.50955847434744 -3.73313991959196 -0.16660439853985
 1 -1.54127751535154 -4.41947416081608  3.58382009960996
 1 -2.93714015131513 -5.63342286718672  3.55221625932593
 1 -1.24486500700070 -6.04823560836084  2.71295465656566
 1  2.82342039683968 -1.87339396219622 -1.38549999869987
 1  2.65441188248825 -0.20311222642264 -2.20524158165817
 1  4.07238772547255 -1.11184959875988  0.32330373057306
 1  4.10196550805080  1.08828437113711 -2.70002048774877
 1  5.04474140634063  2.18278870277028 -1.96014345274528
 1  5.91670123862386  0.66357754865487 -3.09139539643964
 1  6.30345852975298  1.32404238483848  0.20157977187719
 1  6.34328220032003 -0.25482281898190  0.79388558405841
 1  7.19989211201120 -1.02989366236624 -1.54265902310231
 1  7.53217577607761  0.65265436843684 -1.85539636253625
 1  9.26603264756476  1.16624612211221  0.21439386748675
 1  8.76086920772077 -0.75924427712771  0.58763488688869
 1  10.23372800460046  0.26460260806081 -1.77403256125613
 1  9.27309691879188 -2.35086336983698 -1.95656403830383
 1  11.16796593719372 -2.27580097939794 -1.95532089018902
 1  10.30064226132613 -2.73968808350835 -0.41376877057706
 1  11.42619426102610  0.87521395479548  0.09203697449745
 1  11.40711830733073 -0.69793109070907  0.84681100120012
 1  13.07866581908191 -1.37630504980498 -1.07275954745475
 1  12.80761659155915  0.37167210321032 -1.47479181288129
 1  13.85990741104110  0.91518688198820  0.59003383208321
 1  13.90969928052805 -0.51129750865086  1.24336671067107
 1  15.28335873727373  0.31283468046805 -1.35389665846585
 1  15.95697949474948 -2.41725106630663  0.09254111861186
 1  15.05874751915191 -2.03063758375838 -1.52905427892789
 1  16.74729300890089 -1.56993789078908 -1.34877139043904
 1  15.97609088258826  1.34479281298130  0.83868978527853
 1  16.57198127592759 -0.14037032183218  1.33623211791179
 1  18.27063380108011 -0.33353986798680 -0.51622181778178
 1  17.67348465806581  1.25718461256126 -1.14597034063406
 1  18.39918897579758  2.06320758875888  1.17353930073007
 1  18.97047300980098  0.57687252675267  1.83547679317932
 1  20.53713354565457  0.32687368496850 -0.17220132793279
 1  19.83350016851685  3.04941571807181 -1.17130931563156
 1  21.25457925872587  2.28662980508051 -1.49346732793279
 1  19.72197059465947  1.34804509470947 -1.90907929232923
 1  21.14507836133613  1.07935357625763  2.04673834263426
 1  22.47923581638164  2.02664313501350  1.09100575417542
 1  20.88568864736474  2.85114123132313  1.46522365906591

