%nproc=4
%Mem=3GB
# td=(NStates=1) iop(3/107=0140000000,3/108=0140000000) CAM-B3LYP/6-31G(d,p) 

TD

0 1
12 -7.06775146684668  0.64857324082408  0.08154452445245
 6 -4.93807262376238 -1.92293952455246  0.58893429582958
 6 -4.74425045564556  2.88624734263426  1.11327143234323
 6 -9.41072783728373  3.26378393139314 -0.38436091139114
 6 -9.53968006600660 -1.67726949264927 -0.92848965386539
 7 -5.10959799099910  0.48390448104810  0.63182100610061
 6 -4.37596984428443 -0.69871101430143  0.74298219291929
 6 -2.95293151375138 -0.36401479947995  1.17278294739474
 6 -3.02853608050805  1.10689939153915  1.67734401370137
 6 -4.28449868456846  1.54861951305131  1.10150454435444
 6 -3.04272045284528  1.01742456175618  3.28009332393239
 6 -1.88730446014601 -0.65410139933993  0.01645545584558
 6 -0.40538624782478 -0.39243249124912  0.40606398869887
 6  0.50585250845085 -0.61837845974597 -0.72032182228223
 8  0.28966918371837 -1.13257703540354 -1.83366075917592
 8  1.81593019141914 -0.45585552395240 -0.33847923552355
 7 -7.01619926332633  2.61803501340134  0.28136906100610
 6 -5.95509565336534  3.34993876127613  0.75714159025903
 6 -6.27879278767877  4.74291115471547  0.75320357905791
 6 -7.65146993229323  4.83705551075108  0.34223034943494
 6 -8.07085661316132  3.50639757855786 -0.01379338073807
 6 -5.46292832673267  5.86557603130313  1.26578673387339
 6 -8.41104111211121  6.05702597219722  0.14266487898790
 6 -8.30325873587359  7.17854700440044  0.84384844414441
 7 -9.02701174227423  0.77032402680268 -0.57507408130813
 6 -9.79594708100810  1.90881420572057 -0.63382619611961
 6 -11.15768972167217  1.53885332983298 -1.18434329402940
 6 -11.20731021822182  0.17718526432643 -1.14839486778678
 6 -9.88045564916492 -0.24066425982598 -0.85085728702870
 6 -12.29171010871087  2.47683292469247 -1.45885533823382
 6 -12.45147894079408 -0.79897602140214 -1.59367869846985
 6 -12.27212912181218 -1.20460065236524 -3.09340999219922
 7 -7.20514347674767 -1.38861369706971 -0.19897257235724
 6 -8.26809113541354 -2.17577612311231 -0.50637221712171
 6 -7.88139017881788 -3.57626817821782 -0.42941324112411
 6 -6.49473726422642 -3.54232721482148 -0.04459654135414
 6 -6.20951468316832 -2.14866282208221  0.12376421182118
 6 -8.63879621912191 -4.78564466286629 -0.75182856595660
 6 -5.33233869676968 -4.41373493689369  0.25310028412841
 8 -5.20937192949295 -5.62987984498450  0.13109905850585
 6 -4.22448695129513 -3.34230167756776  0.53914223582358
 6 -3.60663484028403 -3.78977692039204  1.92600856935694
 8 -3.75846863026303 -3.15547290519052  2.94318767696770
 8 -2.77593294609461 -4.81414003250325  1.72975201270127
 6 -2.31728068506851 -5.34248945484548  3.05805320572057
 6  2.84580090049005 -0.88775706460646 -1.17001051825183
 6  4.11361224642464 -0.54304957285729 -0.56933949674967
 6  5.09387487878788  0.23599012701270 -1.01283416041604
 6  4.95468919451945  1.13726140144014 -2.12663679867987
 6  6.41944822352235  0.44749536553655 -0.24884540894089
 6  7.62292374497450 -0.18244679267927 -1.01677200590059
 6  8.92127983958396 -0.06460827692769 -0.16408251065107
 6  10.16924238483848 -0.59194085728573 -0.92571829182918
 6  10.08765204180418 -2.06572445234523 -1.33385035103510
 6  11.35578024182418 -0.22655754685469 -0.09303726622662
 6  12.72865060056006 -0.47615764926493 -0.64382188728873
 6  13.89598086988699 -0.04418013231323  0.33000941254125
 6  15.27699369036904 -0.16932601620162 -0.49657531003100
 6  15.60829710071007 -1.57823621192119 -0.94655648194819
 6  16.38573556625663  0.58485500280028  0.39303403810381
 6  17.80632822052205  0.51046477607761 -0.18208473547355
 6  18.78210862946294  1.20301838033803  0.76234949164917
 6  20.18135093949395  1.35677511001100  0.26275298129813
 6  20.25518836463646  2.33266057115712 -0.92505720162016
 6  21.01499656665667  1.86261796169617  1.38490243024302
 1 -3.91447181068107  3.58930218161816  1.52347844364436
 1 -10.23673579687969  3.93836611111111 -0.60876540274027
 1 -10.17205162926293 -2.35674120922092 -1.15572339173917
 1 -2.70143743094309 -0.90637083978398  2.18208469916992
 1 -2.22199566586659  1.92204426552655  1.16486013501350
 1 -2.00825391179118  1.00415952235224  3.64090442784278
 1 -3.59747685678568  1.83449267206721  3.84513253545355
 1 -3.68465126562656  0.29086424072407  3.58848053325332
 1 -1.85531065006501 -1.56363703450345 -0.48439644674467
 1 -2.10177654665467 -0.09013139333933 -0.87504423902390
 1 -0.24531996069607  0.55753534083408  1.02987685068507
 1 -0.15604402470247 -1.24220498709871  1.16592005030503
 1 -5.76281045874588  6.78575608760876  0.65580541184118
 1 -5.60521199249925  6.31938481988199  2.25661767426743
 1 -4.39119396399640  5.78631289928993  1.39141987458746
 1 -9.20014027382738  6.21108449044904 -0.73170452315232
 1 -9.06370543424342  7.89785950695069  0.33583335903590
 1 -7.51737967006701  7.52091892829283  1.61319027932793
 1 -11.91849232223222  3.15843499059906 -2.12165799729973
 1 -13.18613591129113  2.07665640804080 -1.96281200940094
 1 -12.74912594529453  3.05236257035704 -0.52595303480348
 1 -12.24877684258426 -1.58388931173117 -0.92309581048105
 1 -13.43461576067607 -0.32369508000800 -1.61616737113711
 1 -13.18549374857486 -1.70420408250825 -3.37364832293229
 1 -12.26448685438544 -0.37280575187519 -3.83382236063606
 1 -11.53110795019502 -1.93217424462446 -3.35011328952895
 1 -9.11347596619662 -4.57171367216722 -1.74927099009901
 1 -7.98386277147715 -5.72685863916392 -0.73007296239624
 1 -9.63288746774677 -4.81565001340134 -0.04551682038204
 1 -3.50501802030203 -3.73065967156716 -0.17416515461546
 1 -1.52331571917192 -4.70566277967797  3.38630034763476
 1 -3.19723616091609 -5.51393091799180  3.63514455215522
 1 -1.81910243074307 -6.47395818061806  2.91168452955296
 1  2.88007606240624 -2.14489111191119 -1.31610305900590
 1  2.78620506180618 -0.31326324152415 -2.05854691219122
 1  4.28789927662766 -1.13041145494549  0.23278467866787
 1  4.02122743424342  1.28462400510051 -2.67292777847785
 1  5.29231616381638  2.20767119101910 -2.01872931133113
 1  5.60810037853785  0.73212440334033 -3.15329158605861
 1  6.49931811571157  1.49346932753275  0.19411902580258
 1  6.47115498759876 -0.15270260696070  0.78680487598760
 1  7.56486860966096 -1.31837251025103 -1.19047380458046
 1  7.73254581308131  0.32287139013901 -2.07663848674868
 1  8.90606665096510  1.01013051055106  0.30480290839084
 1  9.03146626742674 -0.71472982568257  0.74736085948595
 1  10.38931356315632  0.13751989978998 -1.80731588958896
 1  9.30578018711871 -2.17274555805581 -1.90447882978298
 1  11.01715085568557 -2.20116351565156 -2.05071042914291
 1  10.14915711281128 -3.02857697239724 -0.55038243194319
 1  11.34281592319232  0.76763319671967  0.17913568436844
 1  11.25190278577858 -0.75615691329133  0.95732205230523
 1  12.95720367286729 -1.45749316861686 -0.93192546404640
 1  12.94036986688669  0.00974591059106 -1.62896723042304
 1  13.82121354165417  1.06115147844784  0.47520234893489
 1  14.05079338993899 -0.60747712661266  1.24402677667767
 1  15.12248264966497  0.24759815681568 -1.39886115491549
 1  15.89613341014101 -2.27014635583558 -0.03119125462546
 1  14.64283592799280 -1.98734325432543 -1.35683705720572
 1  16.54864314391439 -1.50236113311331 -1.67647416071607
 1  16.18873214671467  1.50298863256326  0.64365028132813
 1  16.25968004580458 -0.21078736353635  1.08124661936194
 1  18.20205694339434 -0.62105861986199 -0.32609280488049
 1  17.85940324992499  0.89956885098510 -1.22597834143414
 1  18.53198225512551  2.37518878687869  0.96623857065707
 1  19.00604656715672  0.47253209270927  1.64178742424242
 1  20.60911074337434  0.33771476907691 -0.19882399019902
 1  19.72971979047905  3.18570934743474 -0.73351553625363
 1  21.12957675847585  2.38962010411041 -1.50580856205620
 1  19.81921031863186  1.85576586678668 -1.70408879327933
 1  20.98489234273427  1.38023366426643  2.27319098789879
 1  22.15664355715571  2.09426989768977  1.24647130073007
 1  20.55597567606761  2.92224834203420  1.77827496419642

