%nproc=4
%Mem=2GB
# td=(NStates=1) CAM-B3LYP/6-31G(d,p) 

TD

0 1
12 -7.11879245224522  0.61504025212521  0.11140882828283
 6 -4.80451506950695 -1.97207838623862  0.53577010971097
 6 -4.77103703260326  2.81515996329633  1.10821718661866
 6 -9.39057379287929  3.08874436993699 -0.38801166086609
 6 -9.54643495719572 -1.79343485448545 -0.70367679677968
 7 -5.08124154875488  0.52968278637864  0.60952137043704
 6 -4.35657536363636 -0.72756257825783  0.73735175837584
 6 -2.90159916531653 -0.41770119581958  1.20905125932593
 6 -3.04259769816982  1.13533620192019  1.62299303000300
 6 -4.39595659055905  1.58408915771577  1.08032506240624
 6 -3.10723580568057  1.29507179527953  3.24364577347735
 6 -1.98443190419042 -0.49154441584158 -0.01342738443844
 6 -0.53621104370437 -0.53888823602360  0.41996612591259
 6  0.50340147734773 -0.57386089898990 -0.76888226872687
 8  0.19793103320332 -0.81701710931093 -1.89698603030303
 8  1.78023983448345 -0.42650004640464 -0.20152694159416
 7 -7.09977042494249  2.59489507930793  0.25224391989199
 6 -6.02698197719772  3.40850182598260  0.70447398099810
 6 -6.43998125122512  4.70520480988099  0.70407109430943
 6 -7.75783849084908  4.78091872337234  0.34717310861086
 6 -8.07571184278428  3.52569176447645  0.04356690299030
 6 -5.51112906960696  5.91966443234323  1.09707446794679
 6 -8.53248104570457  5.94301533523352  0.09300628602860
 6 -8.42800669196920  7.08454457305731  0.75120136993699
 7 -9.05397767036704  0.59204206530653 -0.52439647334733
 6 -9.82606886658666  1.76527648074807 -0.64237056115612
 6 -11.12377147374737  1.41403974307431 -1.04568628812881
 6 -11.26256866076608  0.02339770387039 -0.99231794579458
 6 -9.89963564426443 -0.45243721802180 -0.75923093919392
 6 -12.29324814851485  2.41616218721872 -1.42142891769177
 6 -12.40077462376238 -0.81890930103010 -1.54856566506651
 6 -12.26313380178018 -1.20522293349335 -3.09661478007801
 7 -7.27120658895890 -1.46313592719272 -0.00060473747375
 6 -8.18887912771277 -2.25723089518952 -0.41919687488749
 6 -7.78881502710271 -3.65143341084108 -0.54894217151715
 6 -6.40536442054206 -3.46361069806981 -0.06250798269827
 6 -6.12933552995300 -2.18444672597260  0.23717652185219
 6 -8.49626709410941 -4.82192503490349 -0.87872635103510
 6 -5.28846331663166 -4.36639052255225  0.25759863246325
 8 -5.17559639753975 -5.59514399779978  0.16285331603160
 6 -4.05470905030503 -3.37498328812881  0.61958182348235
 6 -3.47169780068007 -3.62836805810581  1.84854522742274
 8 -3.70711231183118 -3.06815355155516  2.89312199329933
 8 -2.63127432113211 -4.67041176357636  1.68219680058006
 6 -2.00171075897590 -5.11532576167617  2.94219915541554
 6  2.73366587828783 -0.48255605020502 -1.27173837423742
 6  4.09088117711771 -0.48601677797780 -0.64156430543054
 6  5.07298078247825  0.42808907430743 -1.00563033573357
 6  5.12636105910591  1.18662131143114 -2.32687685298530
 6  6.30670500330033  0.50519236943694 -0.26637312251225
 6  7.58702624052405  0.00537019011901 -1.08454540504050
 6  8.91925379797980  0.11417628722872 -0.21468328112811
 6  10.20175079957996 -0.44730180188019 -0.91412238273827
 6  10.08191489168917 -1.90591152725272 -1.28543200820082
 6  11.37134001090109 -0.20720450125012  0.02898376697670
 6  12.74477938563856 -0.41117516861686 -0.65596561946195
 6  13.91661112951295 -0.11225242804280  0.33180024752475
 6  15.25860198509851 -0.23993772287229 -0.42254049384938
 6  15.50512218111811 -1.69324695849585 -0.86307592529253
 6  16.43657776367637  0.19875423542354  0.41293580078008
 6  17.76182077147715  0.49094049244924 -0.15794160876088
 6  18.69621999149915  1.14882309930993  0.77104753775378
 6  20.19717838703870  1.20312064556456  0.30724548774877
 6  20.32877423122312  1.92960125732573 -0.99865085778578
 6  21.17630856165617  1.79370230653065  1.41350671407141
 1 -4.08016950145015  3.63270879227923  1.50970555745574
 1 -10.22680307300730  3.89086992199220 -0.59500489198920
 1 -10.26215950535054 -2.58842818361836 -0.86828348054805
 1 -2.62278873577358 -1.28101641554155  1.78699939113911
 1 -2.24482808800880  1.75314889748975  1.24915556595660
 1 -2.11118557605761  0.87825827872787  3.46792050555055
 1 -3.45344040404040  2.25930998849885  3.67323948934893
 1 -3.68084152685269  0.60017470147015  3.71871428422842
 1 -2.55001748664866 -1.26711667206721 -0.72263617281728
 1 -2.11977364986499  0.35948319871987 -0.71346138573857
 1 -0.06665018241824  0.31619623352335  0.97727812691269
 1 -0.27993579557956 -1.34159867506751  1.05548950415041
 1 -5.58885766116612  6.83349199329933  0.44220993019302
 1 -5.84069105850585  6.24063742684268  2.27863416051605
 1 -4.56120007600760  5.49304047044704  0.92823599919992
 1 -9.28910096259626  6.01519766786679 -0.72277250545055
 1 -8.99940115601560  8.04970570947095  0.54165378717872
 1 -7.79837930373037  7.36984338383838  1.62716110161016
 1 -12.12203630873087  2.94884521052105 -2.42462546724672
 1 -13.27533720292029  1.85424931613161 -1.60686187768777
 1 -12.07895962706271  3.03364201890189 -0.53550479447945
 1 -12.38430320872087 -1.73719316441644 -1.05058001290129
 1 -13.26111483038304 -0.27817455425543 -1.26112163966397
 1 -13.01333768636864 -1.66151083728373 -3.53376326082608
 1 -12.14789835403541 -0.35126966456646 -3.74089758545855
 1 -11.36687296659666 -1.88131299839984 -3.34324294429443
 1 -8.87389699269927 -4.76037678057806 -2.01189445354535
 1 -7.99623898869887 -5.64429443364336 -0.74052366536654
 1 -9.48982886778678 -4.94057907920792 -0.21877369997000
 1 -3.15922661856186 -3.52416566726673 -0.25655092659266
 1 -1.68413658015802 -4.24815125482548  3.58319123442344
 1 -2.64122373097310 -5.64267588518852  3.53973681258126
 1 -1.13296140764076 -5.77565683888389  2.50211416431643
 1  2.71239054315432 -1.44376621252125 -1.92652661766177
 1  2.54824230183018  0.35656993659366 -2.12855600780078
 1  4.19007991359136 -1.00480269546955  0.41749496549655
 1  4.10503946744674  1.44241295169517 -2.74337270697070
 1  5.22181759345935  2.30798105700570 -2.11987845604560
 1  5.92576988458846  0.83649475697570 -3.06634536553655
 1  6.54575663856386  1.58296229622962  0.06443908670867
 1  6.16067018641864  0.07102906550655  0.73539325602560
 1  7.41139852455245 -0.99619885508551 -1.40918224182418
 1  7.43860629652965  0.86641985008501 -1.75552847644764
 1  9.06431848344834  1.12528041304130  0.37945557775778
 1  8.72920140884088 -0.38288379457946  0.73786164986499
 1  10.21603915531553  0.08780131783178 -2.10887577707771
 1  9.28199318481848 -2.01413939043904 -1.79820574537454
 1  11.16612916861686 -2.10644742864286 -1.83174741864186
 1  9.93487637363737 -2.51959390139014 -0.37073651335134
 1  11.13690137103710  0.71978420862086  0.49628111561156
 1  11.23291634503450 -0.88410437173717  0.97355797739774
 1  12.81603492239224 -1.31786994819482 -1.16368403600360
 1  12.88808256075608  0.31890258125813 -1.31231459275928
 1  13.61619305600560  0.92847540354035  0.61182852585259
 1  13.86514926802680 -0.70731033573357  1.17835435193519
 1  15.31349463796380  0.50399988498850 -1.11657601560156
 1  15.59327677057706 -2.35967625972597  0.04844339043904
 1  14.94185723642364 -1.94246662226223 -1.66916433153315
 1  16.46046567596760 -1.95929145404540 -1.28802027152715
 1  16.17164236493649  1.20806864056406  1.00261680598060
 1  16.56558100530053 -0.54510368546855  1.29238199939994
 1  18.35753669236924 -0.29002554995500 -0.49196253665367
 1  17.48505557005701  1.02103942284228 -1.12112568836884
 1  18.42769356195620  2.26322047974797  0.79602760806081
 1  18.78341550185019  0.72735691669167  1.69215921622162
 1  20.54679959265927  0.07342349054906  0.21542860686069
 1  20.13700780738074  2.87648121002100 -0.81255484888489
 1  21.42156640874088  1.92904955775578 -1.23074443774377
 1  19.75490939533953  1.51945375617562 -1.73130009900990
 1  20.95089106430643  1.30162827192719  2.39317893509351
 1  22.23112481878188  1.59277050675067  1.21670663696370
 1  20.71206093599360  2.81189127242724  1.46534697519752

