%nproc=4
%Mem=2GB
# td=(NStates=1) CAM-B3LYP/6-31G(d,p) 

TD

0 1
12 -7.12155272827283  0.56376512461246  0.02529021642164
 6 -4.79033365136514 -1.93856503490349  0.51572810551055
 6 -4.87408733763376  2.82269071637164  1.17899426432643
 6 -9.41247598309831  3.15494098959896 -0.45226808650865
 6 -9.41287160086009 -1.70842635363536 -0.90591702080208
 7 -5.07714113871387  0.41818163626363  0.71544196249625
 6 -4.29819952605261 -0.64728455045505  0.82801082428243
 6 -2.87254626002600 -0.35077450315031  1.25533588778878
 6 -3.00308374677468  1.21336400470047  1.69961069176918
 6 -4.40398739363936  1.52924367316732  1.13708073797380
 6 -2.92206728882888  1.36347863596360  3.18735014391439
 6 -1.92933639463946 -0.69382464386439  0.00495445374537
 6 -0.45536295889589 -0.36347069426943  0.52581671097110
 6  0.48015915311531 -0.53589710261026 -0.61889727022702
 8  0.14287552765277 -0.79218462606261 -1.79990632233223
 8  1.77685949644964 -0.44925232163216 -0.16896368526853
 7 -7.09050949884989  2.59764535433543  0.30837953345335
 6 -6.08322760176018  3.29243021882188  0.72427596119612
 6 -6.44478173127313  4.66206049544954  0.87182786998700
 6 -7.77401010801080  4.73604423592359  0.35768415971597
 6 -8.20314458605861  3.38502769806981  0.10858340464046
 6 -5.50580853755376  5.81285375127513  1.18918367886789
 6 -8.56560435803580  5.92277331103110  0.17314429982998
 6 -8.43152704400440  7.14524064266427  0.87238348814881
 7 -9.06302857545755  0.63406626772677 -0.59890392409241
 6 -9.85788204790479  1.73429338243824 -0.74506083018302
 6 -11.15199429602960  1.49985832493249 -1.21601332083208
 6 -11.22096450035003  0.08132349644965 -1.39229794379438
 6 -9.93417909860986 -0.40013198749875 -1.01245626172617
 6 -12.24325314901490  2.47580815181518 -1.30127690249025
 6 -12.40922546884688 -0.73236064616462 -1.80900170867087
 6 -12.27400488888889 -1.20722313351335 -3.32672779137914
 7 -7.11034050235024 -1.39765937953795 -0.18320299729973
 6 -8.22100234003400 -2.25310048214821 -0.52004695989599
 6 -7.83098924452445 -3.60497876537654 -0.43235051235124
 6 -6.51802568666867 -3.58402273927393  0.02733100120012
 6 -6.14917751415141 -2.17145542684268  0.15928873307331
 6 -8.60566803420342 -4.83072591499150 -0.76589506790679
 6 -5.33752822312231 -4.43252713621362  0.23782665526553
 8 -5.18332717061706 -5.57029151255125  0.33442047274727
 6 -4.12326590599060 -3.35238102790279  0.57002686798680
 6 -3.46031666256626 -3.67777299859986  1.88885925882588
 8 -3.78620022062206 -3.07406414261426  2.98656133723372
 8 -2.57536873057306 -4.70213493589359  1.72924150505051
 6 -1.90818140604060 -5.06543077217722  2.94379931543154
 6  2.85881839353935 -0.56718451305131 -1.26268746914691
 6  4.16036812581258 -0.37430560686069 -0.55736588558856
 6  5.07088057245724  0.41680794619462 -0.89722949564957
 6  5.07378580158016  1.28336098539854 -2.10846501180118
 6  6.47497182998300  0.53541539173917 -0.12709919511951
 6  7.60559809770977 -0.07614796169617 -0.88928587908791
 6  8.80969284188419 -0.18950408080808  0.01734992219222
 6  10.04207483198320 -0.60338741044104 -0.70663163366337
 6  10.09967666786679 -1.98870980708071 -1.31336480148015
 6  11.38922179907991 -0.35300908170817  0.03735460406041
 6  12.71776668436844 -0.61200525162516 -0.75467549044905
 6  13.93065253365337 -0.25967717051705  0.13901096859686
 6  15.29941606650665 -0.37217094619462 -0.61900013981398
 6  15.73637530643064 -1.72118975277528 -0.95739535723572
 6  16.37769187508751  0.44283864386439  0.31243575077508
 6  17.70069465886588  0.60900229862986 -0.26640245484548
 6  18.70112048154816  1.36532474947495  0.71429186218622
 6  20.15276394559456  1.24396472997300  0.20692545574557
 6  20.33934528832883  2.08146644384438 -1.05683667636764
 6  21.03787471827183  1.85485842214221  1.35570093349335
 1 -4.16575806030603  3.60737625902590  1.47817240414041
 1 -10.05848624132413  3.86216705170517 -0.81047643914391
 1 -10.25185847524752 -2.33874321512151 -1.24717136933693
 1 -2.57563402030203 -1.02822113601360  2.13960465166517
 1 -2.28364196939694  1.61274485708571  1.27528817921792
 1 -1.92359681718172  1.14652510541054  3.66818053155316
 1 -3.04984004400440  2.34266832433243  3.41869403480348
 1 -3.53274671737174  0.77078176217622  3.69879229202920
 1 -2.00492297719772 -1.67613757415742 -0.34154806400640
 1 -2.17007868036804 -0.00899364896490 -0.78279831943194
 1 -0.46737025442544  0.83196781068107  0.96079647874787
 1 -0.14788259025903 -1.09953446864686  1.12924687988799
 1 -5.77669644504450  6.78793743784378  0.68412412161216
 1 -5.37477446684668  5.97114047714771  2.34121041814181
 1 -4.46826078207821  5.53771493789379  0.79888306390639
 1 -9.35807786028603  5.93175932403240 -0.78941917011701
 1 -9.02371358725873  8.00757149604961  0.48782840464046
 1 -7.60676014181418  7.22646904640464  1.65638402390239
 1 -12.02559666476648  3.10513083908391 -2.14038704340434
 1 -13.04581425062506  1.88138202940294 -1.66300749224922
 1 -12.60484221532153  3.11669032373237 -0.32551379537954
 1 -12.72908768716872 -1.47813725882588 -1.30202515741574
 1 -13.39441816071607 -0.04562129892989 -1.82191771927193
 1 -13.11281763436344 -1.89768445464546 -3.43288317281728
 1 -12.05812937713772 -0.26475101270127 -3.85835933163316
 1 -11.30135641494149 -1.79464433153315 -3.45152377237724
 1 -9.06802640564056 -4.92260300320032 -1.89581284538454
 1 -8.08967833263326 -5.71534153835384 -0.37331694469447
 1 -9.70008989388939 -4.67220224152415 -0.18205002760276
 1 -3.38414911081108 -3.44894814551455 -0.13102837433743
 1 -1.44766293279328 -4.05013145284529  3.44966788208821
 1 -2.57995760436044 -5.53293491109111  3.81613445234523
 1 -1.26549466096610 -5.78797807100710  2.59223317621762
 1  2.67459676377638 -1.53671550745074 -1.88778274327433
 1  2.66954443204320  0.11784606420642 -1.80640379257926
 1  4.14639554515452 -1.15041725692569  0.22467568356836
 1  4.09222818631863  1.34521323172317 -2.59753812351235
 1  5.52731814351435  2.23709396829683 -1.99263573177318
 1  5.70165747334733  0.77193830133013 -2.83459219021902
 1  6.83989605250525  1.54400840084008 -0.07684504170417
 1  6.14729884928493 -0.03349138653865  0.79816953365337
 1  7.37092447714771 -1.03551278647865 -1.23819514311431
 1  8.01848428432843  0.79777298539854 -1.69103202680268
 1  8.99930198179818  0.94823270827083  0.50579821202120
 1  8.65903439213922 -0.73523903010301  0.86121398509851
 1  10.16851440284028 -0.00302776507651 -1.69763465296530
 1  9.17283226872687 -2.37104508100810 -1.91486741154115
 1  10.92662521822182 -2.40093687758776 -1.83333757765777
 1  9.98422130813081 -2.79468141014101 -0.50087952765277
 1  11.58710639153915  0.67185941614161  0.25552704020402
 1  11.29505255865587 -0.92817877917792  0.97516813841384
 1  12.94091741064106 -1.65679384058406 -0.93548121572157
 1  12.83591734423442 -0.10707001600160 -1.72063542484248
 1  13.76350778747875  0.78885144114411  0.25495283828383
 1  14.07571032413241 -0.90449005370537  0.92073859035904
 1  15.28834212271227  0.28919840484048 -1.50398475647565
 1  15.74750219311931 -2.30450074217422  0.00333887998800
 1  15.03183623432343 -2.32518489408941 -1.58278569366937
 1  16.65392502190219 -1.69619514441444 -1.48525999549955
 1  15.88205340604060  1.31275910961096  0.80821736603660
 1  16.51766621382138 -0.06317549264926  1.43703646484649
 1  18.20035097379738 -0.24129067646765 -0.54096743714371
 1  17.54907197169717  1.16422374127413 -1.20326390219022
 1  18.12597338993899  2.49827398509851  0.67129513481348
 1  18.58530569086909  0.83390757175718  1.72998299859986
 1  20.38286319901990  0.13891003920392  0.30182724672467
 1  20.20177428402840  3.27625118701870 -0.91399499289929
 1  21.49933418551855  2.17160381318132 -1.35898726202620
 1  19.54912881728173  1.77076888768877 -1.96878384738474
 1  21.19732570777078  1.21594970407041  2.12986260346035
 1  22.00815252155216  2.13050428012801  1.05249021532153
 1  20.47456718661866  2.84183426672667  1.62136257675768

