%nproc=4
%Mem=2GB
# td=(NStates=1) CAM-B3LYP/6-31G(d,p) 

TD

0 1
12 -7.10093066606661  0.53615236333633  0.15563325072507
 6 -4.89186380438044 -1.95647682608261  0.49488602130213
 6 -4.78182811171117  2.81927037433743  1.14629099399940
 6 -9.35307004250425  3.15496099159916 -0.30397325702570
 6 -9.49072938663866 -1.82209772077208 -0.80764719381938
 7 -5.10245366996700  0.39112893099310  0.68555897419742
 6 -4.35363506960696 -0.72374219621962  0.78638666186619
 6 -2.94976398179818 -0.48395782148215  1.10634098829883
 6 -2.89634307270727  1.07354002230223  1.59624035473547
 6 -4.40967796269627  1.54666541534153  1.16267329722972
 6 -2.89290437253725  1.27794008210821  3.19898130703070
 6 -1.96698015901590 -0.64136939833983 -0.07918396009601
 6 -0.54684210681068 -0.43710805800580  0.38227235653565
 6  0.46717785498550 -0.67820133303330 -0.70803618411841
 8  0.23709494959496 -0.87155256285629 -1.83534986668667
 8  1.72824463496350 -0.46452384878488 -0.23281006990699
 7 -7.11104155205521  2.59270486028603  0.30321901740174
 6 -5.98515779477948  3.33399437523752  0.73834736833683
 6 -6.34116136923692  4.78885317471747  0.80802148934893
 6 -7.71249395639564  4.77642827432743  0.47863625492549
 6 -8.18544281588159  3.52394158945895  0.12425497179718
 6 -5.41292924962496  5.83034550045005  1.14081884238424
 6 -8.63994179177918  6.01013204690469  0.18912589798980
 6 -8.38904279557956  7.14275039363936  0.80755700550055
 7 -9.12866513911391  0.64843770487049 -0.55511954565457
 6 -9.88209446914691  1.81342129522952 -0.75591191529153
 6 -11.14168326492649  1.47413575267527 -1.30165188468847
 6 -11.23599600350035  0.16224158825883 -1.30817953195320
 6 -9.89459514021402 -0.35455743004300 -0.87146216231623
 6 -12.16517534123412  2.47211778277828 -1.66209298409841
 6 -12.32972751905191 -0.62122953305331 -1.83742455095510
 6 -12.17642513091309 -1.05295770697070 -3.26527164576458
 7 -7.22841230953095 -1.43904351795180 -0.05386006300630
 6 -8.31203144294429 -2.29297446954695 -0.36232118731873
 6 -7.87297344294429 -3.65976424392439 -0.31360863816382
 6 -6.52250613471347 -3.60591492849285  0.04503277137714
 6 -6.23451604800480 -2.24347262856286  0.21303410761076
 6 -8.64832229962996 -4.94963780618062 -0.78395687408741
 6 -5.35448991929193 -4.39741362486249  0.26874974757476
 8 -5.26664550245025 -5.62060654405441  0.22311934263426
 6 -4.10362394179418 -3.27321311111111  0.47365723102310
 6 -3.54810544144414 -3.75390061136114  1.85403577647765
 8 -3.71675327592759 -3.06340307650765  2.91071375247525
 8 -2.86660785448545 -4.83245796819682  1.85386396729673
 6 -2.17305789368937 -5.19853408250825  3.07164209970997
 6  2.83337584928493 -0.64902269686969 -1.12270347074707
 6  4.13151524052405 -0.37876605290529 -0.46834698369837
 6  5.05609909430943  0.38284454985499 -0.96337611031103
 6  5.10546896989699  1.35457810711071 -2.08204236953695
 6  6.44909924272427  0.46562841304130 -0.07174365956596
 6  7.63632117001700 -0.11741208810881 -0.93739068956896
 6  8.91161303390339 -0.02293742414241 -0.13133494629463
 6  10.14216484098410 -0.45889296099610 -0.91649261976198
 6  10.16739343954395 -1.93476441254125 -1.36441990699070
 6  11.42817569446945 -0.12593637443744 -0.07525665706571
 6  12.76736164386439 -0.42977702880288 -0.72917294019402
 6  13.93054252265227 -0.09103030583058  0.18574564206421
 6  15.33140926582658 -0.23976770587059 -0.46662490229023
 6  15.56447811671167 -1.65912354615462 -0.69945956365637
 6  16.45423952985298  0.27228158815882  0.40978548574857
 6  17.79568415781578  0.54591598999900 -0.20626644124412
 6  18.82989335883588  1.18303652065207  0.68827926092609
 6  20.21197986718672  1.32192252575258  0.20459522272227
 6  20.28338969276928  2.16387468466847 -1.01282227492749
 6  21.15564649544955  1.86165910221022  1.20310567396740
 1 -4.03032451695170  3.57597311871187  1.28442302920292
 1 -10.08406879957996  3.87563839883988 -0.54598999049905
 1 -10.53581687108711 -2.50196953775378 -1.07070372257226
 1 -2.35517197409741 -1.10596891079108  1.80215090629063
 1 -2.21269487468747  1.62577616021602  0.92983363376338
 1 -1.83046750425043  1.34003445634563  3.53929764326433
 1 -3.14731979197920  2.46850090759076  3.32423458885889
 1 -3.68288173087309  0.74216890089009  3.72902531533153
 1 -1.86909939483948 -1.66504646504650 -0.35931984118412
 1 -2.22481415391539  0.13885113551355 -0.71603164276428
 1 -0.38542205960596  0.49773438733873  0.79624002310231
 1 -0.24392219421942 -1.33414792999300  1.11375533073307
 1 -5.55882465786579  6.75583422752275  0.50879658885889
 1 -5.53969095849585  6.06257962106211  2.05130142724272
 1 -4.48966292229223  5.57750891729173  1.08033120872087
 1 -9.43042509500950  5.85689183728373 -0.67525775397540
 1 -9.01974319021902  8.07848858775878  0.62083170497050
 1 -7.68545801160116  7.31286768626863  1.59125751125112
 1 -11.93292739783978  3.14080440644064 -2.58983198789879
 1 -13.18594826402640  2.11899579077908 -1.79299049054905
 1 -12.30708243934393  3.07888654335434 -0.79806105010501
 1 -12.47886266466647 -1.42597204230423 -1.13474842974297
 1 -13.28249696859686 -0.04606134293429 -1.68623415091509
 1 -12.96726307890789 -1.81132581878188 -3.52030191469147
 1 -12.08258182238224 -0.19529406700670 -3.90675417111711
 1 -11.32336861616162 -1.65779064616462 -3.49665828582858
 1 -8.83905350835084 -4.85249599249925 -2.07352061616162
 1 -8.04782414721472 -5.83719372357236 -0.74976458945895
 1 -9.68547843274327 -5.09250427172717 -0.25870769336934
 1 -3.36282697859786 -3.60534378507851 -0.21576684818482
 1 -1.47538570507051 -4.40070651035103  3.33308622392239
 1 -2.87687729632963 -5.24300591819182  3.92681552045204
 1 -1.74950306180618 -6.26744601780178  2.72033598649865
 1  2.79429873397340 -1.66621845774577 -1.53114707970797
 1  2.74300177777778  0.00993527312731 -1.90591374357436
 1  4.35648655425543 -0.77378959415942  0.45482869886989
 1  4.18726769026903  1.20828953935394 -2.81135950565057
 1  5.27414282598260  2.32234249314932 -1.71615808400840
 1  5.81103841144114  1.04261536903690 -2.86633536453645
 1  6.46875893879388  1.50682468246825  0.16188883168317
 1  6.38268238763876 -0.21514955235524  0.71979169586959
 1  7.38142552725273 -1.21334056925693 -1.30108143174317
 1  7.80561299719972  0.38122133023302 -2.07353027662766
 1  9.06454850645064  1.05557344234423  0.23577120932093
 1  8.61110959965997 -0.59872537873787  0.82988085178518
 1  10.12898044944494  0.21500403810381 -1.92854774427443
 1  9.38156314181418 -2.48220619711971 -1.97001292609261
 1  11.04012656835684 -2.24776156005601 -1.91570581448145
 1  10.04117700370037 -2.56889883188319 -0.43923336303630
 1  11.22498017891789  0.93931616181618  0.06635812331233
 1  11.48229128252825 -0.50712667396740  1.05184580618062
 1  13.02497581648165 -1.36129429062906 -1.12892055965597
 1  12.75669942244224  0.06724741574157 -1.91710507180718
 1  13.64208564526453  0.96589914591459  0.33998134113411
 1  13.70007276037604 -0.46135574027403  1.17488400490049
 1  15.28326161466147  0.18810829582958 -1.48275263326333
 1  15.32489993289329 -2.36290658275828  0.19103764986499
 1  15.11868491919192 -2.43544592019202 -1.56881429652965
 1  16.68667829722973 -2.01051657655766 -1.03200466996700
 1  15.87176237693769  1.22860069376938  0.73497004130413
 1  16.50625507270727  0.01940276517652  1.33797655885589
 1  18.29939087778778 -0.49720626802680 -0.44043738413841
 1  17.81551861636164  1.04078139703970 -1.28040161596160
 1  18.52946373897390  2.23182734043404  0.76079408470847
 1  18.65135229552956  0.95588976997700  1.75296529682968
 1  20.62170708340834  0.45619176737674  0.03565062906291
 1  20.06834094069407  3.31887544944494 -0.79689328272827
 1  21.39076332843284  2.03984063686369 -1.41345270857086
 1  19.62890679507951  1.64673648444844 -1.80668763776378
 1  21.41665764096410  1.24535264436444  2.05607522472247
 1  22.06615832213221  2.04522575227523  0.75694066036604
 1  20.77391712161216  2.89468955225523  1.45924636513651

