%nproc=4
%Mem=3GB
# td=(NStates=1) iop(3/107=0140000000,3/108=0140000000) CAM-B3LYP/6-31G(d,p) 

TD

0 1
12 -7.12784747644764  0.60140852435244  0.06872324232423
 6 -4.86431524802480 -1.96099332993299  0.51863726612661
 6 -4.77013304390439  2.76947566546655  1.26258636383638
 6 -9.38959572407241  3.14779233223322 -0.50792326762676
 6 -9.50138623662366 -1.65666743244324 -0.83148995389539
 7 -5.11568860006001  0.36284237483748  0.73064088808881
 6 -4.34931717901790 -0.70630177337734  0.85529342404240
 6 -2.95722194279428 -0.39171756975698  1.26967263636364
 6 -3.03202642954295  0.97909661126113  1.80746702600260
 6 -4.40309054375437  1.45156980808081  1.11649604350435
 6 -3.02971915271527  1.27411023032303  3.24155947054705
 6 -1.95204093379338 -0.65256124532453  0.14218802910291
 6 -0.53785949514952 -0.53631687968797  0.57499088138814
 6  0.53424534773477 -0.70691731363136 -0.49300909100910
 8  0.21229144594459 -1.02060583828383 -1.68073546664666
 8  1.79859845824582 -0.55577551595160 -0.18916430403040
 7 -7.06057370077008  2.58374158405841  0.29888081218122
 6 -5.95870601440144  3.31151491889189  0.81602747884788
 6 -6.34585949434943  4.67066392999300  0.88428668736874
 6 -7.63649843514351  4.89631143634363  0.31866799319932
 6 -8.11021054855486  3.55253219201920  0.05852385098510
 6 -5.49953198709871  5.78612808650865  1.29411956715672
 6 -8.40969097709771  6.11388165776578  0.11461207370737
 6 -8.17345575557556  7.39057820752075  0.64872893219322
 7 -9.00780982208221  0.69217621202120 -0.53051962586259
 6 -9.87651513781378  1.80214353865386 -0.76816963046305
 6 -11.22505645834584  1.50278972347235 -1.23017787748775
 6 -11.21182066926693  0.16528407420742 -1.25431545984598
 6 -9.92292989658966 -0.24416460986099 -0.87920012131213
 6 -12.17727866556656  2.54667990939094 -1.48974842754275
 6 -12.30933472637264 -0.80081620542054 -1.90439977057706
 6 -12.04629653855386 -1.09193938623862 -3.20728137933793
 7 -7.24164712711271 -1.36650148584858 -0.16329900500050
 6 -8.29507383368337 -2.21848039353935 -0.47154873477348
 6 -7.83546558635864 -3.50400095149515 -0.64038433823382
 6 -6.53944173467347 -3.54221720382038 -0.09962204390439
 6 -6.18444217591759 -2.20293824962496  0.10641247664766
 6 -8.71935427492749 -4.76878297669767 -0.94778816191619
 6 -5.36466192909291 -4.31563512691269  0.19913488758876
 8 -5.36581757405741 -5.54216107310731  0.38825477407741
 6 -4.17071157375738 -3.30898834623462  0.56797511911191
 6 -3.56485066186619 -3.73978192089209  1.86642261076108
 8 -3.72941572497250 -3.19552691059106  2.96721007920792
 8 -2.76603195599560 -4.89354797329733  1.72367140464046
 6 -2.29617857485749 -5.44317952385239  2.85496289668967
 6  2.74015033543354 -0.87126541544154 -1.21319483668367
 6  4.09596048124812 -0.49274454235424 -0.55404796759676
 6  5.05369086038604  0.30155668366837 -0.90830370737074
 6  4.93221694729473  1.19905758105811 -2.09068320332033
 6  6.38286456515652  0.36616723272327 -0.16082660706071
 6  7.72971442404240 -0.05395394339434 -0.97020734943494
 6  8.88758647024702 -0.16698851495150 -0.13368947134713
 6  10.18427388798880 -0.50684234743474 -0.85937165716572
 6  10.10247352395240 -1.98228610851085 -1.29930689668967
 6  11.45013967776778 -0.23957884898490 -0.08275623812381
 6  12.72330006550655 -0.40385041854185 -0.83857136223622
 6  13.84577584938494 -0.01153686798680  0.07989440104010
 6  15.32337832883288 -0.11443052665267 -0.45761141364136
 6  15.76779305030503 -1.56297468576858 -0.83095492179218
 6  16.37022401510151  0.60413693099310  0.44867960266027
 6  17.76205379307931  0.62483621322132 -0.13944047104710
 6  18.77945836443644  1.44124220272027  0.70748400510051
 6  20.20140294469447  1.34071350385039  0.21961866786679
 6  20.42929577537754  1.87119442454245 -1.22285698159816
 6  21.19080414741474  1.89389108900890  1.21242518251825
 1 -4.08361872537254  3.57388063946395  1.56452254805481
 1 -10.00555267856786  4.06582885738574 -0.48346287248725
 1 -10.28370279437944 -2.32240777587759 -1.00196801620162
 1 -2.55738302550255 -0.98149835253525  2.10259675037504
 1 -2.27691115741574  1.68304036513651  1.24675832483248
 1 -2.03872695909591  0.89672877927793  3.66755709310931
 1 -3.26244335343534  2.28774799759976  3.69769779197920
 1 -3.91873467396740  0.73474862916292  3.74864654985499
 1 -2.08507362636264 -1.71621229202920 -0.12594060116012
 1 -2.12914928392839 -0.01958433863386 -0.72256899149915
 1 -0.37769319801980  0.36921650895090  1.15894975797580
 1 -0.60991941224122 -1.49674044064406  1.43966742504251
 1 -5.64480865856586  6.58865637763776  0.51457128842884
 1 -6.02270374167417  6.23066594799480  2.41758377087709
 1 -4.50346519111911  5.31970623862386  1.64522525512551
 1 -9.36548680848085  6.04005738773877 -0.51588294099410
 1 -8.66203526722672  8.26599632063206  0.38043781948195
 1 -7.33206113821382  7.46256309270927  1.24174313461346
 1 -11.80421089408941  3.18990813791379 -2.29131496299630
 1 -13.12278957665766  2.14386312871287 -1.70501622982298
 1 -12.32953398609861  3.12553988808881 -0.65837627712771
 1 -12.62580454535454 -1.71766268906891 -1.21480498139814
 1 -13.16391869096910 -0.12928563906391 -1.79667542194219
 1 -12.79809500870087 -1.73859752185219 -3.63809476757676
 1 -12.01131153685368 -0.25703417471747 -3.88154713311331
 1 -10.97635247464746 -1.53991501870187 -3.44099237743774
 1 -8.84600921952195 -4.61495799659966 -2.08312437543754
 1 -8.13497788298830 -5.68823477677768 -0.72361231633163
 1 -9.67222140114012 -4.85856430483048 -0.43599586828683
 1 -3.79547706620662 -3.60518712431243 -0.20804854295430
 1 -1.93765715331533 -4.75216743014302  3.42435415301530
 1 -3.27013345064506 -5.66912643754375  3.68053909160916
 1 -1.93886440694069 -6.41806259105911  2.62649601070107
 1  2.86245430023002 -1.96139276207621 -1.41784323302330
 1  2.57360380168017 -0.11701361656166 -1.99125018251825
 1  4.18818930563056 -0.99974838863886  0.34273567376738
 1  3.93287859935994  1.20782632533253 -2.39994047974797
 1  5.21862879507951  2.18591901580158 -1.85932337073707
 1  5.68361793029303  0.99226041694169 -2.70380663756376
 1  6.40141832573257  1.29058903950395  0.31621123502350
 1  6.43504137623762 -0.45295263196320  0.56511270677068
 1  7.58647076987699 -1.02991366436644 -1.55890064726473
 1  7.76529908840884  0.80558966196620 -1.85663648654866
 1  9.25300134443444  0.85104460196020  0.18915134323432
 1  8.84568768956896 -0.92995134783478  0.77468359175918
 1  10.07768240004001 -0.02258611081108 -1.86997215521552
 1  9.08660826992699 -2.28915719921992 -1.85021340324032
 1  10.88406754735474 -2.56461986128613 -1.85078043614361
 1  9.97929012611261 -2.43392750745075 -0.22211960566057
 1  11.28690033163316  0.83823025642564  0.39390716151615
 1  11.59223681918192 -0.98699999759976  0.72224854495450
 1  12.71424937743774 -1.53844126342634 -1.14913718521852
 1  12.90773660356036  0.31298623462346 -1.72154648834883
 1  13.73855527582758  0.87051241454145  0.61448627732773
 1  14.01388969956996 -0.77678405730573  1.05792816681668
 1  15.30784118551855  0.53184658165817 -1.30870213901390
 1  15.94743854065407 -1.96034537573757  0.21684354885489
 1  15.10358200260026 -2.15923044304430 -1.43002437593759
 1  16.73302158175818 -1.40166106310631 -1.40206671997200
 1  15.91010428392839  1.52752108580858  0.76714263056306
 1  16.42145622342234  0.07984169936994  1.41313980868087
 1  18.23807054475447 -0.23446996099610 -0.38452864846485
 1  17.49225653525352  0.80909980408041 -1.27872361596160
 1  18.49168822572257  2.37477874587459  0.52524447124713
 1  18.52472843534354  1.06414125362536  1.86171941744174
 1  20.25942577487749  0.12736373397340  0.00634652685268
 1  20.22519933843384  3.02852362886289 -1.28607079177918
 1  21.62757655845585  1.64112525462546 -1.54208218941894
 1  19.79559795739574  1.24684497469747 -2.00642902730273
 1  21.21376523002300  1.54314995589559  2.30889455825583
 1  22.33243113591359  1.76259673037304  0.88700535413541
 1  21.11941201970197  3.01185730293029  1.54387152385239

