%nproc=4
%Mem=2GB
# td=(NStates=1) CAM-B3LYP/6-31G(d,p) 

TD

0 1
12 -7.15901647464746  0.48137688578858  0.08950663806381
 6 -4.78123274127413 -1.98917009540954  0.45966249894989
 6 -4.76312624152415  2.78970741804180  1.15073143804380
 6 -9.33719845534553  3.15531102660266 -0.43909676937694
 6 -9.44004431813181 -1.71522703370337 -0.95868229732973
 7 -5.16690011461146  0.44844466256626  0.70750116841684
 6 -4.36205591169117 -0.69293911591159  0.69701772497250
 6 -2.90950995639564 -0.46404583028303  1.19557991219122
 6 -3.08353179157916  1.04580724902490  1.77584831553155
 6 -4.37436443134313  1.47816856565657  1.15064209410941
 6 -3.02085716781678  1.26079836793679  3.28580998989899
 6 -1.79031249224922 -0.50415567696770  0.13444740304030
 6 -0.39533695629563 -0.31042538973897  0.63414754405441
 6  0.57394853205321 -0.61770528342834 -0.53457883838384
 8  0.20526176627663 -1.03572898049805 -1.61115744744474
 8  1.82804461496150 -0.44537193359336 -0.11846863576358
 7 -7.06197664556456  2.59633522332233  0.26950564606461
 6 -6.05601488048805  3.29759073487349  0.70405393899390
 6 -6.36716396949695  4.83648793819382  0.68155884308431
 6 -7.63708641564156  4.92725335683568  0.27690608190819
 6 -8.06165043664367  3.49523871917192  0.04887743404340
 6 -5.52745070177018  5.87626009190919  1.20580534103410
 6 -8.50489828742874  6.05950698439844  0.12916990239024
 6 -8.44686857815782  7.18444456305631  0.87170342014201
 7 -9.07862013461346  0.65470833193319 -0.61140517421742
 6 -9.84285054475447  1.79858981208121 -0.74092041614161
 6 -11.18253735033503  1.44102244134413 -1.24089580908091
 6 -11.27478988288829  0.04609997409741 -1.26123483748375
 6 -9.96365204590459 -0.35506748104810 -0.90964598069807
 6 -12.23792261596160  2.38123869486949 -1.41145792059206
 6 -12.47080162646265 -0.76261367146715 -1.76638744724472
 6 -12.48317580598060 -1.04667707890789 -3.27722284088409
 7 -7.18983845214522 -1.45275488908891 -0.14705938293829
 6 -8.17197743754375 -2.26327149924992 -0.63536849204920
 6 -7.78185433103310 -3.56355462296230 -0.60383766106611
 6 -6.47398128222822 -3.55653999099910 -0.20057178907891
 6 -6.13616621302130 -2.17696597789779  0.07170997519752
 6 -8.57993546094609 -4.83437628002800 -0.98309678807881
 6 -5.31563603390339 -4.33353723722372  0.18490136273627
 8 -5.15487432533253 -5.61773625702570  0.31302833353335
 6 -4.13053663306331 -3.33683947374737  0.53972383768377
 6 -3.53108373927393 -3.63764898619862  1.92501287418742
 8 -3.95841744234423 -3.17048378457846  2.98649133023302
 8 -2.69277047074707 -4.71798652105211  1.88241682258226
 6 -1.98591917981798 -5.14128835793579  3.04849978547855
 6  2.86015852755276 -0.75992378697870 -1.13568476887689
 6  4.15978806780678 -0.39636781308131 -0.51877202620262
 6  5.09844332873287  0.47782404780478 -0.94855462816282
 6  5.06048447144714  1.15290794009401 -2.24703886918692
 6  6.36249058185819  0.53085493569357 -0.15279176437644
 6  7.62947048494850 -0.04512485938594 -0.92924987548755
 6  8.90520239283928  0.00506537613761 -0.05560737353735
 6  10.13020364486449 -0.56492356405641 -0.74729570007001
 6  9.98085478567857 -1.96047698379838 -1.20261372637264
 6  11.35247812471247 -0.31524530533053  0.17178804740474
 6  12.67098200590059 -0.57639169026903 -0.64733475637564
 6  13.90060952935294 -0.12834403720372  0.32460952845285
 6  15.22488861376138 -0.25626935603560 -0.50162840264026
 6  15.53996566546655 -1.61859949374937 -1.04302392009201
 6  16.42189629552955  0.31258561856186  0.39035354255426
 6  17.80284487388739  0.50735213361336 -0.32877869246925
 6  18.84291466096610  1.09712792979298  0.73700413341334
 6  20.25031370057006  1.39942027552755  0.16864162736274
 6  20.18419977377738  2.26149444664466 -1.19753074577458
 6  21.25196612741274  1.91840477677768  1.09505486888689
 1 -3.95780726522652  3.71958748014801  1.41410599749975
 1 -10.10058045074507  3.90409124412441 -0.43943933543354
 1 -10.29043233263326 -2.45403474427443 -1.24496114831483
 1 -2.63418987588759 -1.13337165106511  1.96788747994799
 1 -2.23572717791779  1.64263784638464  1.30062071247125
 1 -2.04626908440844  0.86487694059406  3.82921663516352
 1 -3.01532659265927  2.33499755725573  3.44438660406041
 1 -3.81823526622662  0.59559424342434  3.73647606040604
 1 -1.56093857875788 -1.63156311671167 -0.36076998619862
 1 -2.02595426792679  0.18420567096710 -0.59874991459146
 1 -0.11667518491849  0.58895350925093  0.73704410351035
 1 -0.14208201020102 -1.01836635183518  1.59058301350135
 1 -5.61544031943194  6.80315895999600  0.72102781198120
 1 -5.71205819521952  6.00672403550355  2.34717101420142
 1 -4.42893684968497  5.35612677907791  1.23192636823682
 1 -9.39006105860586  6.14120026812681 -0.55219544774477
 1 -9.12205342124212  7.99643038193819  0.75552517431743
 1 -7.68654812061206  7.30643704320432  1.59508789428943
 1 -11.94357846294630  3.21443176917692 -2.16125913061306
 1 -13.12138180738074  1.69459335053505 -1.58317950945094
 1 -12.36882861396140  2.93725237993799 -0.37230847484748
 1 -12.34924970337034 -1.74121356645665 -1.22291724662466
 1 -13.32607132603260 -0.32288902570257 -1.32814834233423
 1 -13.34064041664166 -1.90446513271327 -3.53987387188719
 1 -12.78935249944995 -0.23588812641264 -3.92171566726673
 1 -11.44711099039904 -1.42349721682168 -3.86202482248225
 1 -9.09582918591859 -4.54535527842784 -1.85913917801780
 1 -7.82086145094509 -5.75663566776678 -0.92183179617962
 1 -9.35630551545155 -4.99251427272727 -0.23192501510151
 1 -3.35436613251325 -3.35546879757976 -0.13390866236624
 1 -1.49583775027503 -4.21485792549255  3.42484539983998
 1 -2.66263587218722 -5.62526414401440  3.83734657355736
 1 -1.24426253775378 -5.78033730693069  2.63182713561356
 1  2.58682798689869 -1.75987782368237 -1.48373233823382
 1  2.39918739633963 -0.07918363876388 -1.93591674387439
 1  4.26303720932093 -0.78030024522452  0.37109032503250
 1  4.13406236973697  1.47401611201120 -2.46602497219722
 1  5.55007041874187  2.07374763366337 -2.16369283748375
 1  5.55118242584258  0.69548065556556 -3.21311004200420
 1  6.58523058595860  1.67195119511951 -0.11671902910291
 1  6.20179429882988  0.12550451305131  0.86252596929693
 1  7.50615800050005 -1.10393962916292 -1.02436375997600
 1  7.76726916281628  0.45305851395140 -1.91771469506951
 1  8.95698775037504  1.00895878087809  0.29783741594159
 1  8.62592108080808 -0.52778828502850  1.00188805250525
 1  10.34103165456546  0.02473501120112 -1.71548643814381
 1  9.10122510801080 -2.12862083858386 -1.85364128892889
 1  10.89220177587759 -2.40697748164816 -1.67775201910191
 1  10.04173705970597 -2.67643958595860 -0.29919935963596
 1  11.40075775667567  0.69554178437844  0.63081456895690
 1  11.24645769916992 -0.90462642394239  1.06376699829983
 1  12.93608692759276 -1.53639180038004 -0.88851651925193
 1  12.71456520902090  0.17861855285528 -1.56176953825383
 1  13.89780121682168  0.85857841384138  0.80426776977698
 1  13.81503425652565 -0.96737634233423  1.08960547704771
 1  14.90356364486449  0.53165265026503 -1.39956431443144
 1  15.67887533043304 -2.40078037013701 -0.24032548644864
 1  14.75360841154115 -2.03843621922192 -1.61282869796980
 1  16.48270790019002 -1.60050557545755 -1.66491796129613
 1  16.06354155485548  1.32831066476648  0.91681822612261
 1  16.46453090029003 -0.21951112621262  1.35104786598660
 1  18.18547948664866 -0.52984953235323 -0.61698503890389
 1  17.55198226272627  1.13173049194920 -1.30872444824482
 1  18.34168496109611  2.05230938863886  1.28740674597460
 1  18.97235439573958  0.14612879387939  1.45212521282128
 1  20.65637054975497  0.43523967216722 -0.15618855485549
 1  19.54401850845084  3.10615417731773 -1.06076967036704
 1  21.28971322342234  2.45055170797080 -1.59349071237124
 1  19.68472237663767  1.41639345014501 -2.09948691769177
 1  21.14891086628663  1.32136024512451  1.98634825202520
 1  22.13410511681168  1.91940317001700  0.73118808510851
 1  21.02419214911491  3.13481356465647  1.41420186068607

