%nproc=4
%Mem=2GB
# td=(NStates=1) CAM-B3LYP/6-31G(d,p) 

TD

0 1
12 -7.14032460546055  0.54498324642464  0.12891057845785
 6 -4.80268488648865 -1.93191436983698  0.51456798949895
 6 -4.68391832073207  2.85088353565357  1.13846021092109
 6 -9.37513224872487  3.17229272477248 -0.37181004070407
 6 -9.57277759145915 -1.76847235823582 -0.75946237533753
 7 -5.11579500410041  0.41434125222522  0.72570298859886
 6 -4.33858356445645 -0.76361618361836  0.88366638983898
 6 -2.86650565596560 -0.39076850255025  1.25751610581058
 6 -2.97162060046005  1.00530319861986  1.69821055175518
 6 -4.33360035493549  1.46719746854685  1.16516354625463
 6 -2.83702878497850  1.18048033613361  3.14287569646965
 6 -1.95504896589659 -0.59861512291229  0.10265422372237
 6 -0.54351177377738 -0.42327667486749  0.49291342064206
 6  0.50664180138014 -0.70287380028003 -0.67156253675368
 8  0.24255549564957 -0.92617802540254 -1.83254958665867
 8  1.79845165566557 -0.61848924532453 -0.25255204410441
 7 -7.09393984188419  2.66387197699770  0.36568526402640
 6 -5.96145542454245  3.33805478127813  0.70848438203820
 6 -6.33337059015902  4.74252854225423  0.71564225142514
 6 -7.61848455545555  4.89207983948395  0.34456284758476
 6 -8.13060733233323  3.49703889918992  0.02147469376938
 6 -5.48544650135014  5.89529199509951  1.10947570807081
 6 -8.44669246684668  6.09316034973497  0.08442542794279
 6 -8.33395728702870  7.25913203180318  0.73131938173817
 7 -9.06708898149815  0.65936879797980 -0.50698473217322
 6 -9.91290755045505  1.83289324242424 -0.65720204430443
 6 -11.17878697529753  1.44469280838084 -1.11290300980098
 6 -11.17728013191319  0.11200656475648 -1.12208092209221
 6 -9.89484516521652 -0.42061403570357 -0.72304732083208
 6 -12.24449327302730  2.50827139813981 -1.43201997679768
 6 -12.39301384768477 -0.63132054215422 -1.66390719921992
 6 -12.33803129152915 -1.00650306150615 -3.17132225082508
 7 -7.23668313661366 -1.44951456505651 -0.14479915691569
 6 -8.25508574837484 -2.28135330743074 -0.59040399559956
 6 -7.78446459205921 -3.66334460196020 -0.61059833713371
 6 -6.39053293739374 -3.52236657365737 -0.20898263016302
 6 -6.19020161656166 -2.19909819111911  0.07284008820882
 6 -8.70401786918692 -4.79445228762876 -1.14384286268627
 6 -5.28472294259426 -4.31921580508051  0.16361923452345
 8 -5.15559439733973 -5.54832931633163  0.14403143384338
 6 -4.15667924732473 -3.36604239403940  0.62576244154415
 6 -3.59038966986699 -3.70080530183018  2.01423179607961
 8 -3.92722432303230 -3.14749148534853  3.01942462356236
 8 -2.82264345804580 -4.82297702010201  1.91007958885889
 6 -2.34976556445645 -5.21693592269227  3.24795973147315
 6  2.81585409710971 -0.80299809440944 -1.18491969236924
 6  4.07716980598060 -0.54177235353535 -0.52031218021802
 6  5.01352483688369  0.26435270067007 -0.98493826652665
 6  4.92551097409741  0.96814946424642 -2.30635480078008
 6  6.38338267106711  0.38511036123612 -0.27228371357136
 6  7.65256279417942 -0.18322866976698 -1.02190914141414
 6  8.93184505710571 -0.09285441584158 -0.15274708750875
 6  10.17856848134813 -0.66236330803080 -0.94418538903890
 6  10.05671237143714 -2.06413734983498 -1.36945041004100
 6  11.42588546544654 -0.24886866766677 -0.15066419781978
 6  12.73829873757376 -0.39634368546855 -0.92874289718972
 6  13.91887135553555 -0.21319252205221  0.03386045354535
 6  15.34927105200520 -0.14999872897290 -0.44203244304430
 6  15.81690335923592 -1.70715834963496 -0.88057767546755
 6  16.38798290419042  0.51974633463346  0.49191369856986
 6  17.79791438083808  0.66768816721672 -0.12053786838684
 6  18.79252962246225  1.37775599259926  0.80413084608461
 6  20.27875654485448  1.48783911741174  0.35983074627463
 6  20.38853020682068  2.33184148134813 -0.91558255095510
 6  21.08442937373738  1.98516145244524  1.34325968936894
 1 -3.90569205370537  3.48635415681568  1.28137272417242
 1 -9.88003839653965  4.03498433343334 -0.55641103260326
 1 -10.31414470387039 -2.38391773257326 -1.25786243844384
 1 -2.53979043594359 -1.24652296619662  2.16250694189419
 1 -2.21942554775478  1.55362894549455  1.27096774717472
 1 -1.72261671917192  1.04228468136814  3.33594730823082
 1 -3.12100716071607  2.35645970347035  3.55251741714171
 1 -3.61121456415642  0.35125980998100  3.62626503930393
 1 -2.05678816371637 -1.56786674707471 -0.42469637883788
 1 -2.20654232673267  0.09457670807081 -0.77438747834783
 1 -0.33410692809281  0.90853546744675  0.73558395749575
 1 -0.19990779277928 -1.01281579677968  1.28185214041404
 1 -5.75670444584459  6.66589523362336  0.54038974817482
 1 -5.49166615601560  6.15160852395239  2.21715801290129
 1 -4.56262021802180  5.72659382578258  0.83089626522652
 1 -9.28703075557556  6.03154930303030 -0.68689891809181
 1 -9.14189540544054  7.95103584248425  0.31351097289729
 1 -7.82239170497050  7.65831223072307  1.60409879537954
 1 -12.01785589068907  2.75043536953695 -2.53151615631563
 1 -13.29752942214221  2.10054394559456 -1.23829502100210
 1 -12.26714844594460  3.30180883558356 -0.59823106710671
 1 -12.45577035543554 -1.46159560466047 -0.88497345224522
 1 -13.38721744064406 -0.05581231803180 -1.33875940344034
 1 -13.20549690229023 -1.53442812901290 -3.41596148064807
 1 -12.49896346054605 -0.22349688728873 -3.91989548524852
 1 -11.54587086638664 -1.75644051115111 -3.44259287928793
 1 -9.12403200620062 -4.48523926682668 -2.02680594469447
 1 -8.04147351215121 -5.74890489468947 -1.14943455645565
 1 -9.41208109300930 -4.76012103340334 -0.32419424202420
 1 -3.30560125602560 -3.40102335303530 -0.12212748424843
 1 -1.97118528502850 -4.35224166386639  3.76316923222322
 1 -3.25495510411041 -5.41574319191919  3.87145998489849
 1 -1.57957606910691 -5.95994526772677  3.10637459035903
 1  2.62157146124613 -1.75578741464146 -1.48067203220322
 1  2.39747722532253 -0.09633535393539 -1.93717686988699
 1  4.45210611621162 -1.05772798799880  0.56295951195120
 1  3.91091005450545  1.04124283468347 -2.83157152685268
 1  5.16119153085309  2.05085534443444 -1.88167463566357
 1  5.75047235483548  0.60984209170917 -3.05744447544754
 1  6.59157122002200  1.39794379437944 -0.21150850805081
 1  6.27636175557556 -0.12289032643264  0.65358507520752
 1  7.26173355805581 -1.15448468366837 -1.58166949054906
 1  7.86623905980598  0.36101931003100 -1.97199012261226
 1  9.15895794739474  0.97446533153315  0.18403603580358
 1  8.79596808550855 -0.63402890909091  0.78574643834383
 1  10.28167571897190  0.16416895459546 -1.75358024752475
 1  8.95949093459346 -2.33114109060906 -1.91182710751075
 1  10.69757231293129 -2.56855363926393 -2.16467071097110
 1  10.08502138813881 -2.99662160416042 -0.51366080578058
 1  11.47178485938594  0.85087731793179  0.18214970247025
 1  11.35906896029603 -0.82308827012701  0.81290191179118
 1  12.90898421732173 -1.40702886408641 -1.31415908350835
 1  12.67419117161716  0.32448313931393 -1.70521388268827
 1  13.88384982168217  0.97042959895990  0.61398874187419
 1  13.54168692179218 -0.74976458115812  1.08514503100310
 1  15.52184547304731  0.37287677267727 -1.40580493849385
 1  15.96785422832283 -2.29400969306931 -0.01254270817082
 1  15.07036008670867 -2.17873024862486 -1.51443885898590
 1  16.72833246264627 -1.66045157005701 -1.47488895839584
 1  16.02127732843284  1.49516735043504  0.74300084438444
 1  16.20901534873487 -0.35077425252525  1.32810557175718
 1  18.19531046974697 -0.37664421182118 -0.44615795619562
 1  17.78122518701871  1.17346466536654 -1.12234581038104
 1  18.32446323892389  2.49386354405441  0.96805481078108
 1  18.68496565686569  0.87999218021802  1.55596559685969
 1  20.27715262796280  0.50913706190619  0.01642870687069
 1  20.00129423602360  3.32394595649565 -0.55497909130913
 1  21.48463271537154  2.21251790459046 -1.25437680098010
 1  19.75407931233124  1.97854966576658 -1.76526349534953
 1  21.02439841504150  1.39771788088809  2.31673129032903
 1  22.10374208050805  2.01160238993899  1.01876684298430
 1  20.85928565846585  3.04857494079408  1.66844728522852

