%nproc=4
%Mem=2GB
# td=(NStates=1) CAM-B3LYP/6-31G(d,p) 

TD

0 1
<<<<<<< HEAD
12 -7.17587816081608  0.62798154625463  0.01766945434543
 6 -4.92499711771177 -1.91826300470047  0.40258679137914
 6 -4.84298422732273  2.79303775107511  1.07774413931393
 6 -9.37979271477148  3.04755025052505 -0.46571943164316
 6 -9.55825613931393 -1.70624613561356 -0.70714714381438
 7 -5.13813723832383  0.46391620972097  0.76634705300530
 6 -4.40665037113711 -0.70877069906991  0.84026204940494
 6 -2.96105511091109 -0.31202062776278  1.17143749794980
 6 -3.02585602400240  1.08676134443444  1.61443217391739
 6 -4.46484347924792  1.47857860666067  1.08108513841384
 6 -2.90924600670067  1.36359864796480  3.06012742164216
 6 -1.87817127812781 -0.64998025942594  0.07733169146915
 6 -0.36679410201020 -0.39346369356936  0.48497262656266
 6  0.62780391759176 -0.64771828472847 -0.58795417591759
 8  0.26339757985799 -1.03374878247825 -1.67310364206421
 8  1.88935074557456 -0.47101449784978 -0.20315710461046
 7 -7.15352580048005  2.63658924872487  0.22409110461046
 6 -6.07522680168017  3.34632560836084  0.71574510811081
 6 -6.49021627472747  4.74106839623962  0.77013770097010
 6 -7.75111781878188  4.88594922642264  0.34526291759176
 6 -8.07217148874888  3.50895009030903 -0.05000245394539
 6 -5.50410836753675  5.85840830673067  1.08104286478648
 6 -8.71564936253625  5.99071010471047  0.29089607500750
 6 -8.52213610491049  7.19437555615562  0.85444169396940
 7 -9.13150542314231  0.67479034013401 -0.40166420012001
 6 -9.80546680638064  1.79614956805681 -0.59202552665266
 6 -11.20066916351635  1.54471281038104 -1.07184890439044
 6 -11.27359976387639  0.09889525362536 -1.28881759575958
 6 -9.98769445014501 -0.38799077337734 -0.85569058515852
 6 -12.22895171887189  2.54777534853485 -1.36706348114812
 6 -12.46305085138514 -0.77668507860786 -1.72750355885589
 6 -12.25235272367237 -1.11761417261726 -3.13373849244925
 7 -7.23678314661466 -1.40516012961296 -0.19385406240624
 6 -8.25826606640664 -2.30373554565457 -0.48710366556656
 6 -7.92240838643864 -3.67012528002800 -0.38270554785479
 6 -6.51567545164516 -3.52303664066407 -0.11935366726673
 6 -6.22585518191819 -2.09714799609961  0.03009581378138
 6 -8.68362582998300 -4.83279612201220 -0.58748722712271
 6 -5.32006647694769 -4.30226410991099  0.24893776637664
 8 -5.18558739663966 -5.52742722612261  0.28905593629363
 6 -4.24122770217022 -3.20722651245124  0.58530839613961
 6 -3.44664529542954 -3.66610183148315  1.80322069496950
 8 -3.59097069766977 -3.17425416161616  2.92300498159816
 8 -2.67968916261626 -4.65955067746775  1.68057663856386
 6 -2.05185577347735 -5.19209343844384  2.93487842334233
 6  2.83168568026803 -0.81127892249225 -1.15438663906391
 6  4.16053814281428 -0.49955813211321 -0.46945709470947
 6  5.04711819621962  0.28760502590259 -0.96599637233723
 6  4.93131155415541  1.25758840814081 -2.19835400070007
 6  6.39515384818482  0.27790964116412 -0.25265175037504
 6  7.55693323122312 -0.27875822272227 -1.07398434893489
 6  8.94479635223522 -0.21845697609761 -0.31945375817582
 6  10.20449107360736 -0.65966303800380 -1.01714268476848
 6  10.18053475367537 -2.11153208930893 -1.43616708170817
 6  11.51060393729373 -0.33693747454745 -0.11381051245125
 6  12.84752966066607 -0.68333238433843 -0.76960698359836
 6  14.01779124752475 -0.12017322012201  0.09102617011701
 6  15.41525765066507 -0.18314204330433 -0.51052929272927
 6  15.80411208010801 -1.67136477027703 -0.94014363206321
 6  16.45630973687369  0.40070443044304  0.50417492469247
 6  17.87242183158316  0.65674707310731 -0.06964277887789
 6  18.78234860436044  1.28320653765377  0.87425785878588
 6  20.24566323552355  1.45937627112711  0.40796555975598
 6  20.35497685148515  2.23217151435144 -0.92068306100610
 6  21.08609954075408  2.12123505980598  1.48489385278528
 1 -3.99797128162816  3.42259778117812  1.68279286618662
 1 -10.03343373607361  3.88279911491149 -0.50897628912891
 1 -10.43749703910391 -2.43950329112911 -1.05765241744174
 1 -2.69931638853885 -0.91814012791279  1.90672136333633
 1 -2.33402700790079  1.91928551115112  1.15471612201220
 1 -1.86088054555456  1.18786923982398  3.47970168366837
 1 -3.25762082208221  2.41343540104010  3.16767893329333
 1 -3.86820026272627  0.73193787778778  3.47341975477548
 1 -2.02435492039204 -1.66205616601660 -0.10775468466847
 1 -2.23746541904190 -0.08499124872487 -0.90160019961996
 1 -0.20797431483148  0.42215682958296  1.07856825592559
 1 -0.19404720672067 -1.19392390759076  1.26113006820682
 1 -5.90618939433943  6.73891253535353  0.64689039823982
 1 -5.36554354375438  6.14581794489449  2.28740503760376
 1 -4.47853180918092  5.46455762216222  0.86945012061206
 1 -9.57647970047005  5.77907405550555 -0.49912014021402
 1 -9.04038525442544  8.05065580448045  0.51309093089309
 1 -7.67434690049005  7.40888728822882  1.61395978147815
 1 -11.78347245234523  3.38992931893189 -2.12079508420842
 1 -13.11345101430143  1.91491538273827 -1.55001619311931
 1 -12.52992472357236  3.18288694339434 -0.56057730173017
 1 -12.71964674307431 -1.70021946704670 -1.06104105900590
 1 -13.46135485438544 -0.27046378317832 -1.71803733123312
 1 -12.91828818141814 -1.72905759195920 -3.55855574007401
 1 -12.39406297049705 -0.31599613721372 -3.86239973567357
 1 -11.33001928122812 -1.60714558165817 -3.46126474647465
 1 -9.37877748074808 -4.95620636353635 -1.53241650575057
 1 -8.22790215501550 -5.76489649384938 -0.85806541954195
 1 -9.24475436033603 -4.81920694199420  0.36680485788579
 1 -3.50848154405441 -3.55010826152615 -0.29830510201020
 1 -1.64981314781478 -4.53096953665366  3.54571748704871
 1 -2.77263687228723 -5.66246786438644  3.63276611551155
 1 -1.45959407090709 -6.00759003220322  2.27556150905091
 1  2.68800810491049 -1.87285912181218 -1.53690765576558
 1  2.65071254885489 -0.12649837023702 -2.06189934213421
 1  4.26844775037504 -1.03114532973297  0.50018323432343
 1  3.79387835133513  1.40197890829083 -2.41378974867487
 1  5.40288570027003  2.30147040594059 -1.89591605980598
 1  5.53418072567257  0.71205231273127 -3.07206593759376
 1  6.63424548744874  1.38537253725373  0.07445008780878
 1  6.39465358475848 -0.36158419581958  0.59594931163116
 1  7.31793917861786 -1.32276151135113 -1.54942626622662
 1  7.75038747464746  0.31634484258426 -2.06812973657366
 1  8.98748079967997  0.77425531053105 -0.02025439323932
 1  8.89621811051105 -0.92873838003800  0.57179504320432
 1  10.26515406680668 -0.03610107240724 -1.91329621912191
 1  9.42896788228823 -2.38107608410841 -2.23575950075007
 1  11.11883443914391 -2.19618640254025 -2.10129437333733
 1  10.40095298129813 -2.74638658065807 -0.71032047174717
 1  11.46704438533853  0.81121335153515  0.19805129262926
 1  11.20845389878988 -1.09530549184919  0.78607922952295
 1  12.79264258315832 -1.97008516971697 -1.02556022362236
 1  12.86107986048605 -0.47016632563256 -1.88743210451045
 1  13.92991442814281  1.02563511951195  0.27572491549155
 1  14.15763851695170 -0.62346195089509  1.00339685618562
 1  15.71028431693169  0.47152663766377 -1.51482584058406
 1  16.02739018191819 -2.19737002910291  0.03405195129513
 1  14.80642369306931 -2.22328470407041 -1.44412182728273
 1  16.73880350975098 -1.85783130803080 -1.44114558405841
 1  15.90877607830783  1.35476331003100  0.91140768506851
 1  16.63369781698170 -0.30807998309831  1.25222798399840
 1  18.10896183488349 -0.33253980138014 -0.28467180758076
 1  17.69629669416942  1.07343466236624 -1.23246682248225
 1  18.48512930553055  2.27056121382138  1.28425643094309
 1  18.75953311361136  0.69177335833583  1.71153115341534
 1  20.55440035273527  0.56564271247125 -0.05153808980898
 1  19.76448055465546  3.26799036093609 -0.83410700410041
 1  21.43568782088209  2.37901455425543 -1.23065442874287
 1  20.04431833623363  1.66295810661066 -1.82661963096310
 1  20.67780375557556  1.56615472457246  2.55968558575858
 1  21.94243594989499  2.24566579627963  1.19280424672467
 1  20.66903663356336  3.28645872917292  1.55244568506851
=======
12 -7.12309288228823  0.63686243434343  0.08058574597460
 6 -4.86535115311531 -1.97471865026503  0.48720525322532
 6 -4.79094902380238  2.86296474377438  1.00794715961596
 6 -9.40262499799980  3.13455895139514 -0.46955981568157
 6 -9.61659197289729 -1.69985549654966 -0.89546597569757
 7 -5.15710913551355  0.39567938603860  0.71611202950295
 6 -4.39566927302730 -0.75747556955696  0.75217324052405
 6 -2.89145815121512 -0.32697212291229  1.27379773397340
 6 -3.17354079247925  1.11456412471247  1.63803453415342
 6 -4.47556455135514  1.50534128292829  1.10115714561456
 6 -3.10260534263426  1.31619390749075  3.22824423332333
 6 -1.96761022202220 -0.69628488988899  0.14446840514051
 6 -0.49427685028503 -0.54220856805681  0.52153628292829
 6  0.48325946314631 -0.68725223812381 -0.57130251075107
 8  0.21351259135914 -0.97850325792579 -1.75280161186119
 8  1.76548835933593 -0.45893328972897 -0.13967075597560
 7 -7.05461590949095  2.65115070487049  0.38469716521652
 6 -6.04505378437844  3.43339431523152  0.72323585718572
 6 -6.39357661076108  4.82459674907491  0.75049573677368
 6 -7.67359006600660  4.86064669616962  0.34232262356236
 6 -8.12171644324433  3.51493068836884  0.08306085238524
 6 -5.33312126882688  5.88470093599360  0.98370313081308
 6 -8.50642844044404  6.04232526622662  0.31875886128613
 6 -8.29741363266327  7.26507262586259  0.83427967776778
 7 -9.15014728732873  0.62203506460646 -0.56504053775378
 6 -9.82685894559456  1.85624557765777 -0.73969029312931
 6 -11.20875997259726  1.41262960206021 -1.12851457095710
 6 -11.26753915781578  0.11972733683368 -1.26726544054405
 6 -9.98247392809281 -0.33239521382138 -0.94970998709871
 6 -12.31430025372537  2.41674224522452 -1.38955573037304
 6 -12.38359290559056 -0.71176858695870 -1.74838564706471
 6 -12.30473796219622 -1.08147055825583 -3.11470658925893
 7 -7.26669613791379 -1.35853546714671 -0.19302397939794
 6 -8.32462270207021 -2.20677584968497 -0.47845280048005
 6 -7.86647279287929 -3.60416868436844 -0.37847512481248
 6 -6.60497438153815 -3.58854319131913 -0.00638237013701
 6 -6.15765836223622 -2.16747502880288  0.13565636983698
 6 -8.68558602600260 -4.88265110751075 -0.69641812021202
 6 -5.34118858915892 -4.41833571707171  0.13162603520352
 8 -5.08102694059406 -5.52963744714471  0.25041207190719
 6 -4.12605618501850 -3.35544133393339  0.49181904720472
 6 -3.48201883278328 -3.68688390969097  1.85029540244024
 8 -3.79328092869287 -3.22092882908291  2.98525120622062
 8 -2.69943113681368 -4.74673939633963  1.71386996789679
 6 -2.17352794069407 -5.33196742584258  2.98243317881788
 6  2.72896540824082 -0.55703349794979 -1.23621482188219
 6  4.12176426542654 -0.46903507980798 -0.64691484048405
 6  5.15117860226023  0.30457672307231 -0.99162893559356
 6  5.15136355935594  1.33182583188319 -2.12513667896790
 6  6.49123345614561  0.34589643984398 -0.26052253745375
 6  7.68736627452745 -0.30515086198620 -0.97154410491049
 6  8.93439531213121 -0.30395552595260 -0.14969678247825
 6  10.16554717921792 -0.73596066776678 -0.85463643414341
 6  10.21004770497050 -2.16103703980398 -1.27981144614461
 6  11.41740461736174 -0.44083786458646 -0.02969210061006
 6  12.76443135083508 -0.50454450555056 -0.69749977287729
 6  13.87191666006601 -0.28319952275228  0.14918198569857
 6  15.29716584148415 -0.18271200030003 -0.60824906470647
 6  15.80990265916592 -1.53978161196120 -1.05001461916192
 6  16.41150525642564  0.44446880688069  0.40997550475048
 6  17.92958754815481  0.45404680308031 -0.05339115371537
 6  18.82776314581458  1.39097731473147  0.83501393439344
 6  20.27712638183818  1.49818015151515  0.34798956215622
 6  20.37843919771977  2.19245754295430 -1.04405539823982
 6  21.13487441824183  2.36925986228623  1.31241660506051
 1 -3.96491797629763  3.47950347174717  1.36730131703170
 1 -10.24497489018902  3.87877871287129 -0.48348373987399
 1 -10.30500378977898 -2.44539388018802 -1.23974062626263
 1 -2.70528698559856 -1.14351266516652  2.14890558175818
 1 -2.33764736993699  1.71010459305931  1.13484413481348
 1 -2.03747820532053  0.80893134603460  3.74440815431543
 1 -3.28226328632863  2.34890894839484  3.40723288868887
 1 -3.90162360506051  0.74585926992699  3.65443785658566
 1 -2.29097158205821 -1.67705766616662 -0.01807571677168
 1 -2.23904557705771 -0.20721347094709 -0.92989302890289
 1 -0.27639115651565  0.33920853475348  1.15999639873987
 1 -0.35654345634563 -1.37904241944194  1.25578953415342
 1 -5.34497327272727  6.69763840794079  0.10733644284428
 1 -5.28392538193819  6.51678504160416  2.09051534863486
 1 -4.38390234623462  5.56527769416942  0.85758893449345
 1 -9.24841689418942  6.05513166126613 -0.48888911711171
 1 -9.09696091199120  8.12627336623662  0.68421804360436
 1 -7.60345981178118  7.59601600110011  1.79616800230023
 1 -12.20445455055506  2.87143746974697 -2.37207021172117
 1 -13.21661133033303  1.67631152235224 -1.74632582408241
 1 -12.43546527762776  3.32194084878488 -0.78962020602060
 1 -12.34920969936994 -1.53093253835383 -1.18496345124512
 1 -13.41465018391839 -0.07744448124813 -1.44442997049705
 1 -13.19330568316832 -1.67997268346835 -3.52130201470147
 1 -12.53902746694670 -0.18701323892389 -3.84712820852085
 1 -11.50705698499850 -1.57116198329833 -3.29268788878888
 1 -9.22605220822082 -4.71972271517152 -1.71394465856586
 1 -7.98629799459946 -5.76500650485049 -0.52644225722572
 1 -9.48559844474447 -4.90479550085009  0.13735191259126
 1 -3.38355905180518 -3.32814606530653 -0.09656492799280
 1 -1.79891805830583 -4.45730216991699  3.52450536583658
 1 -2.88065767436744 -6.04252587018702  3.46613945284528
 1 -1.21786989848985 -5.86188546174617  2.43123707660766
 1  2.63410271437144 -1.53652548844884 -1.54655862086209
 1  2.40506798439844  0.28328260786079 -2.08777192939294
 1  4.26433733933393 -1.13406562176218  0.49049226522652
 1  4.32898186168617  1.11524023442344 -2.82951132083208
 1  5.05664107580758  2.53555381428143 -1.84685115331533
 1  5.98045535313531  1.07405851335133 -2.76922565356536
 1  6.69241130403040  1.44136813681368 -0.11884924212421
 1  6.44583870327033 -0.10223826122612  0.77321703840384
 1  7.32859024372437 -1.19359859505951 -1.53565488908891
 1  7.66718915481548  0.32237544564456 -1.91216414001400
 1  8.86499855145514  0.75089297429743  0.61615924812481
 1  8.66768525722572 -1.00056556275628  0.77120498419842
 1  10.44976252765276 -0.10935839813981 -1.93358824832483
 1  9.33207819331933 -2.47999597609761 -1.96682260706071
 1  11.11068362406241 -2.28945572947295 -1.94739898379838
 1  10.38664155015502 -2.72442438443844 -0.33612305200520
 1  11.21767944884489  0.42153438363836  0.28838032553255
 1  11.21736478987899 -1.04490045134513  0.79891051265127
 1  13.00380369926993 -1.40854901610161 -1.17609527712771
 1  12.69019277177718  0.32498318931893 -1.56900026132613
 1  13.84914635133513  0.73819637563756  0.70103744674467
 1  14.17655040814081 -1.07539714441444  1.04281079757976
 1  15.37346063456346  0.50550003500350 -1.30395475347535
 1  15.91394883778378 -2.37119741184118 -0.17498895279528
 1  15.21361441214121 -1.90875325092509 -1.92793020812081
 1  16.71824145354536 -1.37350287518752 -1.75574704420442
 1  16.31229643034303  1.53272110581058  0.86432297659766
 1  16.44262871007101 -0.60016919201920  1.25096785798580
 1  18.20589152785278 -0.69217576497650 -0.01520486088609
 1  17.94646171067107  0.61444876377638 -1.02731630743074
 1  18.48768956155616  2.51492565026503  0.98445645094509
 1  18.65616277657766  0.96406058705871  1.76437643794379
 1  20.79974488718872  0.40779692789279  0.33267033103310
 1  19.93083719031903  3.15184874677468 -1.01133472687269
 1  21.36508076017602  2.22908956175618 -1.36652801610161
 1  19.76697060146015  1.63315512631263 -1.88338530753075
 1  21.17206318151815  1.95908401750175  2.30644026122612
 1  22.05090679697970  2.42520375007501  0.83817878417842
 1  20.92163189308931  3.51672175547555  1.17782822332233
>>>>>>> 8e03b5b5abfc0030b3aa597dc0de36371bfbd096

