%nproc=4
%Mem=2GB
# td=(NStates=1) CAM-B3LYP/6-31G(d,p) 

TD

0 1
12 -7.19337991099110  0.61671041914191  0.08882657005701
 6 -4.87786240424042 -1.95015619401940  0.43613014571457
 6 -4.81908183708371  2.83077152445244  1.12250861576158
 6 -9.44923965946595  3.10878637413741 -0.46583944364436
 6 -9.56320663436344 -1.68890440144014 -0.85292172127213
 7 -5.12712613721372  0.40295011311131  0.65525594389439
 6 -4.31738144424442 -0.74314413641364  0.76623464666467
 6 -2.84372337773777 -0.42958238393839  1.24297465166517
 6 -3.09260269866987  1.11632430073007  1.61695242594259
 6 -4.48081507640764  1.47809855865587  1.14858188808881
 6 -2.90015509760976  1.41844413251325  3.12427383628363
 6 -1.93830729172917 -0.73817907930793  0.06173013131313
 6 -0.41992941554155 -0.47766211341134  0.54179830913091
 6  0.55763690089009 -0.67700121302130 -0.59953533403340
 8  0.27529876997700 -1.13090849844984 -1.72131846354635
 8  1.79594140464046 -0.31858925532553 -0.21019780868087
 7 -7.19194964286429  2.65172076187619  0.27921661716172
 6 -6.08456773577358  3.37801877767777  0.80461399499950
 6 -6.39791704480448  4.73541783118312  0.80919160636064
 6 -7.80629333633363  4.80127075857586  0.30550894219422
 6 -8.18784305590559  3.45565476077608  0.00282282858286
 6 -5.54297225392539  5.84907737363736  1.38738349884988
 6 -8.61126892449245  6.04911594529453  0.24084106950695
 6 -8.54971886318632  7.17947406600660  0.92316856665667
 7 -9.06474874747475  0.66908977007701 -0.63661769546955
 6 -9.83877013671367  1.83019297239724 -0.78516484058406
 6 -11.20646974357436  1.37341568066807 -1.18499021852185
 6 -11.26460886478648  0.08505386948695 -1.36463517751775
 6 -9.89596527722772 -0.41443341764176 -0.99461447754775
 6 -12.25537436113611  2.47929850085008 -1.44081085588559
 6 -12.36949149544954 -0.78830624072407 -1.85634644314431
 6 -12.23457094549455 -1.02001441264126 -3.41393651225122
 7 -7.25621508980898 -1.40283989758976 -0.14465914291429
 6 -8.28614885468547 -2.23134830693069 -0.45569052425243
 6 -7.89228537413741 -3.64565283278328 -0.43971124842484
 6 -6.58345222932293 -3.56499083608361 -0.11090282218222
 6 -6.23683628002800 -2.14584286558656  0.03497630183018
 6 -8.86128359575958 -4.82496533893389 -0.78771725012501
 6 -5.39323379367937 -4.38355223872387  0.29663253585359
 8 -5.18109694759476 -5.58206268966897  0.28592562326233
 6 -4.19494307370737 -3.37442323212321  0.62283214851485
 6 -3.55061569246925 -3.73688891019102  1.87275764866487
 8 -3.67534913551355 -3.09967670387039  2.93627630873087
 8 -2.75138633233323 -4.72332705510551  1.83972255315532
 6 -2.00857144504450 -5.15106933603360  3.00448538403840
 6  2.84482699439944 -0.54240203480348 -1.17021822222222
 6  4.14667675667567 -0.38677685398540 -0.52523267226723
 6  5.21298478287829  0.41235750115012 -0.86531630433043
 6  5.15289371237124  1.22196484578458 -2.11845601090109
 6  6.50065439823982  0.48804065426543 -0.11740822602260
 6  7.61668920682068 -0.05392573947395 -0.92167911841184
 6  8.92081395399540 -0.09740487088709 -0.01676348914891
 6  10.20639126362636 -0.70926799849985 -0.83873484398440
 6  10.07960466066607 -2.15454639073907 -1.21419488448845
 6  11.45789866676668 -0.36468024882488  0.11563243184318
 6  12.83278818651865 -0.38705275637564 -0.67482750565057
 6  14.01239070747075 -0.05911711451145  0.21983905140514
 6  15.41479760466047 -0.19520324942494 -0.47541578137814
 6  15.67363903280328 -1.69244687848785 -0.99617923562356
 6  16.42938704460446  0.35212957295730  0.42733724092409
 6  17.91901649104910  0.34351574997500 -0.11429724432443
 6  18.93180354985499  1.21604982198220  0.72470290329033
 6  20.31286995619562  1.37984831833183  0.13965872907291
 6  20.17842919671967  2.13117141434143 -1.22080307300730
 6  21.22394332513251  2.06363930023002  1.10768613201320
 1 -3.95587707220722  3.56772229362936  1.47831241814181
 1 -10.14908530123012  3.87308814381438 -0.57880327182718
 1 -10.19224251365137 -2.38734807560756 -1.25212186438644
 1 -2.65619207610761 -1.08345665956596  2.00184087528753
 1 -2.26205981118112  1.63674725732573  1.03261391179118
 1 -1.88615307280728  0.97799825272527  3.37862157565757
 1 -3.07158221822182  2.50926498399840  3.40386255165517
 1 -3.59708315101510  0.80104478847885  3.63737615041504
 1 -1.90136262116212 -1.91413137353735 -0.25866977617762
 1 -2.23453512601260 -0.10561331093109 -0.74568460806081
 1 -0.24402792019202  0.42967758165817  1.00337073617362
 1 -0.20891869386939 -1.18871338653865  1.28268222342234
 1 -5.94197297269727  6.78548719281928  0.93922963216322
 1 -5.52375936533653  5.86882024512451  2.47732402950295
 1 -4.51917587358736  5.75880704710471  1.03561673727373
 1 -9.39598165066507  5.86144229232923 -0.42494272247225
 1 -9.25785700160016  7.97610834973497  0.58981860366037
 1 -7.94942440824082  7.15809220872087  1.65358374387439
 1 -11.94998910401040  3.15697602360236 -2.37331033573357
 1 -13.23688335753575  2.01560545174517 -1.48662985448545
 1 -12.45302703380338  2.87287594229423 -0.46700794479448
 1 -12.44395917431743 -1.69683912901290 -1.25231018591859
 1 -13.29878859775978 -0.25845258205821 -1.57624315181518
 1 -13.20862721532153 -1.55754044024402 -3.77656754125412
 1 -12.27620118431843  0.03256871927193 -3.74806830253025
 1 -11.21212749204921 -1.71680654775478 -3.68154677467747
 1 -9.20754035703570 -4.89291003390339 -1.73441670577058
 1 -8.15102446724672 -5.67287729192919 -0.56736634963496
 1 -9.53529341424142 -4.66843186448645  0.09023720112011
 1 -3.55084578047805 -3.52240549124913 -0.26927219871987
 1 -1.40053822032203 -4.36754319401940  3.27215013031303
 1 -2.65716532513251 -5.36386800440044  3.85320815971597
 1 -1.46794490599060 -6.20690996419642  2.74626857975798
 1  2.77131643574357 -1.47288912481248 -1.76407037203720
 1  2.51446892449245  0.15786006560656 -2.06897004920492
 1  4.06064697029703 -0.72376459165917  0.50104332033203
 1  4.14411337483748  1.36682539293929 -2.67094546424642
 1  5.46642205390539  2.26052631153115 -1.89916638483848
 1  5.84878218581858  0.82397350485049 -2.97049578057806
 1  6.53534559745975  1.43594759475948  0.28491113391339
 1  6.64557867726773 -0.15801383878388  0.94195391209121
 1  7.35123250795079 -1.07614684988499 -1.01687301090109
 1  7.77719015491549  0.57911111921192 -1.80132305590559
 1  9.07862991459146  0.77515540054005  0.32851048324832
 1  8.71740022872287 -0.74518002420242  0.79853771747175
 1  10.20928848024803 -0.07597505980598 -1.94695958545855
 1  9.24513949944994 -2.19040701720172 -1.85773169796980
 1  10.89046160186019 -2.35071185508551 -1.62127637153715
 1  10.09124201020102 -2.72133407540754 -0.37964740444044
 1  11.45348302920292  0.79261149134913  0.57869935743574
 1  11.60174322772277 -1.03721968326833  0.92895351695170
 1  12.71030434933493 -1.40684884608461 -1.22190985858586
 1  12.77146089858986  0.26375706670667 -1.51102446374637
 1  13.92093353005301  1.05202775877588  0.58675601860186
 1  14.05204795789579 -0.61933153785379  1.28294481098110
 1  15.34026731523152  0.26198568356836 -1.33794815281528
 1  15.62092953585359 -2.52474276637664 -0.11612306620662
 1  14.94254730543054 -1.98524089968997 -1.86866428152815
 1  16.68667829722973 -1.71395692059206 -1.20098156765677
 1  16.22389759045905  1.40939877357736  0.72545909020902
 1  16.39481392859286 -0.26611578667867  1.41229399059906
 1  18.19729066776678 -0.84566111351135 -0.22129546994699
 1  17.81182824732473  0.72330964986499 -1.17685126092609
 1  18.51011180378038  2.39912407010701  0.67733573887389
 1  19.01194835513552  0.85035921692169  1.78695869616962
 1  20.57035194789479  0.56411255945595 -0.04547748374837
 1  19.79637374397440  3.14059762166217 -0.92001559495950
 1  21.29615386748675  2.50314696749675 -1.69116047934794
 1  19.62004590899090  1.70382219301930 -2.05218218721872
 1  21.18664463966397  1.65245335443544  2.04572418961896
 1  22.31167287358736  2.08411964166417  0.68923388968897
 1  20.63422315221522  3.09744982828283  1.15485592609261

