%nproc=4
%Mem=2GB
# td=(NStates=1) CAM-B3LYP/6-31G(d,p) 

TD

0 1
12 -7.14801537453745  0.60661941004100  0.13339102650265
 6 -4.88352297029703 -1.94700587898790  0.49886641934193
 6 -4.78851878077808  2.82440088738874  1.11156752165217
 6 -9.35106984248425  3.19187468296830 -0.46484934463446
 6 -9.51660197389739 -1.69571508250825 -0.89190561966197
 7 -5.03787721232123  0.43094291239124  0.71036145444544
 6 -4.33803350945095 -0.73363318531853  0.84961298449845
 6 -2.83012201760176 -0.39417884358436  1.28935929012901
 6 -3.08417185558556  1.00614328262826  1.72824355505551
 6 -4.31631862676268  1.53714446324632  1.15738276817682
 6 -2.85972105420542  1.16649893799380  3.27071848074807
 6 -1.89488294929493 -0.65002026342634  0.12712667096710
 6 -0.38474589718972 -0.43382772997300  0.60081421072107
 6  0.51601273847385 -0.76038955185519 -0.55642102260226
 8  0.22037327742774 -1.20030543814381 -1.59817614931493
 8  1.83605541604160 -0.38373576997700 -0.19129591849185
 7 -7.13643409130913  2.56475206500650  0.28155685118512
 6 -6.09706898589859  3.28734971077108  0.77798133173317
 6 -6.42642989608961  4.78179246864686  0.81239192639264
 6 -7.69336204320432  4.83011364286429  0.35004339563956
 6 -8.14782905450545  3.49158835413541  0.07206975327533
 6 -5.37296525322532  5.79661212711271  1.25873063356336
 6 -8.52949074667467  6.05617665136514  0.17845483088309
 6 -8.50691458275828  7.19790590919092  0.85165141494149
 7 -9.07229950255025  0.74941780288029 -0.55181921562156
 6 -9.88333459315932  1.85985593869387 -0.76744306840684
 6 -11.21851094769477  1.50379871897190 -1.29862158165817
 6 -11.17043944784478  0.16738210231023 -1.40525923992399
 6 -9.96553223392339 -0.35092706700670 -0.90959597569757
 6 -12.24655347904790  2.48627919891989 -1.44833160796080
 6 -12.30675522182218 -0.71532894299430 -1.78303911241124
 6 -12.18676616501650 -1.17662007320732 -3.35828094669467
 7 -7.20088955725573 -1.34525413901390 -0.18632330933093
 6 -8.29736997679768 -2.21159633173317 -0.53329828502850
 6 -7.81469761536154 -3.59292756025603 -0.47432470977098
 6 -6.53657754185419 -3.56522085908591 -0.04901663356336
 6 -6.11660425682568 -2.20286856815682  0.03963676787679
 6 -8.60401786918692 -4.83735657805781 -0.84709318771877
 6 -5.35785025532553 -4.34022790629063  0.19606247884788
 8 -5.15858469636964 -5.57443192659266  0.07980501120112
 6 -4.24545812521252 -3.38592438223822  0.61320118541854
 6 -3.61098172907291 -3.75666088738874  1.97989836273627
 8 -3.88557015761576 -3.24337107330733  3.10957363846385
 8 -2.78266946064606 -4.68789351175117  1.87778635953595
 6 -2.11382197009701 -5.03582781188119  3.11360629612961
 6  2.82784529622962 -0.79278707330733 -1.23190439083908
 6  4.16388847784778 -0.43971214751475 -0.59634978397840
 6  5.06436992139214  0.38620488588859 -1.08093786648665
 6  4.85767419041904  1.22399504880488 -2.36892105740574
 6  6.36474080688069  0.48608045824582 -0.34903138833883
 6  7.55113265116512 -0.24241458835884 -1.07551450195019
 6  8.82277415001500 -0.09288441884188 -0.22954476727673
 6  10.19118974347435 -0.53926099779978 -0.86858782928293
 6  10.08635533573357 -2.03126406250625 -1.45891935693569
 6  11.42033491039104 -0.34810859165917  0.02356322492249
 6  12.78273318101810 -0.46568061916192 -0.71492151505151
 6  13.90922039043904 -0.10155135793579  0.29066613411341
 6  15.32171829672967 -0.09956368546855 -0.40760900070007
 6  15.63032470137014 -1.52648028182818 -0.91534115181518
 6  16.41385549144914  0.37486184618462  0.53688819601960
 6  17.83528811821182  0.51357275567557 -0.10013582818282
 6  18.79821019051905  1.35075329232923  0.76660709370937
 6  20.27569623882388  1.42401273477348  0.17337210041004
 6  20.33202455625563  2.16636493369337 -1.10963195589559
 6  21.17743867466747  1.86515945224522  1.17080244364436
 1 -4.03923540804080  3.50325584698470  1.52110669756976
 1 -10.13674406710671  3.93757459245925 -0.59411480298030
 1 -10.35662895229523 -2.34511385218522 -1.03732038423842
 1 -2.61666812371237 -0.92598091199120  2.26043673487349
 1 -2.26338994419442  1.59102268486849  1.11040169056906
 1 -2.01024548204820  0.68792924582458  3.71215492899290
 1 -2.84703976397640  2.18753281078108  3.55061722712271
 1 -3.64395783848385  0.69877456145615  3.84201661446145
 1 -1.80145263016302 -1.59583954435444 -0.36848075727573
 1 -2.15725739823982  0.10304755515552 -0.82010204980498
 1 -0.36544006140614  0.63452806670667  0.80856125522552
 1 -0.19252705470547 -0.93660817601760  1.69348330353035
 1 -5.39267804320432  7.03073171727173  0.84323003220322
 1 -5.30059704910491  6.19067243034303  2.36786308340834
 1 -4.39274323032303  5.42053321972197  0.75626880248025
 1 -9.32016406890689  5.77162331043104 -0.63575380358036
 1 -9.12212342824282  7.97342808170817  0.60820044184419
 1 -7.82477194299430  7.39772617211721  1.64707309280928
 1 -12.24405851095110  3.35827615361536 -2.26970997569757
 1 -13.21983165236524  1.92531642284228 -1.61966315781578
 1 -12.36113784488449  3.29711836653665 -0.62254349834984
 1 -12.43028780718072 -1.59297874297430 -1.23860881578158
 1 -13.29620833973397 -0.31244798159816 -1.71072660016002
 1 -12.91310766336634 -1.93572825902590 -3.66690657515752
 1 -11.94624818901890 -0.46145068266827 -3.94176767246725
 1 -11.22217849714971 -1.59001386848685 -3.32126074607461
 1 -9.18755835883588 -4.80147088998900 -1.71041430553055
 1 -7.67867723252325 -5.63573357755775 -1.15617523052305
 1 -9.21732161706171 -5.16637165846585 -0.00899272187219
 1 -3.63159385528553 -3.46000925162516 -0.15371064256426
 1 -1.27395556205621 -4.31188762846285  3.51837475277528
 1 -2.74901451005100 -5.18244986258626  3.89956279517952
 1 -1.62903101460146 -6.16412568576858  2.91755570847085
 1  2.67724702880288 -1.84952678857886 -1.60273423842384
 1  2.44134161176118 -0.24212993339334 -2.14122727492749
 1  4.40885179077908 -0.95015723092309  0.44588780478048
 1  3.91239020252025  1.01427013741374 -2.68349671937194
 1  4.98261367306731  2.21756201510151 -1.94484095229523
 1  5.49701700930093  0.93998510601060 -3.14779351035104
 1  6.71526358925893  1.47162116211621 -0.03247060426043
 1  6.31492561196120  0.22218418101810  0.73492320902090
 1  7.57417480218022 -1.31272050725073 -1.22328365196520
 1  7.65172760866087  0.21148435653565 -2.02501542514251
 1  8.96356840844084  0.94188207320732 -0.02283465126513
 1  8.57681617031703 -0.52286779297930  0.84880274397440
 1  10.18170572197220 -0.02109957225723 -1.76244113361336
 1  9.25841082658266 -2.11677965446545 -2.25760168496850
 1  11.01358391409141 -2.34135091899190 -1.76734097799780
 1  9.96336922292229 -2.48504044604460 -0.44299373907391
 1  11.35849353025302  0.72008423862386  0.37370885838584
 1  11.23353640704070 -1.00538649994999  0.89303992559256
 1  12.96739005790579 -1.45880404160416 -1.31947961556156
 1  13.16922067456746  0.23266395739574 -1.61870523182318
 1  13.85758719541954  0.92756531253125  0.74155149814982
 1  13.93598635173517 -0.59591919661966  1.26366288278828
 1  15.25117840634063  0.55841532653265 -1.28077243524352
 1  15.43077051995200 -2.15516580868087  0.03153169926993
 1  14.76925997669767 -1.74896727232723 -1.51272868796880
 1  16.63490311971197 -1.69843536843684 -1.26225769526953
 1  16.15426062676267  1.31042887658766  0.96592313661366
 1  16.60292473967397 -0.21552072717272  1.33605636683668
 1  18.13787472617262 -0.60261680908091 -0.16188952935294
 1  17.72621968646865  0.86766408530853 -1.15082865866587
 1  18.57891868446845  2.46521067876788  0.62921092639264
 1  18.65351251155116  0.87015119611961  1.79797979827983
 1  20.54082899559956  0.32615876407641 -0.23029596559656
 1  20.00696480308031  3.18757231913191 -1.05681927532753
 1  21.33985823792379  2.17896454925493 -1.41961332463246
 1  19.66076998139814  1.72828463926393 -1.87635460446045
 1  21.35857183238324  1.22740084918492  1.99487910511051
 1  22.21666337263726  2.08625985568557  0.89711467776778
 1  20.70462019191919  2.81786186948695  1.72929336983698

