%nproc=4
%Mem=3GB
# td=(NStates=1) iop(3/107=0140000000,3/108=0140000000) CAM-B3LYP/6-31G(d,p) 

TD

0 1
12 -7.08161285298530  0.63078146164616  0.12451882188219
 6 -4.89843866036604 -2.02517974857486  0.50850625302530
 6 -4.78244427502750  2.78457717561756  1.21077118231823
 6 -9.29357612211221  3.18409596259626 -0.54684716001600
 6 -9.56653275127513 -1.75919768546855 -0.80156696159616
 7 -5.15655268646865  0.44856094669467  0.74489231323132
 6 -4.42262450975098 -0.71616275947595  0.90428832353235
 6 -3.00511673227323 -0.54510290829083  1.30669633873387
 6 -3.08648187508751  1.03362206380638  1.79854613391339
 6 -4.33420365506551  1.43825847694769  1.25704009790979
 6 -2.99903608440844  1.26219903920392  3.30590590519052
 6 -1.95193092279228 -0.64748073727373  0.04526833713371
 6 -0.58160386958696 -0.38548179617962  0.47446082838284
 6  0.42177410061006 -0.56458308020802 -0.65699548964897
 8  0.25440565736574 -0.95266904460446 -1.79843723682368
 8  1.70777937633763 -0.30032997139714 -0.07361274887489
 7 -7.07243488688869  2.60336354625463  0.43183410751075
 6 -5.98072821662166  3.31597536493649  0.79979585568557
 6 -6.41023593199320  4.72090895449545  0.78367662636264
 6 -7.64870965626563  4.85130693589359  0.32182830923092
 6 -8.10304983248325  3.44602154095410  0.11531953055306
 6 -5.44327636153615  5.86889636333633  1.15878603380338
 6 -8.40454046204620  6.02382265186519  0.10398101060106
 6 -8.19166757675768  7.16822597229723  0.74935899519952
 7 -9.02253129422942  0.67067406180618 -0.51474804870487
 6 -9.73057054335433  1.83132645694569 -0.79071188468847
 6 -11.18640259295930  1.50068951345135 -1.14711957165717
 6 -11.20890037723772  0.18903644944494 -1.27090711901190
 6 -9.86083368696870 -0.31970216361636 -0.93790599189919
 6 -12.24199513721372  2.47683292469247 -1.37552700540054
 6 -12.27347114001400 -0.68961508530853 -1.86045537613761
 6 -12.11081299019902 -1.00713090539054 -3.34433508470847
 7 -7.23467643004300 -1.42882771847185 -0.20843351845185
 6 -8.36804113041304 -2.18844739023902 -0.47202878277828
 6 -7.83883592339234 -3.64268481988199 -0.55967626742674
 6 -6.54644243474347 -3.60025300740074 -0.23710579227923
 6 -6.15213894559456 -2.28972692849285  0.09250108550855
 6 -8.65897823732373 -4.81423752215222 -0.89105248834884
 6 -5.33865932883288 -4.43140670407041  0.08607358145815
 8 -5.18706969926993 -5.57190404740474  0.17212316091609
 6 -4.07226172877288 -3.40329777717772  0.52543086468647
 6 -3.66208038483848 -3.69405734843484  1.94063003150315
 8 -3.91900468386839 -3.11341869976998  2.99068242644264
 8 -2.83506885968597 -4.70789940844084  1.77337637513751
 6 -2.22187114411441 -5.28254346024602  2.96965436583658
 6  2.66306262666267 -0.51395968486849 -1.16928044524452
 6  4.03969485468547 -0.41602687058706 -0.42662522532253
 6  5.08339383068307  0.30292682068207 -0.91437431443144
 6  5.11013473907391  1.19072674797480 -2.10814494949495
 6  6.42999927862786  0.33026364236424 -0.12944346874687
 6  7.61870332293229 -0.04273282128213 -0.95362569126913
 6  8.81196890849085 -0.11580339643964 -0.13279938233823
 6  10.23969943054306 -0.56136779998000 -0.86548226822682
 6  10.08634191079108 -1.95485336523652 -1.38741570757076
 6  11.39277394119412 -0.32699759085909  0.06166820432043
 6  12.80142787828783 -0.48024805830583 -0.54830233533353
 6  13.94157542934293 -0.03429914421442  0.29308572017202
 6  15.36321231223122 -0.28122720632063 -0.34463011551155
 6  15.71854812581258 -1.76846523482348 -0.66060788708871
 6  16.44739173187319  0.48780529782978  0.43447818251825
 6  17.68950653835384  0.66210994059406 -0.33253978097810
 6  18.72776319491949  1.31979005750575  0.52978623532353
 6  20.24328713311331  1.31858129062906  0.02143884988499
 6  20.48629147494750  2.06099340444044 -1.24586928282828
 6  21.11728679567957  1.91124282418242  1.14592853285329
 1 -3.69669003250325  3.44694794619462  1.38714481028103
 1 -10.12251437473747  3.97314958945895 -0.68281280748075
 1 -10.13738816291629 -2.59779531463146 -1.09426724612461
 1 -2.61344863206321 -1.15433563626363  2.06029251995199
 1 -2.12470593689369  1.40757281838184  1.39384303330333
 1 -2.09162224862486  1.09465857225723  3.62824316171617
 1 -3.34619172827283  2.25964518731873  3.47824584678468
 1 -3.83446624712471  0.60612576687669  3.56086777197720
 1 -2.30833595259526 -1.64052472327233 -0.48157616471647
 1 -2.31392776177618  0.17698531833183 -0.63837057165717
 1 -0.31764719341934  0.61024061136114  0.72935679867987
 1 -0.52179059935994 -1.26245701230123  1.14217767606761
 1 -5.48778295599560  6.83832134413441  0.67062689398940
 1 -5.37652912421242  6.01127400880088  2.21209322182218
 1 -4.45247009160916  5.28774304230423  0.82186291889189
 1 -9.17938819861986  6.09243262526253 -0.65813716641664
 1 -8.83139220292029  7.98216793779378  0.46579635533553
 1 -7.43386131823182  7.31978881528153  1.48687764806481
 1 -11.93694416741674  3.31702084918492 -1.91834766626663
 1 -13.06269356705671  1.93853259565957 -1.86858258645865
 1 -12.39118015071507  2.96145347944795 -0.39650008950895
 1 -12.29327129202920 -1.55737666046605 -1.26528002890289
 1 -13.42629492859286 -0.36515922642264 -1.64751050545054
 1 -13.01424662386239 -1.59290295239524 -3.60368132623262
 1 -12.23342374807481 -0.22744121542154 -4.07697667606761
 1 -11.10151499089909 -1.59365039223922 -3.55720399859986
 1 -8.84447906650665 -4.92611911271127 -2.11784784778478
 1 -8.13835822102210 -5.91090704400440 -0.65689564466447
 1 -9.60511469046905 -4.97840628902890 -0.33724599329933
 1 -3.34648216671667 -3.52166877247725 -0.17578531663166
 1 -1.50443383098310 -4.64558677207721  3.41676339393939
 1 -2.95821225852585 -5.61341086598660  3.74003504120412
 1 -1.62982350285029 -6.06549733453345  2.49340270137014
 1  2.44883293809381 -1.51131775457546 -1.69749119781978
 1  2.56319276057606  0.28928701350135 -1.94017507500750
 1  4.05512599929993 -0.81618003180318  0.60741214141414
 1  3.97573288478848  1.57366290899090 -2.54658514421442
 1  5.95767269946995  1.97941836573657 -1.96162360076008
 1  5.30222979147915  0.29847103800380 -3.07904416131613
 1  6.44821300520052  1.29202918351835  0.42114172807281
 1  6.54109198129813 -0.58269560626063  0.73395959145915
 1  7.56726884968497 -1.16357703070307 -1.43906866406641
 1  7.97929048754876  0.73383248624862 -1.69267008990899
 1  9.17997404170417  1.01455095259526  0.17436986508651
 1  8.78468158895890 -0.72650100280028  0.77099322272227
 1  10.31095572737274  0.32948909670967 -1.73622878087809
 1  9.36018562766277 -2.21736001950195 -2.05472385428543
 1  10.93459259985999 -2.44831823112311 -1.88069342744274
 1  9.77125932303230 -2.66709082378238 -0.60169756345635
 1  11.34083572517252  0.60119655305531  0.38959673047305
 1  11.21483907940794 -1.00125142274227  0.98636495659566
 1  12.86042399489949 -1.53102052135214 -0.82898517001700
 1  12.94252008190819  0.09687462346235 -1.46635096879688
 1  13.79949136943694  0.96857222052205  0.52409723842384
 1  13.98473678427843 -0.42762914181418  1.19823219721972
 1  15.32182258365837  0.15504890189019 -1.38794006280628
 1  15.62586638343834 -2.50591993319332  0.06496836133613
 1  15.31938358275828 -1.96229074907491 -1.57479885338534
 1  16.80618889848985 -2.05155605260526 -0.97167368066807
 1  16.13629690319032  1.42594092779278  0.68079399569957
 1  16.79745382318232 -0.16300258505851  1.57144563926393
 1  18.28094483218322 -0.28515502950295 -0.77054725032503
 1  17.42699000860086  1.26366526062606 -1.20733647724772
 1  18.35195425232523  2.36967823582358  0.78614056085609
 1  18.69837580008001  0.74024886438644  1.47827107260726
 1  20.59080891319132  0.32720371797180 -0.01843595139514
 1  20.25649246774677  3.05140591709171 -1.03639582428243
 1  21.52251605240524  2.10092123422342 -1.58730671187119
 1  19.77049544714471  1.80670096029603 -2.10462884728473
 1  20.97510136363636  1.37191283218322  2.04903857265727
 1  22.15015290809081  1.73961443214321  0.85874252785278
 1  20.90870094859486  3.05544166136614  1.50512764946495

