%nproc=4
%Mem=2GB
# td=(NStates=1) CAM-B3LYP/6-31G(d,p) 

TD

0 1
<<<<<<< HEAD
12 -7.17106767976798  0.54630337843784  0.03132081948195
 6 -4.86403102110211 -1.90703188158816  0.39668620132013
 6 -4.83789371827183  2.78569701700170  1.21811817671767
 6 -9.40346508200820  3.10501599709971 -0.38355121482148
 6 -9.66144645834584 -1.75631114211421 -0.69464589368937
 7 -5.14654807940794  0.45181499959996  0.70485090339034
 6 -4.35804551065107 -0.64160398239824  0.66500452365237
 6 -2.86261526692669 -0.28563798949895  1.05229558375838
 6 -3.03931737013701  1.03976664496450  1.71686241694169
 6 -4.46045304020402  1.47238798759876  1.12595962586259
 6 -2.89280436253625  1.37878016611661  3.22117352625263
 6 -1.86267972897290 -0.46199146054605 -0.05109115081508
 6 -0.41599902250225 -0.41527587478748  0.43610774007401
 6  0.52819395659566 -0.70852436533653 -0.56727210771077
 8  0.30094133423342 -1.05988139573957 -1.71121745344534
 8  1.83136494699470 -0.33855125152515 -0.10374716361636
 7 -7.06249669756976  2.62260785058506  0.30237893339334
 6 -5.99437871687169  3.41516249204920  0.76061959555956
 6 -6.51464871797180  4.79488377777778  0.73592427962796
 6 -7.82247495449545  4.82879351085109  0.36248463976398
 6 -8.12287655925593  3.38240743604360  0.10116266256626
 6 -5.64455241194119  6.02029449534954  1.10985574607461
 6 -8.55825362296230  5.96055708940894  0.11958894429443
 6 -8.59262315361536  7.14138025662566  0.84987123692369
 7 -9.23897617021702  0.66767962906291 -0.48898293199320
 6 -10.02479873957396  1.80233018611861 -0.74417074117412
 6 -11.27516661326132  1.45595393449345 -1.15886760626063
 6 -11.38799120302030  0.07496286038604 -1.24816353035304
 6 -10.04248992969297 -0.41914388868887 -0.80023503960396
 6 -12.31643046674667  2.45198576957696 -1.52473924872487
 6 -12.48205275157516 -0.79717712781278 -1.79254006250625
 6 -12.27529501790179 -1.07755016621662 -3.22093721232123
 7 -7.27696716501650 -1.44264387798780 -0.06193087008701
 6 -8.33725396519652 -2.22704787688769 -0.48237319251925
 6 -7.91059720532053 -3.65993426092609 -0.50483776107611
 6 -6.55424930903090 -3.50906524352435 -0.00741247314731
 6 -6.27869046544654 -2.20983926522652  0.13949675387539
 6 -8.73413088048805 -4.81332417481748 -0.78694717311731
 6 -5.37446191649165 -4.37998188168817  0.36551942454245
 8 -5.23059189708971 -5.62657714111411  0.34397142784278
 6 -4.27897147654765 -3.37429321912191  0.56976684198420
 6 -3.53155378627863 -3.71458667996800  1.87097747064706
 8 -3.70156175677568 -3.06085282148215  2.96508919001900
 8 -2.81655284898490 -4.79584430683068  1.65523410431043
 6 -2.11691227912791 -5.25241947104710  2.86259119461946
 6  2.88608111981198 -0.73053084768477 -0.97719892029203
 6  4.22928501750175 -0.34529270557056 -0.40849099809981
 6  5.23816730113011  0.30915718111811 -0.92969274197420
 6  5.10563898689869  1.19293194249425 -2.25430959625963
 6  6.55961029382938  0.39243109330933 -0.19642612781278
 6  7.66875441334133 -0.11159150605061 -0.95144209470947
 6  8.90753262586259 -0.10909604000400 -0.09415122792279
 6  10.21406203070307 -0.42963003470347 -0.95136610711071
 6  10.26419311951195 -1.94878581468147 -1.45954941994199
 6  11.53453633053305 -0.11769555035504 -0.12197132853285
 6  12.81127603530353 -0.41541559265927 -0.76608663156316
 6  14.06975644404440 -0.25602680548055  0.10581764926493
 6  15.48766489138914 -0.22320604970497 -0.57609584938494
 6  15.85465713461346 -1.69590722452245 -0.91265088278828
 6  16.38251235713571  0.34932929292929  0.44503901110111
 6  17.92906749614961  0.51930332873287 -0.16320213481348
 6  18.88119848934894  1.22549076607661  0.74181461446145
 6  20.27408607780778  1.35715604910491  0.26846160936094
 6  20.43840519431943  2.09194749194919 -0.98020901360136
 6  21.15968689948995  1.94272720902090  1.42398776217622
 1 -4.04706619111911  3.57288280968097  1.55760034693469
 1 -9.96392678537854  3.81385222022202 -0.59308469997000
 1 -10.35801909130913 -2.54468380918092 -0.98949560176018
 1 -2.81565802270227 -1.03419173307331  1.97577826902690
 1 -2.20697430263026  1.74128771137114  1.28291894229423
 1 -2.06633109060906  1.02115256815682  3.60137385088509
 1 -2.92246730673067  2.43899795729573  3.37290945634563
 1 -3.67564100680068  0.89337402140214  3.87543995679568
 1 -1.99897238213821 -1.47811777217722 -0.51470537973797
 1 -1.84412608510851  0.47188443884389 -0.69083912351235
 1 -0.38422193959396  0.56707132103210  0.81572197129713
 1 -0.42550035203520 -1.11201571677168  1.45625958115812
 1 -5.81338011341134  6.92330097419742  0.43125883508351
 1 -5.89073606300630  6.23609697279728  2.07534383148315
 1 -4.50661461746175  5.99311047744774  0.98094126972697
 1 -9.27514956745675  5.92721886998700 -0.88244847304730
 1 -8.99569078497850  7.95395613451345  0.42205182698270
 1 -8.00681014681468  7.23392979247925  1.91669005450545
 1 -12.05120922602260  3.37241756775678 -2.13140614531453
 1 -13.24521419061906  1.95068896009601 -2.02797398889889
 1 -12.64903663476348  2.95819447414741 -0.64328557255726
 1 -12.64930970937094 -1.70964040914091 -1.23772872777278
 1 -13.56618533743374 -0.27383412021202 -1.59266479397940
 1 -13.00549690229023 -1.90405509170917 -3.77184706920692
 1 -12.25029859405941 -0.25603014061406 -4.01707520322032
 1 -11.34186046534654 -1.60688555565557 -3.19064768476848
 1 -9.00757036003600 -4.62037278017802 -1.90927419151915
 1 -8.09241860666067 -5.74747475167517 -0.70305991899190
 1 -9.72042192709271 -4.86923194449445 -0.22312413501350
 1 -3.50498119401940 -3.62038528922892 -0.17475274677468
 1 -1.48740690719072 -4.68469490919092  3.39986290159016
 1 -2.77771738033803 -5.56082770037004  3.75055789468947
 1 -1.49125723722372 -6.21647092029203  2.54707866076608
 1  2.67788709280928 -1.74426626252625 -1.08049201420142
 1  2.81377885548555 -0.28443416381638 -2.17020017221722
 1  4.71916282188219 -0.99789200440044  0.41264448044804
 1  4.04581354485449  1.50659937033703 -2.51175954565456
 1  5.72331774347435  2.20564082298230 -2.21501796999700
 1  5.53937124472447  0.75798690619062 -3.14292302330233
 1  6.78314037693769  1.37129112911291  0.21828447124712
 1  6.58350246964697 -0.36763480088009  0.67733745044504
 1  7.36542392709271 -1.19308854405441 -1.30681200480048
 1  7.90880331623162  0.42171537963796 -1.95206813041304
 1  9.12604465606561  0.86295418041804  0.47370500270027
 1  8.89583807250725 -0.94360986718672  0.61719958365837
 1  10.19199675107511  0.20882342004200 -1.90295518501850
 1  9.46357134263426 -2.10795877237724 -2.35451137593759
 1  11.23912646834684 -2.10156694059406 -1.86539078297830
 1  9.94718760476048 -2.61479342134213 -0.49915935563556
 1  11.51579926082608  0.82925515571557  0.25884737223722
 1  11.46278933233323 -0.91541750305031  0.65303592519252
 1  12.87225054395440 -1.57194535573557 -1.29102677027703
 1  13.02778653115312  0.19306999799980 -1.68326168746875
 1  14.04778621532153  0.66929948594860  0.69210655365537
 1  14.21253400650065 -1.06442604730473  1.01874839133913
 1  15.42736602510251  0.31552103710371 -1.51736609460946
 1  15.88427587048705 -2.38303859595960 -0.12295374927493
 1  15.15412846354636 -2.09042141774177 -1.58922633773377
 1  16.82772240164017 -1.76930245514551 -1.51616308580858
 1  16.19683488418842  1.33318115181518  0.82498904320432
 1  16.46970141734173 -0.33958313341334  1.32598535973597
 1  18.37567850655066 -0.42839938733873 -0.38302164256426
 1  17.64155121962196  1.23318063696370 -1.13510708650865
 1  18.39737052965296  2.36095025272527  1.14547255255526
 1  18.85143230353036  0.64454863586359  1.54475447574757
 1  20.56531144384439  0.12458860706071  0.04690175417542
 1  20.23690779737974  3.20043360526053 -0.83274686808681
 1  21.45581983408341  2.18713536633663 -1.38710007330733
 1  19.76354025842585  1.57537934873487 -1.82163913291329
 1  21.15991196639664  1.36606471557156  2.50048966616662
 1  22.29541124742474  1.82437366706671  0.97808277457746
 1  21.02005173507351  3.04836491979198  1.75979642014201
=======
12 -7.17496806980698  0.66740548864886  0.09447713511351
 6 -4.85410002800280 -1.94328550695070  0.54569110181018
 6 -4.88390831973197  2.84086253355336  1.14877124202420
 6 -9.48545328082808  3.09814531003100 -0.26333919361936
 6 -9.54091440514051 -1.68320383138314 -0.87892432153215
 7 -5.10302372697270  0.40921073917392  0.62188260656066
 6 -4.26990669676968 -0.69763958595860  0.67007503070307
 6 -2.90865987138714 -0.39198862456246  1.18756911111111
 6 -3.11587502590259  1.09676234453445  1.60423115381538
 6 -4.39829682458246  1.50801154995500  1.04410144004400
 6 -2.99695477757776  1.21215350345035  3.05150655955596
 6 -1.89118257925793 -0.53549881128113 -0.02062810451045
 6 -0.43736115871587 -0.35025937313731  0.33606773607361
 6  0.49816095329533 -0.65326883978398 -0.85148052855286
 8  0.16146738683868 -1.14740014761476 -1.98708504020402
 8  1.69831164166417 -0.49202659905991 -0.43057984688469
 7 -7.20296074397440  2.60900649044904  0.37755645114511
 6 -6.08990826982698  3.36144712051205  0.83365689928993
 6 -6.47633488658866  4.82052634203420  0.78623931113111
 6 -7.74527723472347  4.82285291679168  0.43017140844084
 6 -8.28028229982998  3.49128832413241  0.04213675997600
 6 -5.40197815451545  5.85718818471847  1.21229599009901
 6 -8.57041483908391  6.02349338303830  0.13511049644964
 6 -8.46101999329933  7.26557267586759  0.67464371417142
 7 -9.15353762636264  0.73550641174117 -0.49222325602560
 6 -9.92127838753875  1.78792874597460 -0.56450277437744
 6 -11.25091418801880  1.40622896199620 -0.96406812631263
 6 -11.24899730363036  0.11747711181118 -1.13338205220522
 6 -9.93846952765277 -0.37094906920692 -0.85905092119212
 6 -12.44546337003700  2.39772034303430 -1.29249602440244
 6 -12.44519906620662 -0.72171958205821 -1.56284709320932
 6 -12.21554904330433 -1.18454086528653 -3.10358547714771
 7 -7.16371583988399 -1.34147376097610 -0.15223990099010
 6 -8.19360960076008 -2.22102727482748 -0.62042699789979
 6 -7.81968811441144 -3.49799806730673 -0.47604488178818
 6 -6.45821970607061 -3.54501883888389 -0.09250098199820
 6 -6.13132572897290 -2.19718800010001  0.06001880608061
 6 -8.65799326672667 -4.71009385178518 -0.78136661506151
 6 -5.30892536283628 -4.28196207970797  0.27271014361436
 8 -5.08765760366037 -5.47805228862886  0.27245427612761
 6 -4.18178175757576 -3.24086987678768  0.59152901820182
 6 -3.47122775367537 -3.67893311461146  1.94679505240524
 8 -3.68088968956896 -3.23324006020602  3.05093777487749
 8 -2.69754094779478 -4.70688541094109  1.72019059996000
 6 -2.17523811171117 -5.16848107720772  2.98018295379538
 6  2.83254576627663 -0.83827162176218 -1.44484568496850
 6  4.16281837083708 -0.55816399269927 -0.71265141414141
 6  5.15884936933693  0.20065633103310 -1.10725049774978
 6  5.15297372037204  1.07320997029703 -2.39698386368637
 6  6.36879121192119  0.32932478267827 -0.22483896909691
 6  7.65378291619162 -0.29729007590759 -1.00377732823282
 6  8.88536040864086 -0.17189231963196 -0.08348016081608
 6  10.18880950545054 -0.55635270697070 -0.85576654715472
 6  10.21322802300230 -1.94197513361336 -1.34665813081308
 6  11.37916079297930 -0.18124190499050  0.05782665126513
 6  12.77134204190419 -0.56648069916992 -0.63773379627963
 6  13.95447491589159 -0.09317051985199  0.29380644814481
 6  15.37806393129313 -0.16848057715772 -0.34710295009501
 6  15.64984665356536 -1.60723835763576 -0.79796941464146
 6  16.45956006190619  0.30636499649965  0.52662716991699
 6  17.88337292669267  0.57135853425343 -0.10027584218422
 6  18.89742011151115  1.30704892189219  0.87196762976298
 6  20.34922359155916  1.36272660616062  0.31849661286129
 6  20.32032338613861  2.13513181038104 -1.06924791749175
 6  21.30553148394840  2.13459639593959  1.32714807820782
 1 -4.00184166866687  3.58975449684969  1.51472605950595
 1 -10.42337272997300  3.82734356935694 -0.26134152565257
 1 -10.32398568796880 -2.52209154995500 -0.99077572977298
 1 -2.54297075397540 -1.19784809870987  1.85035572677268
 1 -2.27955156035604  1.74790837343734  1.30614126452645
 1 -2.03448790629063  0.88893934683468  3.25732944644464
 1 -3.38822388238824  2.24562862036204  3.26629879527953
 1 -3.76781022372237  0.48366305030503  3.31874428722872
 1 -2.02185467036704 -1.58184814521452 -0.18744265346535
 1 -2.19404107660766  0.07037428782878 -0.97680772037204
 1 -0.36493001040104  0.60685529942994  0.73845424452445
 1 -0.18008581058106 -1.11328584378438  1.03820777597760
 1 -5.47190596599660  6.92421106520652  0.86348205740574
 1 -5.62606959635964  6.00471383448345  2.29981627872787
 1 -4.32452640864086  5.63378454485449  0.99074224982498
 1 -9.50733278577858  5.68072422052205 -0.46232646084608
 1 -9.26829804570457  7.94424516341634  0.54732435423542
 1 -7.50943040884088  7.81717811731173  1.32069045454545
 1 -12.22918702380238  3.24304463046305 -2.03456646134613
 1 -13.42288195739574  1.87048093929393 -1.47802899439944
 1 -12.55620735183518  2.86720537523752 -0.37207845184518
 1 -12.63123790219022 -1.70031947704770 -0.89569452435243
 1 -13.41666038493849 -0.17234397119712 -1.60459598709871
 1 -13.07059341194119 -1.82853753995400 -3.47273715821582
 1 -12.33921748594860 -0.36756129372937 -3.70038353405341
 1 -11.25980225952595 -1.69501436853685 -3.14003262326233
 1 -9.13149275227523 -4.97487823072307 -1.93679694379438
 1 -8.01895125992599 -5.66208621282128 -0.39089870287029
 1 -9.48536842174217 -4.80860588188819  0.08241641904190
 1 -3.33445414131413 -3.43641689238924 -0.17419269076908
 1 -1.62370053655366 -4.39084552425243  3.42908582388239
 1 -3.08532814141414 -5.52468408600860  3.57645048394840
 1 -1.64969308080808 -6.11069034223422  2.73846779967997
 1  2.59867917201720 -1.84333616951695 -1.77930189518952
 1  2.63175065266527 -0.12679840024002 -2.27558071027103
 1  4.28730963656366 -1.20118233343334  0.21933514951495
 1  4.16902586608661  1.19879859025903 -2.99837820752075
 1  5.48915432713271  1.97673793269327 -2.05979244744474
 1  5.81170847844785  0.80872197969797 -3.08606733773377
 1  6.53486554945495  1.38648264826483 -0.15575293249325
 1  6.26872099149915 -0.39742778017802  0.62065178187819
 1  7.17926531123112 -1.27816705190519 -1.13610493409341
 1  7.63797623352335  0.24900810891089 -1.95305822942294
 1  9.02161421302130  0.76541442644264  0.43209084128413
 1  8.88032652135213 -0.75218072427243  0.81004886858686
 1  10.22143969536954  0.05300783848385 -1.69957484698470
 1  9.24304929042904 -2.32352032853285 -1.78686461126113
 1  10.92607516321632 -2.17026381028103 -2.11602584648465
 1  10.26676956295630 -2.67755969796980 -0.37999743944394
 1  11.25973365426543  1.01609383958396  0.15526701420142
 1  11.23559661306131 -0.65798175947595  1.17021764336434
 1  12.78293161206121 -1.65264342554255 -0.62130979857986
 1  12.89317306980698 -0.17396670567057 -1.61545490679068
 1  13.67142857955796  0.95478803480348  0.46465380838084
 1  13.83282603570357 -0.40109971467147  1.38491500800080
 1  15.34936822532253  0.54817430243024 -1.04951930993099
 1  15.49004644754475 -2.38931922402240 -0.02652410631063
 1  14.89183223392339 -2.12012438803880 -1.46852426752675
 1  16.57909753915392 -1.84135966086609 -1.37279874937494
 1  16.24549975067507  1.26624445814581  0.97057360166017
 1  16.57619206640664 -0.24608378347835  1.44196695789579
 1  18.26073701240124 -0.36847339473947 -0.36178951935194
 1  17.88810587508751  1.39550686958696 -0.93916749254926
 1  18.38900969356936  2.29138329602960  0.97546555185519
 1  19.08773593389339  0.90459464046405  1.82448244854485
 1  20.88822373507351  0.27584373257326  0.28629569356936
 1  19.95389949654965  3.16663022492249 -0.80003359675968
 1  21.35548980108011  2.32437909070907 -1.45294665796580
 1  19.71961586598660  1.47623943474347 -1.69621659065907
 1  21.39547552275227  1.45805391449145  2.23855347254725
 1  22.34770647694769  1.99328055775578  1.04576954325433
 1  20.86841657155716  3.06994707800780  1.40950139063906
>>>>>>> 8e03b5b5abfc0030b3aa597dc0de36371bfbd096

