%nproc=4
%Mem=2GB
# td=(NStates=1) CAM-B3LYP/6-31G(d,p) 

TD

0 1
12 -7.16544711771177  0.61219996809681  0.00356804420442
 6 -4.89863448144814 -2.04231540994099  0.48359489218922
 6 -4.83716364526453  2.83027147444744  1.10210657555756
 6 -9.53038777427743  3.09946544204420 -0.35719857955796
 6 -9.53781409510951 -1.76174168516852 -0.79557598669867
 7 -5.05548897349735  0.38291810991099  0.57247766606661
 6 -4.36211591769177 -0.72437225922592  0.74292231543154
 6 -2.95218422382238 -0.37926735243524  1.28998935313531
 6 -3.07194063246325  1.02691535983598  1.72398312901290
 6 -4.34778177307731  1.50847159595960  1.09823685358536
 6 -2.96887196929693  1.13731601970197  3.14277568646865
 6 -1.98095155615562 -0.57670293169317  0.04691865016502
 6 -0.53850127272727 -0.44361870907091  0.58319244854485
 6  0.50493163036304 -0.62501601450145 -0.56667204770477
 8  0.33881512161216 -0.85111051865187 -1.79823615531553
 8  1.78973078357836 -0.57767516391639 -0.01859864876488
 7 -7.12252270017002  2.64197978777878  0.18485718121812
 6 -6.05299457845785  3.43337431323132  0.65411894549455
 6 -6.45758301140114  4.77207149654966  0.62986367356736
 6 -7.83613632063206  4.80926155765577  0.34529292059206
 6 -8.16369064066407  3.48535773107311 -0.01094854855486
 6 -5.45199315601560  5.82328479437944  1.11942670317032
 6 -8.52692048964896  6.01105213891389  0.10473745914591
 6 -8.40378426972697  7.24614073267327  0.63603985378538
 7 -9.09016128872887  0.65542840394039 -0.50592462616262
 6 -9.91142740244024  1.80057001010101 -0.54796112021202
 6 -11.24200329692969  1.44039237833783 -1.16408812831283
 6 -11.26186859075908  0.03467883198320 -1.27146586058606
 6 -9.94654033473347 -0.38136011031103 -0.82922793889389
 6 -12.29714853855386  2.40768133913391 -1.39170594539454
 6 -12.36671121742174 -0.68468587868787 -1.76127693619362
 6 -12.48064555295530 -0.98171058225823 -3.20953607220722
 7 -7.21530099839984 -1.38663827742774 -0.07559223622362
 6 -8.29540978077808 -2.23698887098710 -0.46103105830583
 6 -7.83586973257326 -3.65390365786579 -0.49635691299130
 6 -6.57089097319732 -3.63453779077908 -0.18286001790179
 6 -6.19382197859786 -2.17104538583858  0.12986579077908
 6 -8.67853532093209 -4.71168401080108 -0.90673915231523
 6 -5.33028749904990 -4.43431731523152  0.14810768336834
 8 -5.15180401830183 -5.65920040344034  0.14493152385239
 6 -4.15749932933293 -3.35565135493549  0.60742060736074
 6 -3.52924355525553 -3.77308252955296  1.88381875477548
 8 -3.71585318591859 -3.17840457665767  2.96975965706571
 8 -2.75557675137514 -4.86236095849585  1.70653923482348
 6 -2.20440102800280 -5.38169239833983  3.02160709620962
 6  2.81219373107311 -0.61793958855886 -1.06337753815382
 6  4.12247433643364 -0.35385356165617 -0.29667981698170
 6  5.17389087348735  0.37575384078408 -0.80097987068707
 6  5.04977340034003  1.06414906420642 -2.15620978627863
 6  6.48332266506651  0.56090794099410 -0.11050753595360
 6  7.68799633753375  0.03518317141714 -0.91110806130613
 6  8.99049092169217  0.13805867546755 -0.10022183498350
 6  10.27345797029703 -0.41691876357636 -0.89837080758076
 6  10.08986568676868 -1.85341627772777 -1.08951241624162
 6  11.46071894879488 -0.11691547234723 -0.06856598799880
 6  12.82054696239624 -0.41610566166617 -0.61739176207621
 6  14.04161362976298 -0.02309351215122  0.24336140364036
 6  15.41783790869087 -0.31114484358436 -0.42986122592259
 6  15.61301297019702 -1.77673530733073 -0.76966658435844
 6  16.45719982588259  0.28976333633363  0.41340584778478
 6  17.84821941134113  0.39012041044104 -0.27718353295330
 6  18.87024739423942  1.16459467646765  0.60611104410441
 6  20.27945661486148  1.30996132963296  0.06173093629363
 6  20.21764311811181  2.29643794099410 -1.24314530723072
 6  21.28229916071607  1.77017995429543  1.18530389378938
 1 -4.24152563706371  3.57357287868787  1.52802738963896
 1 -9.97818821152115  4.03837467246725 -0.25961135263526
 1 -10.43265655505551 -2.35775511631163 -1.03870052225223
 1 -2.47268372527253 -1.05258357225723  2.10582127332733
 1 -2.26731033623362  1.80087366996700  1.43411406180618
 1 -1.93559801730173  0.84133458635864  3.50926463996400
 1 -3.28762382238224  2.12143620112011  3.40612277767777
 1 -3.71468491119112  0.59433411741174  3.91577399019902
 1 -1.98143062796280 -1.57032699309931 -0.24784869406941
 1 -2.35936760926093  0.04688193859386 -0.66187622722272
 1 -0.28605212261226  0.55220983488349  1.13367376647665
 1 -0.33379118111811 -1.07330184538454  1.29042299749975
 1 -5.78538731413141  6.81408005210521  0.72822853205321
 1 -5.63928091749175  5.96686004910491  2.06742303940394
 1 -4.38088204420442  5.61881304770477  1.12241541714171
 1 -9.21395344784478  6.06730287838784 -0.62321254945495
 1 -9.00812202810281  7.95076581548155  0.41015063686369
 1 -7.68623808960896  7.37805420492049  1.46964535003500
 1 -12.06268037313731  2.84329465546555 -2.50365337003700
 1 -13.26192586178618  1.90876476767677 -1.29272046354635
 1 -12.18861059215922  3.47061571627163 -0.85858710271027
 1 -12.44362914131413 -1.59424886998700 -1.15759071397140
 1 -13.30045876477648 -0.19477621442144 -1.56531205870587
 1 -13.25457180978098 -1.64389907610761 -3.54446433093309
 1 -12.48963252745275 -0.03331786938694 -3.81247474317432
 1 -11.38524480378038 -1.20524539163916 -3.74474309430943
 1 -9.04525412841284 -4.60434117701770 -1.90994425852585
 1 -8.10854021882188 -5.72916292049205 -0.62049166216622
 1 -9.55000488538854 -4.98834385568557 -0.27698952155216
 1 -3.41804250015001 -3.33863711441144 -0.11430670217022
 1 -1.63163132963296 -4.72232867256726  3.51017393269327
 1 -2.97484709330933 -5.65679729732973  3.72848568746875
 1 -1.43417152865287 -6.11071034423442  2.47097105000500
 1  2.94573387748775 -1.71907374327433 -1.32896686168617
 1  2.44832230983098 -0.00181590199020 -1.82101525372537
 1  4.07665857145715 -0.85224743994399  0.82960617661766
 1  4.06565552905291  1.39126783718372 -2.55792416211621
 1  5.70689610131013  1.97220747964796 -2.06607307550755
 1  5.44596190379038  0.36785789328933 -2.89426815781578
 1  6.62985504840484  1.58471247124712  0.12237488028803
 1  6.23840796019602 -0.10493853125313  0.83411312801280
 1  7.37678506320632 -0.85550478567857 -1.27592891649165
 1  7.91642407830783  0.66730993909391 -1.69827275087509
 1  9.06864891649165  1.23173105810581  0.26218385058506
 1  9.05452394109411 -0.31616712291229  0.83568143184318
 1  10.41619917131713  0.14111664936494 -1.86370125962596
 1  9.08320330583058 -2.35633360986099 -1.49139506430643
 1  10.68287084278428 -2.28616540044004 -1.84487873177318
 1  10.00843372937294 -2.43471541354135 -0.27934737443744
 1  11.38997667856786  0.96626885708571  0.13206469396940
 1  11.40680373377338 -0.51997795909591  0.93175379697970
 1  13.01594491339134 -1.37223538473847 -0.95456312391239
 1  12.89785353785378  0.12834352535254 -1.75060842214221
 1  14.05473691039104  1.14042659865987  0.51515885888589
 1  14.15610836393639 -0.56541614631463  1.18249476597660
 1  15.53402669116912  0.31474095909591 -1.43937829582958
 1  15.37037448034804 -2.33446373847385  0.16985553165317
 1  14.74286733743374 -2.12796517211721 -1.34650206530653
 1  16.53059268866887 -2.02443796869687 -1.51200266976698
 1  16.11835703640364  1.41613944764477  0.61393793809381
 1  16.50512495969597 -0.27325650075007  1.41080384158416
 1  18.29892083078308 -0.58686523392339 -0.68700204060406
 1  17.80808787328733  1.03014033293329 -1.26030960676068
 1  18.36594738733874  2.10575473317332  0.70451845714571
 1  18.83299045934594  0.59967414841484  1.67515751605160
 1  20.95193010571057  0.46575272347235 -0.15318825482548
 1  19.55188929552955  3.15128869076908 -0.93332692609261
 1  21.29057330943094  2.58593524632463 -1.45390675397540
 1  19.90720462486249  1.63724553535354 -2.08313528252825
 1  21.40734670987099  0.95805391449145  2.02459207640764
 1  22.17345905220522  2.10655188488849  0.79051401770177
 1  20.97487721762176  2.83827391069107  1.66953739423942

