%nproc=4
%Mem=3GB
# td=(NStates=1) iop(3/107=0140000000,3/108=0140000000) CAM-B3LYP/6-31G(d,p) 

TD

0 1
12 -7.10104479617962  0.62963134663466  0.05566193619362
 6 -4.83693250975097 -1.95481271187119  0.48166356875688
 6 -4.75677170777078  2.77374609250925  1.16098620382038
 6 -9.34000076457646  3.14927248024803 -0.39215169046905
 6 -9.49683578157816 -1.71035280098010 -0.78653545844584
 7 -4.99608663986399  0.46948303890389  0.64047187118712
 6 -4.27850009730973 -0.71416255945595  0.83636153085309
 6 -2.97654387498750 -0.37885628362836  1.26041171027103
 6 -2.95773900080008  1.07355605720572  1.70319659895990
 6 -4.38112834753475  1.53950860196020  1.19626402030203
 6 -3.03540972177218  1.19340215951595  3.23468878347835
 6 -1.91626735643564 -0.65988197739774  0.13033684398440
 6 -0.49224493369337 -0.36860010801080  0.68299168146815
 6  0.53433535673567 -0.82656927882788 -0.48012780288029
 8  0.20141035783578 -1.23294707240724 -1.59165655875588
 8  1.68439703810381 -0.61351128952895 -0.20825621322132
 7 -7.12458010141014  2.62985619551955  0.32046297039704
 6 -5.96140628442844  3.33673744114411  0.73952982908291
 6 -6.23671858025803  4.82838970257026  0.69629788848885
 6 -7.59241402670267  4.85704750995099  0.23877000340034
 6 -8.09178870637064  3.55143208200820  0.14104210281028
 6 -5.34341637553755  5.85517499119912  1.07610776597660
 6 -8.39426943494349  6.08817908750875  0.05685629812981
 6 -8.27008541854185  7.22865201490149  0.79005306460646
 7 -9.05061410251025  0.75860285468547 -0.50173674757476
 6 -9.77555504180418  1.89553287758776 -0.72929574307431
 6 -11.21574552725273  1.56273571807181 -1.16011087078708
 6 -11.27143663086309  0.14264180998100 -1.16903693199320
 6 -9.94545214881488 -0.26828702210221 -0.77969017031703
 6 -12.24900583828383  2.62725796719672 -1.32393184588459
 6 -12.41444523742374 -0.72071819561956 -1.79134846544654
 6 -12.26678858775878 -1.27673786608661 -3.22721337253725
 7 -7.24442740514051 -1.30325516121612 -0.12375505060506
 6 -8.33010733703370 -2.23060160566057 -0.51704328422842
 6 -7.77388942874287 -3.61672222362236 -0.55829612941294
 6 -6.47828561906191 -3.51304428652865 -0.14377645934593
 6 -6.13295702740274 -2.14035199099910 -0.00427859245925
 6 -8.60859319881988 -4.81660775917592 -0.86705008810881
 6 -5.36803226612661 -4.33925748914892  0.12692766686669
 8 -5.21001199349935 -5.59240609760976  0.02323827242724
 6 -4.19564406700670 -3.37221466886689  0.58753707530753
 6 -3.58898307510751 -3.69266720942094  1.94036000450045
 8 -3.87203998739874 -3.10978833673367  2.99444280248025
 8 -2.79099445224522 -4.75956457495750  1.75466450395039
 6 -2.42346130313031 -5.46035124102410  3.08749615001500
 6  2.71253757415742 -0.71057934683468 -1.22379589678968
 6  4.05406629182918 -0.62426769466947 -0.64902746554655
 6  5.09761525282528  0.23791031903190 -0.91642451945195
 6  4.83225695129513  1.33142081738174 -2.06901103610361
 6  6.33108938763876  0.28556917291729 -0.20421094549455
 6  7.51274272687269 -0.17611615961596 -0.97389771847185
 6  8.89078679027903 -0.04828664476448 -0.17145324772477
 6  10.11791725232523 -0.53599526272627 -0.98847456745675
 6  10.05927920452045 -1.96439431933193 -1.47808477447745
 6  11.46041070487049 -0.31703659475948 -0.09711767426743
 6  12.76252398789879 -0.46599663316332 -0.79296680178018
 6  14.06183745554555 -0.10924663896390  0.19733614521452
 6  15.37340333133313 -0.32372145574557 -0.46051170367037
 6  15.69018528952895 -1.80297868616862 -0.83186501280128
 6  16.50039703240324  0.34088060536054  0.44847958265827
 6  17.82706029372937  0.46224995459546 -0.25313184018402
 6  18.71142156075607  1.33028110661066  0.75645890259026
 6  20.26217902230223  1.56202563506351  0.21732843884388
 6  20.22278512431243  2.62798010311031 -0.90424512041204
 6  21.14958002500250  1.98073977387739  1.28253219321932
 1 -3.94449481298130  3.37307055845585  1.58065416121612
 1 -9.94877700100010  3.90147242174217 -0.39049357555756
 1 -10.38683310741074 -2.55927146224622 -0.88270609000900
 1 -2.55284257145715 -1.03610381308131  2.23573006370637
 1 -2.13305677197720  1.70709277037704  1.19832348134813
 1 -2.01358444484448  0.72715182158216  3.64711504890489
 1 -3.04144125322532  2.22858208100810  3.31304932713271
 1 -3.92975577607761  0.67471262556256  3.76397808300830
 1 -2.06994211321132 -1.65241591239124 -0.31705971307131
 1 -2.14701107010701  0.00579819961996 -0.72514924952495
 1 -0.39672510121012  0.52822240954095  0.91185504850485
 1 -0.44272269256926 -1.01871263786379  1.62949640794079
 1 -5.33683786148615  6.81765927792779  0.52152198349835
 1 -5.31968343964396  6.08618149954996  2.14295630813081
 1 -4.29968481308131  5.51426569456946  0.84139487208721
 1 -9.27725798559856  6.14238762076208 -0.71871322402240
 1 -8.97818688238824  8.20401012201220  0.48518829452945
 1 -7.67559549164916  7.39310614701470  1.58917787808781
 1 -11.77702817581758  3.37536668376838 -1.94828065956596
 1 -13.12969026672667  2.10648939133913 -1.88403413161316
 1 -12.57978901160116  3.03975130923092 -0.38407884738474
 1 -12.41527349224923 -1.51024194699470 -1.07567106800680
 1 -13.29449174827483 -0.21552426292629 -1.48718447284729
 1 -13.10220541974197 -1.81417507960796 -3.55202616071607
 1 -11.91302170787079 -0.41427989928993 -3.84450342874287
 1 -11.27990282968297 -1.80971199839984 -3.26643492169217
 1 -9.11531615021502 -4.61860836163616 -1.91189725272527
 1 -7.99683406860686 -5.69602555585559 -0.70231018611861
 1 -9.43636781578158 -4.79514796319632 -0.18521078977898
 1 -3.59826734523452 -3.62792939853985 -0.25394313241324
 1 -1.68286167376738 -4.79101131453145  3.62115383298330
 1 -3.33602003930393 -5.88726825172517  3.64365540324032
 1 -1.77831835233523 -6.44732551735174  2.79064242534253
 1  2.78817687248725 -1.73145976877688 -1.67284873357336
 1  2.32751919321932 -0.15320723592359 -2.12749380688069
 1  4.09197968466847 -1.14894330813081  0.30439183938394
 1  3.67962327382738  1.52435797849785 -2.13734422012201
 1  5.24342127432743  2.38186861076108 -1.43302074047405
 1  5.31237080558056  1.07447863876388 -3.11182743964396
 1  6.40670885478548  1.24257423802380  0.13619323322332
 1  6.27475534763476 -0.30562789948995  0.78306450195020
 1  7.56559868266827 -1.23844451745175 -1.33084784198420
 1  7.77108966746675  0.37322642564256 -1.93400422332233
 1  9.03187923222322  1.01526102360236 -0.01961953385339
 1  8.85769889068907 -0.85695404810481  0.75236135953595
 1  10.26773140494049 -0.06847069926993 -1.90449560756076
 1  9.27403701280128 -2.07731601510151 -2.08738712061206
 1  10.98593773437344 -2.25480888018802 -1.80953631173117
 1  9.97468966606661 -2.86310042474247 -0.57617501120112
 1  11.22969461106111  0.80201663506351  0.22939070987099
 1  11.42279987548755 -0.83313461106111  1.05726204630463
 1  12.98729668216822 -1.56746416571657 -1.07569984148415
 1  12.75681151105110  0.15022995899590 -1.63550788448845
 1  13.98175959625963  0.96413177647765  0.65672050075007
 1  14.02499080968097 -0.72385876477648  0.95805817981798
 1  15.64103450485049  0.25750914791479 -1.43267453625362
 1  15.46450024682468 -2.39751909310931  0.11087295179518
 1  15.17624926932693 -2.31990651065107 -1.64761613511351
 1  16.77308558815882 -1.81400229722972 -1.16643315661566
 1  16.18739201270127  1.16109444314431  0.93229914621462
 1  16.65804988278828 -0.49383566836684  1.24318281298130
 1  18.30891762946295 -0.61575808980898 -0.80007020262026
 1  17.64377168676868  0.98001689578958 -1.21678742234223
 1  18.31472052895289  2.30698196619662  0.70531247804780
 1  18.74822078457846  0.60720556005600  1.72345559105911
 1  20.81795162746275  0.51778277587759 -0.32535664346435
 1  19.76928374687469  3.70658143464346 -0.45217740244024
 1  21.32322612341234  2.83517465956596 -1.28833681488149
 1  19.64868326592659  2.33105339553955 -1.78912729712971
 1  21.05414926842684  1.31006664756476  2.07264093289329
 1  22.08357625042504  1.88069854055406  0.91918857245725
 1  21.01123120162016  3.04141025822582  1.79709684638464

