%nproc=4
%Mem=2GB
# td=(NStates=1) CAM-B3LYP/6-31G(d,p) 

TD

0 1
12 -7.16951752475248  0.63332208030803  0.09333702110211
 6 -4.81145576357636 -1.93427460586059  0.39350588328833
 6 -4.73016294519452  2.75484393169317  1.09147551245124
 6 -9.44703943944394  3.10102559805981 -0.28332119181918
 6 -9.50093040674068 -1.72108761976198 -0.85701213031303
 7 -5.09432285688569  0.46081589968997  0.61387180548055
 6 -4.32234194029403 -0.67019684168417  0.74913293649365
 6 -2.89711871727173 -0.40586001170117  1.10752110631063
 6 -2.99973341174117  1.07006967526753  1.62214294499450
 6 -4.37289428432843  1.51416216501650  1.08841587148715
 6 -2.97528261036104  1.32786507460746  3.12600400930093
 6 -1.94528798979898 -0.57834309570957  0.01654561286129
 6 -0.48418584118412 -0.54494884208421  0.54207833713371
 6  0.49401053825383 -0.89445295819582 -0.43537891839184
 8  0.19104034413441 -1.51320672827283 -1.63890022172217
 8  1.75461727222722 -0.48965636203620 -0.21159794869487
 7 -7.10655110301030  2.61593718351835  0.38184688018802
 6 -5.94942422142214  3.38034901070107  0.66166970057006
 6 -6.41649890299030  4.80919520892089  0.75553624082408
 6 -7.78172087908791  4.83648427992799  0.45519391069107
 6 -8.18625289688969  3.41460065536554  0.18520106640664
 6 -5.43695165186519  5.95877834373437  1.09225398589859
 6 -8.68646644424442  5.98532956665667  0.25444242964296
 6 -8.44205809710971  7.17705382398240  0.79919616941694
 7 -9.14766703930393  0.69915277637764 -0.55796983068307
 6 -9.88147440714071  1.82816276937694 -0.68446477057706
 6 -11.24762385898590  1.46820515961596 -1.13552527202720
 6 -11.27737014091409  0.13414877897790 -1.25811452545254
 6 -9.92806848754875 -0.39061103540354 -0.85976099219922
 6 -12.31561038473847  2.51737230823082 -1.24898167296730
 6 -12.40268481478148 -0.67852526262626 -1.76503731223122
 6 -12.55047253565357 -1.15773818501850 -3.21712683128313
 7 -7.17048651695170 -1.41272088568857 -0.19054373137314
 6 -8.24057429722972 -2.23303847594759 -0.58866382158216
 6 -7.86160230583058 -3.59479774727473 -0.53161043834383
 6 -6.47773165726573 -3.59776411341134 -0.13308504040404
 6 -6.17927052345235 -2.19468775007501  0.12681548574858
 6 -8.73715118251825 -4.81582442484248 -0.79183766216622
 6 -5.38991346164616 -4.39852373587359  0.23807668026803
 8 -5.24441327922792 -5.59972445584558  0.23972100280028
 6 -4.14692827222722 -3.26436222602260  0.54421428672867
 6 -3.54094472537254 -3.58177339863986  1.86751712461246
 8 -3.74332593319332 -3.08579531573157  2.94269695079508
 8 -2.69510070377038 -4.67734245664566  1.79629821072107
 6 -1.96376696459646 -5.06381061016102  2.96066100160016
 6  2.78042055375538 -0.67584537913791 -1.25898709910991
 6  4.13917600660066 -0.45216339263926 -0.57865801480148
 6  5.08959244364436  0.31926819221922 -0.98402817551755
 6  5.06244466746675  1.17994064336434 -2.25972013731373
 6  6.45217955075508  0.45226707690769 -0.36310279547955
 6  7.67611514941494 -0.11404175107511 -1.11669862036204
 6  8.95802767536754 -0.07023215361536 -0.22719453225323
 6  10.24535516001600 -0.49613668536854 -0.92675364586459
 6  10.17369406960696 -1.96817775387539 -1.36418988398840
 6  11.37936081298130 -0.22853663446345 -0.05578470987099
 6  12.83162807050705 -0.52654670577058 -0.73416343924392
 6  14.00848031643164 -0.07066826962696  0.20061712921292
 6  15.43974009890989 -0.21509523862386 -0.31058929872987
 6  15.69743141204120 -1.66335396919692 -0.82805242294229
 6  16.47556166206621  0.25560992099210  0.65020952815282
 6  17.83786837623762  0.44587598599860 -0.04351016561656
 6  18.83506387588759  1.24392260926093  0.83738417141714
 6  20.30079874907491  1.47803813731373  0.28851361456146
 6  20.29077043084309  2.13811210841084 -1.13578457115712
 6  21.19034996579658  2.09078201450145  1.25516087948795
 1 -4.12393387788779  3.55529105050505  1.74747933483348
 1 -10.00311070377038  4.04556539153915 -0.15809120062006
 1 -10.22037532693269 -2.34770411121112 -1.35856250845085
 1 -2.65498195509551 -0.98037635153515  2.01856254745475
 1 -2.10261386658666  1.53334691729173  1.16136678707871
 1 -2.07177163466347  0.62917337023702  3.47369108260826
 1 -3.19416447644765  2.29960401790179  3.44358652405241
 1 -3.86517996069607  0.65564024802480  3.52141455425543
 1 -1.92666515141514 -1.50141010141014 -0.56794070327033
 1 -1.80942261476148  0.30409766016602 -0.79187922752275
 1  0.01423790639064  0.40209482338234  1.05578597769777
 1 -0.41918972097210 -1.21011552675267  1.47102105730573
 1 -5.34182295769577  6.95298394249425  0.34215992519252
 1 -5.50062705210521  6.15435879897990  2.26900319741974
 1 -4.43552750875087  5.57149831623162  0.98101127672767
 1 -9.47883993649365  5.93213936203620 -0.43084331253125
 1 -9.11554277017702  8.00198093699370  0.66294591639164
 1 -7.78734820062006  7.51292769226923  1.63175156065607
 1 -12.07683178827883  3.04972529852985 -2.10693369806981
 1 -13.26019568876888  1.96144003520352 -1.42927411891189
 1 -12.33085481658166  3.03517217191719 -0.37469871387139
 1 -12.53877865626563 -1.62937238233823 -1.15780073497350
 1 -13.23897261616162 -0.20405714251425 -1.73145867336734
 1 -13.53324967756776 -1.65843052925293 -3.39022890739074
 1 -12.47557112131213 -0.27810234783478 -3.82453594929493
 1 -11.61719799909991 -1.65256012311231 -3.65671429142914
 1 -9.45016461946195 -4.54253499639964 -1.75278854295429
 1 -8.09146851165116 -5.80550055425542 -0.79106871987199
 1 -9.31349123402340 -4.94014903620362  0.10144832223222
 1 -3.49598029392939 -3.36921017171717 -0.36648191969197
 1 -1.41837000350035 -4.22647908760876  3.40789370467047
 1 -2.64986459505951 -5.22365398299830  3.94102694159416
 1 -1.20815892739274 -5.95513478667867  2.71753570647065
 1  2.65799510361036 -1.66575841174117 -1.53984794979498
 1  2.62888036563656 -0.11257697809781 -2.28028118031803
 1  4.24662556815682 -0.91216343154315  0.37957117311731
 1  3.93369233273327  1.24605331573157 -2.71375974567457
 1  5.34161957365737  2.13626388528853 -2.30943741194119
 1  5.80495780338034  0.84845595309531 -2.96024475547555
 1  6.64379644254425  1.34824882488249  0.15753839663966
 1  6.26243036243624 -0.14618265566557  0.61743145984598
 1  7.56698408310831 -0.99898913411341 -1.41469279287929
 1  7.64433686958696  0.53079628772877 -2.06822974657466
 1  9.20764281588159  1.20709859485949 -0.00601296909691
 1  8.92554104280428 -0.57231273747375  0.67544540824082
 1  10.27091464286429  0.06864940264026 -1.93081797129713
 1  9.30860584608461 -2.34913288978898 -1.98959488428843
 1  11.00768332403240 -2.27676446034603 -1.70870511441144
 1  10.02556544254426 -2.58270021202120 -0.42023146284629
 1  11.15402308320832  0.95800803100310  0.13111459895990
 1  11.37505055845585 -0.88868482978298  0.92321294289429
 1  13.00416373527353 -1.58342650385039 -0.99278694629463
 1  12.91141489398940  0.09070976197620 -1.71207456875688
 1  13.93685512221222  0.96609916591659  0.53319066206621
 1  14.01915466856686 -0.69530913561356  1.15077159365937
 1  15.30416370487049  0.49765925092509 -1.13733809180918
 1  15.50411785468547 -2.53234352645264 -0.02573402730273
 1  14.99259230993099 -1.99891226682668 -1.55999341444144
 1  16.54829445884588 -1.66166169106911 -1.27121859135914
 1  16.20052525322532  1.23618145184518  1.00065660996100
 1  16.49890433763376 -0.30164934003400  1.52379514071407
 1  18.41869280798080 -0.50828737613761 -0.11469480988099
 1  17.78756582108211  0.90913823272327 -1.11865544134413
 1  18.26388718131813  2.21278543624362  0.99581758705871
 1  18.97787494779478  0.51466564756476  1.62948294859486
 1  20.64444935763576  0.56271241944194  0.00295735973597
 1  19.75050915751575  3.08918248014802 -1.03346694009401
 1  21.23040729282928  2.42074872767277 -1.56384774807481
 1  19.65051895629563  1.52480429122912 -1.83649061806181
 1  21.09859583478348  1.69442755185519  2.26979659685969
 1  22.16176788308831  1.88972020172017  1.00491545784578
 1  20.71199092899290  3.10816089938994  1.53046348684868

