%nproc=4
%Mem=2GB
# td=(NStates=1) CAM-B3LYP/6-31G(d,p) 

TD

0 1
<<<<<<< HEAD
12 -7.07638821182118  0.57435618371837  0.08041572897290
 6 -4.85022964096410 -1.99847102550255  0.52552908560856
 6 -4.77243717261726  2.89408785608561  1.07308367326733
 6 -9.38683341884188  3.12131762726273 -0.39006186588659
 6 -9.50016032973297 -1.74893040404040 -0.78420484958496
 7 -5.15873929852985  0.45725554365437  0.82497291559156
 6 -4.40834054015402 -0.74753457545755  0.93376139933993
 6 -2.88668767416742 -0.48529795549555  1.26672702690269
 6 -3.04742818121812  1.07543021132113  1.63166389708971
 6 -4.44128112301230  1.53734448324832  1.14686171607161
 6 -2.96568165026503  1.23244553265327  3.21952336123612
 6 -1.96684014501450 -0.50736599799980  0.13470742904290
 6 -0.51869929252925 -0.41060540774077  0.54647877717772
 6  0.42410354755476 -0.72546605950595 -0.53017839833983
 8  0.19544078417842 -1.21106651425143 -1.67304363606361
 8  1.78773058355836 -0.44179157555756 -0.12509929882988
 7 -7.07753820172017  2.65197078687869  0.27628632413241
 6 -5.98510778977898  3.33737471327133  0.72410594419442
 6 -6.30973822692269  4.81725601500150  0.74630531773177
 6 -7.65797850485048  4.83202383388339  0.31219961126113
 6 -8.09766403800380  3.47078627392739 -0.09769722342234
 6 -5.38036599329933  5.84776724262426  1.14168892939294
 6 -8.51995979357936  6.04308534223422  0.08193517891789
 6 -8.48290218151815  7.09620573917392  0.89421567136714
 7 -9.15506777937794  0.75795865696570 -0.57878191189119
 6 -9.85597185688569  1.83894384748475 -0.69617594169417
 6 -11.19757885448545  1.50719905900590 -1.14578629812981
 6 -11.22459486338634  0.15363072717272 -1.21461017501750
 6 -9.87337301800180 -0.42471444574457 -0.92398741484148
 6 -12.31841066476648  2.50295086608661 -1.41002777757776
 6 -12.42952749904991 -0.70255766586659 -1.72258306680668
 6 -12.18526601500150 -1.26852926412641 -3.13983910251025
 7 -7.18298776707671 -1.33553316691669 -0.19411408840884
 6 -8.23037327712771 -2.26758193029303 -0.54036899209921
 6 -7.78311445704570 -3.59644791229123 -0.56398367566757
 6 -6.45686957105711 -3.49386372337234 -0.10159189108911
 6 -6.19789238563856 -2.16071435273527  0.10528333253325
 6 -8.59943741114111 -4.78633147554755 -1.01561003940394
 6 -5.37854232453245 -4.28363224672467  0.19006187878788
 8 -5.25148398629863 -5.52498698209821  0.15425245594559
 6 -4.25833941334133 -3.38606439623962  0.61446131143114
 6 -3.66021665256526 -3.78714393569357  1.94226459935994
 8 -3.89185078567857 -3.23565030123012  3.02946562766277
 8 -2.77506870057006 -4.76369109150915  1.75794437533753
 6 -2.18052864076408 -5.24159838893889  3.02700763626363
 6  2.84711722342234 -0.61584937953795 -1.17039824022402
 6  4.06531862086209 -0.29215739203920 -0.42134228322832
 6  5.11575505990599  0.37576384178418 -0.95467524022402
 6  5.10809923292329  1.17820046934693 -2.20858502380238
 6  6.42566689948995  0.33312516271627 -0.24232071727173
 6  7.64562210011001 -0.25358570547055 -1.01730868136814
 6  8.90937280988099 -0.15962109250925 -0.15336714951495
 6  10.17558818331833 -0.51045811751175 -0.93167413791379
 6  10.20052675287529 -2.03329426552655 -1.34413787878788
 6  11.36224910181018 -0.30943472427243 -0.04579371077108
 6  12.75836074377438 -0.52304635573557 -0.67968799169917
 6  13.97980744914491 -0.04742594539454  0.19170623812381
 6  15.29023514841484 -0.16872060116012 -0.48564680448045
 6  15.71555322422242 -1.58857649144914 -0.92641225892589
 6  16.44180828672867  0.53912827282728  0.47373188038804
 6  17.80578516791679  0.70011140954095 -0.30800661526153
 6  18.76416678617862  1.31278949594959  0.77180761376138
 6  20.22204087328733  1.36226656015602  0.27446220942094
 6  20.48561991579158  2.05177347454745 -1.18768976167617
 6  21.09934086488649  1.98903183948395  1.29151451485149
 1 -3.95139662416242  3.40711623302330  1.49606419331933
 1 -10.17037743044304  3.84065490049005 -0.73483887538754
 1 -10.30356364576458 -2.50651999279928 -1.19489614181418
 1 -2.58566502340234 -1.19769808370837  2.24807549874987
 1 -2.16562016721672  1.60616419901990  1.19225987638764
 1 -2.08920337783778  0.82322277517752  3.75998971247125
 1 -3.29113417341734  2.24827888538854  3.50910307570757
 1 -3.76867030973097  0.57364204820482  3.66122853565357
 1 -1.80029251415142 -1.44200416081608 -0.45065897509751
 1 -2.08513018551855  0.15527277767777 -0.78156819641964
 1 -0.16466998439844  0.70007462136214  0.69769016811681
 1 -0.54341214321432 -1.11290580578058  1.44007796299630
 1 -5.66569534493449  6.58473711781178  0.53250896009601
 1 -5.51264825422542  6.20556391949195  2.07156345344534
 1 -4.35182913891389  5.66483765016502  0.69702287788779
 1 -9.28553060556056  6.02577872597260 -0.66781700990099
 1 -9.16851806770677  7.92476321522152  0.62771239303930
 1 -7.96951641744174  7.40662706220622  1.82984136963696
 1 -11.93837794289429  3.28328865486549 -2.13691669636964
 1 -13.15196486568657  1.92486637783778 -1.90922211371137
 1 -12.56994872597260  3.02324097879788 -0.47918916291629
 1 -12.55177995639564 -1.61714115921592 -0.81400635553555
 1 -13.37294601350135  0.03959722292229 -1.69552508000800
 1 -13.17320367296730 -1.89031371757176 -3.23304318881888
 1 -12.05072863706371 -0.41002554015402 -3.92847634333433
 1 -11.30196647594760 -2.08173304040404 -3.09832845284528
 1 -8.76270587358736 -4.61967271017102 -2.22130539463946
 1 -8.08966833163316 -5.85087509170917 -1.03527314031403
 1 -9.59181906680668 -4.91868688998900 -0.54443626622662
 1 -3.50174086998700 -3.61209446014601 -0.06887215871587
 1 -1.47370553705371 -4.47140358005801  3.38630154545455
 1 -2.91797140574057 -5.59569118671867  3.64633747264726
 1 -1.79015712721272 -6.16504577777778  2.85496944984498
 1  2.87648695279528 -1.61859369526953 -1.69896386138614
 1  2.53293077067707  0.15817009660966 -1.85011816401640
 1  4.03839474507451 -0.71372358755876  0.44915813181318
 1  4.09349831333133  1.19705841624162 -2.72332070177018
 1  5.62265767746775  2.31422168106811 -2.29728619681968
 1  5.86421372897290  0.66887799529953 -2.81873060406041
 1  6.62696475937594  1.47817181718172  0.28119076187619
 1  6.43634775417542 -0.19766780418042  0.59660937763776
 1  7.49631701640164 -1.34556379157916 -1.05168649224922
 1  7.95844828072807  0.19162237033703 -1.96178910251025
 1  8.91822387398740  0.93718160316032  0.03914154635464
 1  8.81475996469647 -0.65856136233623  0.90438830253025
 1  10.29877742914291 -0.02689015131513 -1.81748663816382
 1  9.45689067456746 -2.26334431093109 -2.07237316211621
 1  11.08550110581058 -2.36183296719672 -1.78439268316832
 1  10.09631251725173 -2.72525446744674 -0.42610204990499
 1  11.22640032093209  0.68305053525353  0.21377286478648
 1  11.37125017841784 -0.83667962926293  0.88226884848485
 1  12.94854817371737 -1.75486364756476 -0.99620728832883
 1  12.75316906940694 -0.09260856985699 -1.69657301860186
 1  13.58044948164816  1.07469002500250  0.49850719371937
 1  14.12793554665467 -0.61132073677368  1.15298181468147
 1  15.21754504300430  0.43267275227523 -1.46397075507551
 1  16.01279872277228 -2.37209750185018 -0.16115756965697
 1  14.86655970667067 -2.07747012261226 -1.52371978707871
 1  16.54871450085009 -1.79428495339534 -1.52878434793479
 1  16.07337253795379  1.36692452615262  0.88919546384638
 1  16.63990843804380 -0.18179735483548  1.35750851205121
 1  18.25915685438544 -0.27394394179418 -0.74622796319632
 1  17.71504856935694  1.14297161606161 -1.20243381918192
 1  18.28795958855886  2.28331248894889  1.10197820312031
 1  18.90814797509751  0.76907108810881  1.63647364766477
 1  20.68042295499550  0.39689583778378  0.08988605260526
 1  20.20026413301330  3.24216777867787 -1.28391198459846
 1  21.58275252735273  1.87680433323332 -1.38959032233223
 1  19.76239014341434  1.43150496129613 -1.75676264526453
 1  21.14724069926993  1.46651476057606  2.38167778497850
 1  22.28306001230123  2.08944017371737  1.32886785308531
 1  20.69774950485048  3.03115319861986  1.52268270877088
=======
12 -7.14112468546855  0.62644139223922  0.15399308670867
 6 -4.84723934193419 -1.96434761316132  0.64917144984498
 6 -4.76539646854686  2.79481792909291  1.25395176007601
 6 -9.38026276177618  3.11763725922592 -0.41448430813081
 6 -9.47422773647365 -1.72704821582158 -0.98353478257826
 7 -5.14192761736174  0.42889270737074  0.82557297559756
 6 -4.37592729882988 -0.69277909990999  0.86648467166717
 6 -2.89437844324432 -0.35414484018402  1.27171752595260
 6 -3.02380581898190  1.15291796009601  1.67986871757176
 6 -4.37179417431743  1.47941869066907  1.17395442534253
 6 -2.76361144324432  1.32328461656166  3.16359776867687
 6 -2.03149661066107 -0.62125738713871  0.13725768406841
 6 -0.45637305990599 -0.43818816601660  0.54330846014601
 6  0.45906704390439 -0.63582709560956 -0.58583396389639
 8  0.05016625672567 -1.03071847944794 -1.69617594929493
 8  1.73757556805681 -0.61043844024402 -0.23195998489849
 7 -7.13930437833783  2.60366595639564  0.44002269776978
 6 -6.03146242524253  3.43076405220522  0.80110364396440
 6 -6.44055130823082  4.79200348974897  0.73510419761976
 6 -7.70364307130713  4.87458809030903  0.37762615391539
 6 -8.14583885548555  3.47488668396840  0.14864741104110
 6 -5.40274823152315  5.92289475537554  1.15889064956496
 6 -8.52271006860686  6.02630366406641  0.16205319071907
 6 -8.42013590489049  7.21603772237224  0.74345059485949
 7 -8.98795106770677  0.73139600070007 -0.54094812851285
 6 -9.73955021472147  1.81807176027603 -0.65133145724572
 6 -11.06668576517652  1.50767910701070 -1.21691341084108
 6 -11.17724012791279  0.17775313941394 -1.39157787178718
 6 -9.88145382608261 -0.30088206250625 -0.95782079817982
 6 -12.26290511421142  2.55561613261326 -1.51712848764876
 6 -12.32596714301430 -0.68216562666267 -1.82920372887289
 6 -12.12723021142114 -0.96297870907091 -3.32646776537654
 7 -7.20366983528353 -1.45043465706571 -0.16441111811181
 6 -8.25148538833883 -2.19586475857586 -0.67359231443144
 6 -7.84895104070407 -3.63150141764176 -0.62553983128313
 6 -6.48137202130213 -3.66113045004500 -0.25423715561556
 6 -6.18260085648565 -2.31477975927593  0.10642344654465
 6 -8.63663113051305 -4.87146998939894 -0.99276775517552
 6 -5.35123959425943 -4.46174005750575  0.31062393499350
 8 -5.20842968086809 -5.64206869026903  0.32902993369337
 6 -4.14180776017602 -3.35549133893389  0.63911377667767
 6 -3.51447207810781 -3.71498671997200  1.97965833873387
 8 -3.76441804240424 -3.13812054825483  2.99493217431743
 8 -2.74284547824782 -4.82871759415942  1.87686626752675
 6 -2.17015760366037 -5.28663289238924  3.13452838833883
 6  2.71257376907691 -0.76288408300830 -1.25308650905091
 6  4.05558764776478 -0.38918709500950 -0.53000314931493
 6  5.14662814721472  0.30327659305931 -1.02265203790379
 6  5.10281870487049  1.09586223552355 -2.34727889318932
 6  6.33911824462446  0.50657250745075 -0.18518500370037
 6  7.57793533143314 -0.17018736563656 -0.96733368386839
 6  8.85436730933093 -0.24866999739974 -0.14289610241024
 6  10.15928655315532 -0.61187825952595 -0.87414838533853
 6  10.00996769696970 -2.07768870497050 -1.46603006800680
 6  11.39404228112811 -0.46916069686969  0.08366923552355
 6  12.79057396509651 -0.68933298439844 -0.62970299319932
 6  13.88549801820182 -0.16689789258926  0.23606067356736
 6  15.36850297519752 -0.14125785488549 -0.53064130393039
 6  15.76707837673767 -1.68475610941094 -0.81007062476248
 6  16.43736784268427  0.44187854785479  0.40463497069707
 6  17.86264085348535  0.62778417681768 -0.23351916651665
 6  18.79841021052105  1.31555977297730  0.76444687768777
 6  20.16981565076507  1.51164149764976  0.14206897009701
 6  20.13787514131413  2.47239553675368 -1.08250924362436
 6  21.10750168096810  2.01758469476948  1.24237960136014
 1 -4.03684516901690  3.55004052545255  1.63698828572857
 1 -10.15571596429643  3.81803263826383 -0.66013140464046
 1 -10.14823811321132 -2.35399474027403 -1.27756440864086
 1 -2.50004646154615 -0.86016433033303  2.12919361056106
 1 -2.24292789798980  1.77862144474448  1.17018766916692
 1 -1.87633209070907  1.05431588448845  3.50973468696870
 1 -2.91696675667567  2.39541359885989  3.52407457285728
 1 -3.59540298299830  0.84076876087609  3.69222163496350
 1 -2.01591407630763 -1.62012197259726 -0.45945985518552
 1 -2.03995566806681  0.06455370577058 -0.69450949054906
 1 -0.44417793519352  0.60077469136914  0.82452285138514
 1 -0.11218902090209 -0.95947046224623  1.46615057025703
 1 -5.74080285568557  6.71099974407441  0.74108981818182
 1 -5.56003299269927  6.21126448954896  2.26278257535754
 1 -4.48384234023402  5.59783094949495  0.81191436703670
 1 -9.16530858335834  5.92018816691669 -0.83091331953195
 1 -9.00035125102510  8.14355509440944  0.59249887168717
 1 -7.69062852865287  7.44096049554955  1.64453283878388
 1 -11.91878598369837  3.03722404840484 -2.49549255395540
 1 -13.07809747894789  2.03019691089109 -1.83852504400440
 1 -12.52706443754376  3.16830548524852 -0.70080132413241
 1 -12.23651843024303 -1.70821026612661 -1.13441839673967
 1 -13.35847456635664 -0.17421415821582 -1.46983251075107
 1 -13.06063241584159 -1.56496118231823 -3.53059294379438
 1 -12.08837240144014  0.07204266666667 -3.83716721242124
 1 -11.17187346664667 -1.55048991609161 -3.66150477047705
 1 -8.95794539753975 -4.60249099199920 -1.90607387148715
 1 -7.87532689748975 -5.74140414461446 -0.97014662766277
 1 -9.42709259415942 -5.13549857115712 -0.25230705330533
 1 -3.29678037393739 -3.54027727842784 -0.05093036453645
 1 -1.27457562406241 -4.53731017071707  3.48534144944494
 1 -3.09139874847485 -5.50322193979398  3.93379621852185
 1 -1.84201231273127 -6.25793506670667  2.86547049994999
 1  2.59240854495450 -1.81870370627063 -1.52708667366737
 1  2.41297877547755 -0.15597131753175 -2.16289944214421
 1  4.21718262386239 -1.10145236043604  0.44845806180618
 1  4.07572653615362  1.22405111551155 -2.74534290399040
 1  5.69563497519752  2.23751401030103 -2.40478694689469
 1  5.58105541314131  0.45402651015102 -3.07800653165317
 1  6.54079614251425  1.47132113211321 -0.17917527472747
 1  6.15541966136614  0.00920288288829  0.89405912261226
 1  7.36338372307231 -1.27652688788879 -1.13424474807481
 1  7.58527096299630  0.24027723582358 -1.90022294589459
 1  9.16935898749875  0.70555844084408  0.34219185138514
 1  8.53203169186919 -0.89276478267827  0.66466433013301
 1  10.30377792919292  0.08633117081708 -1.71980687018702
 1  9.31208619411941 -2.03996197269727 -2.35984190899090
 1  10.90818337403740 -2.36374315821582 -2.00051429532953
 1  9.65617850385039 -3.08149009100910 -0.85386482618262
 1  11.39250693159316  0.61879410961096  0.42571405890589
 1  11.44078713211321 -1.20803676497650  1.12503312491249
 1  13.15790910981098 -1.74424258545855 -1.07934560216022
 1  12.46577032953295 -0.05381469046905 -1.59697305860586
 1  13.82681411811181  0.88678123412341  0.50401774477448
 1  13.91446419951995 -0.67947755245525  0.97418393489349
 1  15.14051734023402  0.21084056905691 -1.29709406740674
 1  15.84467191009101 -2.06126641874187  0.25140368646865
 1  15.20214326502650 -2.29729210481048 -1.45890330543054
 1  16.93554318371837 -1.81975750065006 -1.24039550905091
 1  16.23310851155115  1.65451328502850  0.66731327562756
 1  16.55120956815681 -0.02894206930693  1.41966472767277
 1  18.61736267496750 -0.34056060346035 -0.57125046544654
 1  17.59556662116212  1.13848116701670 -1.27707128292829
 1  18.62358315091509  2.50350450815081  0.77303530883088
 1  18.75736289658966  0.82892707370737  1.59291929222922
 1  20.54732964566457  0.64981112931293 -0.18631156715672
 1  19.51192529912991  3.33630719261926 -0.88415200860086
 1  20.98520277237724  2.70202685548555 -1.46129749304930
 1  19.50033393779378  2.09779158995900 -1.90036700570057
 1  20.97047302250225  1.41693980308031  2.11778139533953
 1  22.11118282458246  2.15567679737974  0.94153912021202
 1  20.54088381828183  2.91954203750375  1.54058449894990
>>>>>>> 8e03b5b5abfc0030b3aa597dc0de36371bfbd096

