%nproc=4
%Mem=3GB
# td=(NStates=1) iop(3/107=0140000000,3/108=0140000000) CAM-B3LYP/6-31G(d,p) 

TD

0 1
12 -7.14286897859786  0.56888527202720  0.03656002600260
 6 -4.88152696919692 -1.99399663026303  0.46904230663066
 6 -4.68753478407841  2.90765948384838  1.03290339553955
 6 -9.38596536103610  3.13285083808381 -0.29834230953095
 6 -9.61397749574957 -1.67270903660366 -0.80988779367937
 7 -5.09853688488849  0.41712780338034  0.66014383838384
 6 -4.42016426372637 -0.68235937913791  0.75150304500450
 6 -2.91768798939894 -0.43622202020202  1.12374804390439
 6 -2.93296652355236  1.01024972657266  1.43538981828183
 6 -4.27102733743374  1.52653730483048  1.02140653455346
 6 -2.78344452525252  1.32794561386139  2.97681299589959
 6 -1.95388111781178 -0.80061605080508 -0.04599078877888
 6 -0.53143885308531 -0.54470771877188  0.35855923822382
 6  0.51190311351135 -0.84838146004600 -0.65519530963096
 8  0.22426264306431 -1.14780855855586 -1.78397579067907
 8  1.77448604700470 -0.60771070947095 -0.25421080868087
 7 -7.09284692809281  2.58550176007601  0.30221114521452
 6 -5.95690583438344  3.39355312271227  0.72529840594059
 6 -6.34991990039004  4.77455431903190  0.74089234793479
 6 -7.65118990429043  4.80200200540054  0.40751687808781
 6 -8.11296082358236  3.49374631343134  0.06980497909791
 6 -5.47663969786979  5.94737421112111  1.10977113231323
 6 -8.57614762276228  5.99337960756076  0.28047866036604
 6 -8.52950136013601  7.11353050275028  1.04233829312931
 7 -9.14637367846785  0.72755975037504 -0.48064463836384
 6 -9.85699318561856  1.92177550185018 -0.62504531803180
 6 -11.27012096479648  1.57005645014501 -1.09132399209921
 6 -11.28242772997300  0.18408595439544 -1.17939796809681
 6 -9.99911751535154 -0.33631382478248 -0.84960716201620
 6 -12.37376831453145  2.59840508190819 -1.49511896459646
 6 -12.45046883978398 -0.66780290409041 -1.71314064466447
 6 -12.25662757165717 -1.15597578987899 -3.18513916511651
 7 -7.30094305670567 -1.27829266496650 -0.19334200930093
 6 -8.31340566686669 -2.16909545504550 -0.49285086498650
 6 -7.90507254705471 -3.59799035043504 -0.35682598239824
 6 -6.57640543104310 -3.55355833793379  0.05986390469047
 6 -6.24355808750875 -2.15118307410741  0.06758859425943
 6 -8.74632697219722 -4.82858895729573 -0.57106048914892
 6 -5.32804826772677 -4.27136069946995  0.19843481758176
 8 -5.23237422972297 -5.46727358435844  0.23643959255926
 6 -4.22562706530653 -3.31841928932893  0.45106342794279
 6 -3.48735291209121 -3.67945588828883  1.80006597509751
 8 -3.75314809820982 -3.14758211611161  2.87573093129313
 8 -2.68216356915692 -4.69748836733673  1.62560159765977
 6 -2.03751270827083 -5.16308151405141  2.85466286668667
 6  2.85537185758576 -0.80881917081708 -1.23642715991599
 6  4.17102798799880 -0.62242751065107 -0.48321088388839
 6  5.14447993929393  0.15612214021402 -0.93663654065407
 6  4.97189091469147  1.06570424572457 -2.19380351535154
 6  6.42502878157816  0.36756737273727 -0.14844536893689
 6  7.67549900250025 -0.27383593159316 -0.83854418311831
 6  9.00288800040004 -0.07976979307931 -0.02380848324832
 6  10.18088354895490 -0.48061972517252 -0.81331705170517
 6  10.22705598219822 -1.99926780668067 -1.15591255725573
 6  11.47604226802680 -0.03143803490349 -0.01931989448945
 6  12.79860759625963 -0.32753278677868 -0.69371687678768
 6  13.96107737953795  0.08400268596860  0.17471388298830
 6  15.34762075307531 -0.18189727332733 -0.49418507100710
 6  15.64453072407241 -1.66466485478548 -0.98135996229623
 6  16.39738673137314  0.34034055135514  0.51367610231023
 6  17.84283187088709  0.52598632823282 -0.14399092609261
 6  18.83519393799380  1.12577065556556  0.76359961666167
 6  20.24815762016202  1.35173460596060  0.21663836983698
 6  20.25509835563556  2.27618492359236 -0.96455115101510
 6  21.21375644264426  1.87859955985599  1.28552249224922
 1 -3.87607797129713  3.54090734213421  1.37948404420442
 1 -10.12536465976598  4.02930520502050 -0.49476400260026
 1 -10.36711113521352 -2.34108964406441 -0.90062788218822
 1 -2.55800308750875 -0.88079828252825  2.15465195589559
 1 -2.17895136143614  1.57706976807681  0.99084273327333
 1 -1.89913299969997  0.67494660106011  3.40058039543954
 1 -2.87611472057206  2.33306252905291  3.22992101430143
 1 -3.61208400890089  0.80156531083108  3.28397008220822
 1 -2.34142926192619 -1.88736940774077 -0.17351535863586
 1 -2.06539290829083 -0.16112849304930 -0.90096683128313
 1 -0.25222065076508  0.46372595989599  0.73042690569057
 1 -0.33394181448145 -1.41027179377938  1.06715017331733
 1 -5.69313349104910  6.78291580358036  0.59873970527053
 1 -5.63231470277028  6.18856173757376  2.28405041754175
 1 -4.27603244784478  5.77451171917192  0.95733646624662
 1 -9.31743200300030  6.02209559155916 -0.53628498119812
 1 -9.15088415211521  7.96551627262726  0.90412018771877
 1 -7.66115404750475  7.18363519991999  1.82686164646465
 1 -11.93931440444044  3.27850699779978 -2.24305013651365
 1 -13.26950424812481  1.98624736713671 -1.73677940614061
 1 -12.48173920662066  3.32639997409741 -0.62533297279728
 1 -12.47589955485549 -1.72342326512651 -1.13954745564556
 1 -13.43329562866287 -0.15603831433143 -1.30269602400240
 1 -13.24599979917992 -1.83237689978998 -3.32037299539954
 1 -12.12487289298930 -0.29593806510651 -3.73640261866187
 1 -11.39297413681368 -1.83181420862086 -3.46921519971997
 1 -9.29916453505350 -4.70213671447145 -1.49004506750675
 1 -8.06053043824383 -5.66502245554555 -0.65077503260326
 1 -9.54398857785779 -4.75936438483848  0.16817454875488
 1 -3.36173369186919 -3.59960656625662 -0.25969370747075
 1 -1.55299868746875 -4.19739195259526  3.12996471407141
 1 -2.85932236953695 -5.48576810171017  3.54939597729773
 1 -1.20983150365037 -5.99764054885489  2.46401976307631
 1  2.77801585638564 -1.82000862366237 -1.57135858455846
 1  2.71729817111711 -0.01090300550055 -2.03060411791179
 1  4.15207569426943 -0.98195660946095  0.55252665286529
 1  3.99900521202120  0.91860740344034 -2.71624210991099
 1  5.08999593179318  2.07229765366537 -1.89139657805781
 1  5.59383895239524  0.87559875077508 -3.01338759565957
 1  6.52102028592859  1.45553553415342 -0.06228661476148
 1  6.18824669676968  0.03022568586859  0.84756095159516
 1  7.61887401020102 -1.23838451145115 -1.11600635783578
 1  7.77967052555256  0.21112021502150 -1.90638146104611
 1  8.88309435373537  0.91976147364737  0.17816024412441
 1  8.96092921372137 -0.59879823252325  1.03583970737074
 1  10.18247287908791  0.03405955375538 -1.69942510051005
 1  9.34109371847185 -2.24675295879588 -1.74357273917392
 1  10.94717385798580 -2.22106550585059 -1.92028738683868
 1  10.10764296139614 -2.82413652835284 -0.30176757045705
 1  11.36874851645164  0.98584501790179  0.38692646344634
 1  11.49791738723872 -0.63606490409041  0.93589991009101
 1  12.93987193969397 -1.26328374767477 -1.02103437493749
 1  12.82721855175518  0.21323625962596 -1.52059639333933
 1  14.03638505880588  1.17721308460846  0.46066089478948
 1  13.94252256285629 -0.52010838973897  1.12859523352335
 1  15.43610401180118  0.34211760876088 -1.34846611541154
 1  15.64726852365237 -2.26953629482948 -0.10231836733673
 1  15.04808645304530 -1.96147066706671 -1.92055342884288
 1  16.69973825342534 -1.81837273427343 -1.57115362866287
 1  16.02789606310631  1.22665099879988  1.05842175847585
 1  16.49387346514651 -0.53387967276728  1.41457995269527
 1  18.16475321302130 -0.34315082908291 -0.56295649124912
 1  17.61023833343334  1.42162105620562 -0.98152389598960
 1  18.44768382528253  2.01628289628963  1.22173412021202
 1  18.81798776127613  0.49881472097210  1.72470571607161
 1  20.57570740304030  0.18584958255826 -0.02622673047305
 1  19.75487230573057  3.13181395789579 -0.73379556425643
 1  21.12446624742474  2.68771991409141 -1.30699868106811
 1  19.71863026062606  1.75523581378138 -1.86056444084408
 1  20.94055790929093  1.37771341224122  2.19482315111511
 1  22.31265915871587  1.97126759745975  1.03870052365237
 1  21.02656273477348  2.90956707390739  1.58223536023602

