%nproc=4
%Mem=3GB
# td=(NStates=1) iop(3/107=0140000000,3/108=0140000000) CAM-B3LYP/6-31G(d,p) 

TD

0 1
12 -7.09949464116412  0.59481786528653  0.10448681868187
 6 -4.87910672717272 -2.04599182978298  0.62923832623262
 6 -4.75370140074007  2.78103682158216  1.23526363156316
 6 -9.29484624912491  3.16667422042204 -0.53714618991899
 6 -9.58287438543855 -1.74069583528353 -0.79971677657766
 7 -5.07976500770077  0.39493558415842  0.79680750475048
 6 -4.33976622392239 -0.74140528372837  0.75043293799380
 6 -2.88252447304730 -0.51926032403240  1.22405807490749
 6 -3.10316354325433  0.94520322192219  1.81973825312531
 6 -4.32972320702070  1.47191184228423  1.23154754865487
 6 -3.09938611941194  1.07250006930693  3.26136145074507
 6 -1.85820154985499 -0.66321231043104  0.08642245254525
 6 -0.46642235143514 -0.48846209420942  0.57385076737674
 6  0.52716463966397 -0.64533115501550 -0.60726051615162
 8  0.21397161396140 -0.87960173787379 -1.75130252335234
 8  1.80179877827783 -0.52804274267427 -0.12425781338134
 7 -7.01758940234023  2.67160036993699  0.19316024012401
 6 -5.96082622642264  3.36583035043504  0.69311518761876
 6 -6.29892480088009  4.80610747434744  0.73076133483348
 6 -7.60521530683068  4.92923472867287  0.20879700610061
 6 -8.02576210371037  3.52254919371937 -0.08731073247325
 6 -5.37699973387339  5.87051652535254  1.24244439963996
 6 -8.42947295529553  6.09403967356736  0.03564417691769
 6 -8.35253366336634  7.27297644734473  0.71845590489049
 7 -9.06874591569157  0.67073406780678 -0.51677825172517
 6 -9.77019450575057  1.86385971027103 -0.66244905840584
 6 -11.10160411311131  1.54575401990199 -1.09470433013301
 6 -11.14454394159416  0.16417396319632 -1.20285031333133
 6 -9.86140374397440 -0.31779197259726 -0.84901710301030
 6 -12.13148408610861  2.48482372377238 -1.42938239093909
 6 -12.23712750565057 -0.61642776657666 -1.75546487708771
 6 -12.11577348624863 -0.98195838813881 -3.12203285448545
 7 -7.15161812421242 -1.44195903160316 -0.17697037213721
 6 -8.30064439073908 -2.24502304780478 -0.53763534343434
 6 -7.81212325212521 -3.64239479087909 -0.50460075987599
 6 -6.55903369386939 -3.56529951205120 -0.04325640734073
 6 -6.22024575627563 -2.30579853565357  0.18957079247925
 6 -8.56401874137414 -4.80811691009101 -0.98666204930493
 6 -5.24909037193719 -4.36678024142414  0.15472044614461
 8 -5.06361735403540 -5.49179603660366  0.12035798439844
 6 -4.14506900950095 -3.43552099949995  0.62952127372737
 6 -3.68796297309731 -3.74560250295029  2.03269923842384
 8 -3.86198898229823 -3.15567292519252  3.04923828202820
 8 -2.87309266206621 -4.77496611511151  1.85640467796780
 6 -2.34807376437644 -5.35978118401840  3.09781718211821
 6  2.81496781718172 -0.60264855375538 -1.13136665386539
 6  4.12791367656766 -0.34913018091809 -0.51035359815982
 6  5.08274376567657  0.42474900290029 -1.04086696369637
 6  5.03522724832483  1.22457013231323 -2.27529166416642
 6  6.36707298599860  0.59388000400040 -0.31203172757276
 6  7.57292874547455 -0.14899344734473 -1.07887821652165
 6  8.77832554415441 -0.26453826992699 -0.23766986938694
 6  10.13813927452745 -0.65565722892289 -0.96763248324832
 6  10.10050332693269 -2.11419929982998 -1.52376934293429
 6  11.34980964476448 -0.43033792489249  0.00393243074307
 6  12.63131086658666 -0.55040507400740 -0.69143664876488
 6  13.93555482728273 -0.18325403970397  0.08384479607961
 6  15.33094908590859 -0.18884796839684 -0.56516216871687
 6  15.64026029702970 -1.60092848114811 -0.98163999029903
 6  16.38502549524953  0.37334385168517  0.46124085878588
 6  17.68017560526053  0.66145987558756 -0.23747027402740
 6  18.65491591019102  1.26023410191019  0.84353761046105
 6  20.17138994339434  1.38211764426443  0.26941364736474
 6  20.17321016681668  2.37222452755275 -0.95932062796280
 6  21.11710677767777  2.01539323922392  1.43325726572657
 1 -3.95030539403940  3.45713896529653  1.58077417321732
 1 -10.14354647794780  3.93322559705971 -0.65254978117812
 1 -10.37638206230623 -2.35677121222122 -0.96261408080808
 1 -2.83846113331333 -1.30913111581158  2.05830232093209
 1 -2.16151961826183  1.48437049814981  1.39437308630863
 1 -2.06301938833883  0.75753485988599  3.60512084948495
 1 -3.68986609570957  2.21264048684868  3.65763378557856
 1 -3.75583838433843  0.18096325062506  3.69816150135013
 1 -1.73888900790079 -1.62949362016202 -0.46395440254025
 1 -2.03105947494750  0.12362998279828 -0.60960769536954
 1 -0.21650707940794  0.41451103840384  1.11904576757676
 1 -0.03757217751775 -1.32775354195420  1.31435489378938
 1 -5.57210138783878  6.74565207720772  0.46559639093909
 1 -5.59279075037504  5.98304118551855  2.12678469096910
 1 -4.35736058065807  5.73710797879788  0.93226395899590
 1 -9.15350561036104  6.11148453045305 -0.72534388708871
 1 -9.13594265796580  8.12913263426343  0.41182095779578
 1 -7.87954588668867  7.34594143054305  1.64879383968397
 1 -11.95246571957196  3.03196234333433 -2.28985481698170
 1 -13.15037233493349  2.19773851625163 -1.72155788398840
 1 -12.29520055275528  3.13731106520652 -0.62029246874687
 1 -12.28825078997900 -1.50070099289929 -0.96454995589559
 1 -13.17294959405941  0.04915220472047 -1.51161691609161
 1 -13.00990618981898 -1.66524018611861 -3.36180713881388
 1 -12.36641704740474 -0.23214168546855 -3.88457743614361
 1 -11.14169900930093 -1.43600462766277 -3.19990826902690
 1 -8.90761538013801 -4.56979348014801 -1.91194725772577
 1 -8.08810319551955 -5.62761871517152 -0.89528948404841
 1 -9.62184636363637 -4.93733218161816 -0.34272654135414
 1 -3.51402892139214 -3.47662426802680 -0.21838957705771
 1 -1.57980136773677 -4.54924713811381  3.50934265186519
 1 -3.14838127542754 -5.32886241114111  3.57587862556256
 1 -1.69766028652865 -6.21178196299630  2.87389075017502
 1  2.84128218301830 -1.59358598139814 -1.54287573627363
 1  2.48089453075308  0.01458954375437 -1.88753981148115
 1  4.48424891159116 -0.87459587338734  0.53272467266727
 1  3.98504381588159  1.17249279197920 -2.76720720642064
 1  5.27460439263926  2.27775819971997 -2.07768520692069
 1  5.58782835133513  0.93744493539354 -3.14956121302130
 1  6.54356254015402  1.69629961056106 -0.12611299739974
 1  6.01802967506751 -0.03114045074507  0.43778997449745
 1  7.41619374217422 -1.06814748774877 -1.67009176637664
 1  7.68708126662666  0.41366046904690 -2.00190101300130
 1  9.10447649194919  0.58328782628263  0.37960038813881
 1  8.65882900370037 -0.93645199789979  0.77463358675868
 1  10.23473810561056  0.16226237403740 -1.58355351335134
 1  9.12830243934394 -2.13844212771277 -2.05353373527353
 1  10.74429356995700 -2.24626802610261 -2.27210256835684
 1  9.96155835293529 -2.84507862256226 -0.81626902060206
 1  11.29547118871887  0.60838727212721  0.49649742054205
 1  11.22760035553555 -1.20275157275728  0.80620694079408
 1  12.82844079657966 -1.51546896619662 -1.03513578507851
 1  12.58306413631363 -0.01100616461646 -1.55989032273227
 1  13.73516493679368  0.74263962726273  0.45035986468647
 1  13.92401071167117 -0.92287866676668  1.09453182718272
 1  15.41311171257126  0.34193759075908 -1.51648291709171
 1  15.64763856065607 -2.26577591879188  0.04420628512851
 1  14.96465811021102 -2.01365588558856 -1.76083745724573
 1  16.61143942354235 -1.74628552555256 -1.31163767706771
 1  15.76952022552255  1.24860319401940  0.65546146244624
 1  16.40534461226122 -0.49060534533453  1.33892238693869
 1  18.08306504420442 -0.26629314331433 -0.62293248884889
 1  17.72099940954095  1.30956985108511 -1.01895763936394
 1  18.46763582048205  2.26849811781178  1.06513846064606
 1  18.72278824132414  0.34726956645664  1.68082132763276
 1  20.55092492479248  0.42537353495350 -0.11923603140314
 1  19.64409122762276  3.32596337283728 -0.77375956065607
 1  21.11459526032603  2.46104724682468 -1.22629061026103
 1  19.61640003760376  2.00698098829883 -1.84215259965997
 1  20.99868372187219  1.22440808170817  2.25354902370237
 1  22.16060395319532  1.82866333703370  1.24586123972397
 1  20.94225430393039  3.11613773097310  1.80427756445645

