%nproc=4
%Mem=2GB
# td=(NStates=1) CAM-B3LYP/6-31G(d,p) 

TD

0 1
12 -7.05489606260626  0.58829757785779  0.11446913431343
 6 -4.91911652965296 -1.96038721712171  0.60744727742774
 6 -4.70859078797880  2.81422987028703  1.16761312621262
 6 -9.35799053455345  3.11144664016402 -0.41524438413841
 6 -9.43570388408841 -1.71162667366737 -0.90199662876288
 7 -5.11343476807681  0.44244406250625  0.75959637793779
 6 -4.34402410851085 -0.71664148614861  0.78254627782778
 6 -2.95242424782478 -0.41522094779478  1.28330868506851
 6 -2.95602904130413  0.99692236053605  1.64737546824682
 6 -4.28749574447445  1.54220496929693  1.06544357425743
 6 -2.92379746184618  1.22692498059806  3.12693410231023
 6 -2.01576503750375 -0.62134739613961  0.10867482578258
 6 -0.43829125172517 -0.37548189538954  0.50190431973197
 6  0.53164430163016 -0.68908242114211 -0.64749012951295
 8  0.24666590669067 -1.12616802440244 -1.72961929362936
 8  1.80780259075908 -0.39777717411741 -0.28985577447745
 7 -7.02508295619562  2.56119170897090  0.38560725622562
 6 -5.94135341434143  3.38143911971197  0.83693722732273
 6 -6.35306255935594  4.75445973537354  0.86269695689569
 6 -7.61826453345334  4.85887651915191  0.36446483778378
 6 -8.00203447504751  3.43891308660866  0.02862540884088
 6 -5.40406836353635  5.78448091399140  1.26176093659366
 6 -8.51784958255826  5.99068010171017  0.18009499489949
 6 -8.34927881918192  7.17978409700970  0.76845309510951
 7 -9.08637090969097  0.72076493759376 -0.55796983068307
 6 -9.80099635933593  1.84682463556356 -0.64515083918392
 6 -11.11643073967397  1.44299263836384 -1.11487320682068
 6 -11.16281868576858  0.09762512661266 -1.30871958595860
 6 -9.81822750345034 -0.37851982628263 -0.99978499459946
 6 -12.25335415911591  2.50629120012001 -1.47628440324032
 6 -12.30853539983998 -0.70407781788179 -1.74330513901390
 6 -12.29292678107811 -1.05718813001300 -3.28668378697870
 7 -7.18688815711571 -1.37611722532253 -0.20007468446845
 6 -8.22090233003300 -2.29648482058206 -0.60348530373037
 6 -7.80614676027603 -3.62164043154315 -0.58101537883788
 6 -6.50447433153315 -3.57417175417542 -0.06733846574657
 6 -6.15700829722972 -2.19293757505751  0.16836964116412
 6 -8.69196666406641 -4.85173801620162 -0.82308078647865
 6 -5.22529700000000 -4.38559244274427  0.18949182178218
 8 -5.12493133103310 -5.55568005140514  0.03758078877888
 6 -4.23354693409341 -3.30740653045304  0.69816968226823
 6 -3.57446807770777 -3.69139436073607  2.02471284418442
 8 -3.72777437803780 -3.09202593879388  3.09939262036204
 8 -2.70945213891389 -4.63366808920892  1.80619920082008
 6 -2.08243883178318 -5.17294152325232  3.06273120862086
 6  2.88656116781678 -0.59729752435244 -1.38233943434343
 6  4.20087217621762 -0.42448062436244 -0.65875602460246
 6  5.10239372377238  0.41263752915292 -1.02706247894789
 6  5.11006942994299  1.27072972227223 -2.16124028932893
 6  6.36102043484348  0.62464431463146 -0.26369285448545
 6  7.56888442634263 -0.24105445234523 -0.93229017951795
 6  8.89324119671967 -0.26102123252325 -0.10995280808081
 6  10.10263088758876 -0.60624769646965 -0.78707967846785
 6  9.93147984818482 -2.08199913601360 -1.24353781878188
 6  11.28943182008201 -0.41530531133113  0.06337720632063
 6  12.65804071177118 -0.55098915001500 -0.63386340924092
 6  13.83419288768877 -0.28566976977698  0.24595166266627
 6  15.27210333523352 -0.25632936203620 -0.44584282408241
 6  15.67528919781978 -1.76656429022902 -0.88152777047705
 6  16.28894300020002  0.34866922692269  0.54011851905191
 6  17.63243783318332  0.59440083848385 -0.30283609820982
 6  18.67274764426443  1.36016423342334  0.63933436643664
 6  20.10388905810581  1.51473180668067  0.23835859905991
 6  20.13146450025003  2.09324762196220 -1.23456444914491
 6  20.85238616941694  2.30291322762276  1.32749811321132
 1 -3.96550803530353  3.48812433383338  1.45459004590459
 1 -9.92782317501750  4.04582541754175 -0.64327971947195
 1 -10.24818810821082 -2.40164950575058 -1.37016366856686
 1 -2.41728818571857 -0.94547286118612  2.13898458965897
 1 -2.03973757895790  1.42987657025703  1.16551720212021
 1 -1.93995845334533  1.02085253815382  3.48405211871187
 1 -3.26286134613461  2.13503756125613  3.42015418081808
 1 -3.43551699439944  0.41062574657466  3.54528694149415
 1 -1.99433191809181 -1.51549150955095 -0.46204011321132
 1 -2.23200487298730  0.18395564596460 -0.61800183978398
 1 -0.32484600200020  0.41234584848485  0.89820021912191
 1 -0.18401620362036 -1.29506402160216  1.14650860606061
 1 -5.52667144254425  6.52897154125413  0.42991870107011
 1 -5.60683767316732  6.40513387648765  2.32464876197620
 1 -4.28593254925492  5.30083124952495  1.26555973157316
 1 -9.29701175367537  5.80243639173917 -0.49066929512951
 1 -9.01749296519652  7.98452919181918  0.40081970377038
 1 -7.64940440624062  7.33252965246525  1.36998538403840
 1 -11.63910801590159  3.20972129812981 -2.27909091379138
 1 -13.10349001820182  1.75564945614561 -1.92685387688769
 1 -12.37909964106411  3.29592824752475 -0.65838708270827
 1 -12.18540331873188 -1.53709315441544 -1.09773472837284
 1 -13.22091080998100 -0.09417615441544 -1.55742126962696
 1 -13.17299365196520 -1.52974766096610 -3.48818870337034
 1 -12.26692025622562 -0.11784632223222 -3.71795529122912
 1 -11.24668094739474 -1.60130499759976 -3.36213483348335
 1 -9.15669527252725 -4.67796853975398 -1.98931219531953
 1 -7.84545391019102 -5.65123512771277 -0.99880949394939
 1 -9.32534241914191 -5.03053807510751  0.01713989138914
 1 -3.41444214011401 -3.33191644234423 -0.10574584608461
 1 -1.74796296279628 -4.36381282098210  3.66050896619662
 1 -2.78562817141714 -5.66119773737374  3.58577141604160
 1 -1.14172228372837 -5.84229350255025  2.73501745464546
 1  2.69673897799780 -1.65121695759576 -1.64743870887089
 1  2.86798427602760  0.09776405600560 -2.18474162636264
 1  4.29027993359336 -1.11070328552855  0.31333454945495
 1  4.10601956545655  1.26839554995500 -2.43661203090309
 1  5.57930334203420  2.06656691559156 -2.04996146434643
 1  5.54617192479248  0.78791989948995 -3.09623835483548
 1  6.55933799669967  1.73359735973597 -0.08492584978498
 1  6.35981010041004  0.32120408300830  0.73932364906491
 1  7.08248563326333 -1.21970120532053 -0.92224354795480
 1  7.73937637353735  0.27115032313231 -2.00066298989899
 1  8.96265831743174  0.80323820882088  0.35305293749375
 1  8.73575206390639 -0.82268777497750  0.94492235593559
 1  10.12474002540254 -0.07651511381138 -1.76029091859186
 1  8.84942992849285 -2.34135211171117 -1.55861178597860
 1  10.95528808450845 -2.52500928482848 -1.85963020692069
 1  9.94777766376638 -2.64164610661066 -0.27598703840384
 1  11.39702738363836  0.59740197039704  0.63224471197120
 1  11.17288034143414 -1.15464142544254  0.94516513811381
 1  12.83680699959996 -1.57254541574157 -1.19464713231323
 1  12.57727147964796  0.16761745274527 -1.61948530983098
 1  13.59764120082008  0.56724928092809  0.77694503750375
 1  13.78574132723272 -0.91686129082908  1.13793030953095
 1  15.39860314881488  0.38774825982598 -1.38935329332933
 1  15.74944238713871 -2.59981027312731 -0.00974242814281
 1  14.98211126182618 -2.25410778637864 -1.66934434953495
 1  16.60164979437944 -1.71272679757976 -1.35792726222622
 1  16.23614881558156  1.34865269896990  0.81687823212321
 1  16.38888333553355 -0.49091826692669  1.47758051925193
 1  17.95615655435543 -0.24778132553255 -0.36144948534853
 1  17.43096016051605  1.14316163506351 -1.12149572537254
 1  18.40265105770577  2.38355251295129  0.79534754005401
 1  18.67762492279228  0.87346152715272  1.54995499579958
 1  20.62659757245725  0.53990013821382  0.34959202320232
 1  19.60360446704670  3.05766932883288 -1.37955154855486
 1  21.01472572467247  2.27288394119412 -1.63989535283528
 1  19.33704760916092  1.68322013281328 -1.84291126012601
 1  20.87030300550055  1.79914802390239  2.23993361056106
 1  21.99202090839084  2.33780501020102  0.86998196449645
 1  20.37582731263126  3.42093217651765  1.23641408190819

