%nproc=4
%Mem=3GB
# td=(NStates=1) iop(3/107=0140000000,3/108=0140000000) CAM-B3LYP/6-31G(d,p) 

TD

0 1
12 -7.19703439513951  0.55701408490849  0.04781115111511
 6 -4.84927374387439 -1.95204243484348  0.40147554995500
 6 -4.76457248784878  2.89578829672967  1.14248435363536
 6 -9.47903466796680  3.11766931993199 -0.39182165746575
 6 -9.56442254025403 -1.63509527522752 -0.76552335723572
 7 -5.07260429162916  0.48858494909491  0.62531035503550
 6 -4.27096934423442 -0.72836397959796  0.66563445814581
 6 -2.91160738133813 -0.40497889588959  1.28766443554355
 6 -3.07876110301030  1.01547024862486  1.68383466276628
 6 -4.41454168886889  1.49899455055506  1.20039443334333
 6 -3.08280446124612  1.20334315361536  3.20073538813881
 6 -1.79455518521852 -0.57376336553655  0.20254406470647
 6 -0.50060576977698 -0.39799304730473  0.63827721002100
 6  0.54072599579958 -0.64317093899390 -0.40387017711771
 8  0.16459667646765 -0.98318209590959 -1.60001739483948
 8  1.76620521892189 -0.47436737513751 -0.07702308990899
 7 -7.05274291769177  2.56994020392039  0.33616454055406
 6 -6.05319546334634  3.44291805920592  0.77344322042204
 6 -6.45574048244824  4.78102496609661  0.67295555425543
 6 -7.72524731003100  4.78490029522952  0.26462258865887
 6 -8.15634516201620  3.42592953175318  0.09857785638564
 6 -5.48053008690869  5.83097257095710  1.19871002620262
 6 -8.57732774077408  6.00484075367537  0.08747936043604
 6 -8.31776018601860  7.20659980968097  0.65022908220822
 7 -9.16390543164316  0.69438643304330 -0.56658323222322
 6 -9.87848533483348  1.83937726202620 -0.61590440394039
 6 -11.27024097679768  1.55749519401940 -1.13697855755576
 6 -11.30698018521852  0.25677322312231 -1.26752678097810
 6 -10.00651825542554 -0.33263345674567 -0.79252145344534
 6 -12.25846678437844  2.50195543694369 -1.38090754345435
 6 -12.42156594949495 -0.77677380118012 -1.84425375597560
 6 -12.19153106200620 -1.17842803510351 -3.13249390059006
 7 -7.31339430183018 -1.41372620832083 -0.15142781788179
 6 -8.36152047834783 -2.29348789428943 -0.51351293119312
 6 -7.89214125392539 -3.69865041644164 -0.51851215101510
 6 -6.51361915241524 -3.58296127822782 -0.12648473017302
 6 -6.26934066576658 -2.15887384318432  0.09900173557356
 6 -8.80613295279528 -4.78596469486949 -0.90518390149015
 6 -5.42048751165116 -4.40325388878888  0.15558053215322
 8 -5.18937993029303 -5.60375723272327  0.08882483108311
 6 -4.20869537213721 -3.38833628102810  0.44991331293129
 6 -3.59675385218522 -3.76135407810781  1.83820978947895
 8 -3.94695747914791 -3.28997635553555  2.90736409460946
 8 -2.74030938373837 -4.80041866036604  1.61482051955195
 6 -2.36160511751175 -5.33597880378038  2.87278467886789
 6  2.83880020042004 -0.66521481038104 -1.06690020722072
 6  4.14080496569657 -0.37130239813981 -0.44722728552855
 6  5.17018250955095  0.39848637663766 -0.82948582558256
 6  5.10111383698370  1.15573324862486 -2.19780391539154
 6  6.44731100980098  0.55310592659266 -0.04376490089009
 6  7.62896434903490 -0.11310985898590 -0.77823815251525
 6  8.97706541814181 -0.00605242134213 -0.09131523392339
 6  10.26140160076008 -0.42993465666567 -0.88877459745975
 6  10.16201947854785 -1.91734961486149 -1.24205117111711
 6  11.50739540334033 -0.13151804290429 -0.06280424292429
 6  12.87813554905491 -0.33976400990099 -0.73390089518952
 6  14.04566583838384 -0.01004671897190  0.17415382698270
 6  15.45692168316832 -0.30457954155416 -0.45404105660566
 6  15.69735600660066 -1.79020740904090 -0.60464229052905
 6  16.54532152485249  0.40275679297930  0.43387812251225
 6  17.97629521722172  0.47336106570657 -0.22568909590959
 6  18.90581099969997  1.13092117061706  0.61211446814681
 6  20.32807561196120  1.23067249974997  0.13050975697570
 6  20.35658850465046  2.02252955805581 -1.26607130303030
 6  21.23924899189919  1.96005770567057  1.05635957595760
 1 -3.93492385588559  3.48281153255325  1.46804290009001
 1 -10.29701182448245  3.87100937543754 -0.34704923112311
 1 -10.34402882698270 -2.37940347544754 -0.81544936433643
 1 -2.75976326352635 -1.11100130283028  2.14825131583158
 1 -2.34613808010801  1.81814387548755  1.23114676367637
 1 -2.17399048544854  0.97328643504350  3.59776011341134
 1 -3.44052116121612  2.28656787958796  3.24569259145915
 1 -3.93547634813481  0.56133128742874  3.57171885708571
 1 -1.75724084308431 -1.55135580638064 -0.48877688478848
 1 -1.96497286628663  0.17990561036104 -0.61622835743574
 1 -0.22157758645865  0.62070165746575  1.10380424342434
 1 -0.23193161346135 -0.86528729532953  1.54930838913891
 1 -5.37083126082608  6.71831934393439  0.50596042734273
 1 -5.93218468976898  6.40057293869387  2.13760577307731
 1 -4.45775061966197  5.36862113011301  1.43831456405641
 1 -9.47370763056306  5.80035341734173 -0.30769212191219
 1 -9.21222028572857  7.93018273927393  0.72157193289329
 1 -7.57083501560156  7.33641047744774  1.23648260856086
 1 -12.02221269426943  3.14057320442044 -2.23845967746775
 1 -13.07973527122712  2.16397513991399 -1.63182891109111
 1 -12.22060309300930  3.16962429652965 -0.42941338083808
 1 -12.62918488338834 -1.58713963676368 -1.20577407830783
 1 -13.28086038513852  0.01121841134113 -1.82067782218222
 1 -12.95678087728773 -2.00174383648365 -3.47562852095209
 1 -12.22434283998400 -0.38068653995400 -3.82484146254625
 1 -10.97947278667867 -1.49916094329433 -3.27429570777078
 1 -9.17686230483048 -4.62689919071907 -1.88357442044204
 1 -8.37666205140514 -5.87365331863186 -0.56663661876188
 1 -9.52676685568557 -4.72901134953495 -0.25811808050805
 1 -3.55827334583458 -3.71241784738474 -0.37066480458046
 1 -1.86611999959996 -4.45812802620262  3.45795751335134
 1 -3.22298873617362 -5.69345887078708  3.33948498619862
 1 -1.44991551205120 -5.97685847064706  2.51767512861286
 1  2.80794884968497 -1.75104172697270 -1.60142159085909
 1  2.53643008430843 -0.08316023122312 -1.83498455595560
 1  4.46828731543154 -0.76457487128713  0.49732113231323
 1  4.24900021152115  1.25408095079508 -2.78785927162716
 1  5.15274220642064  2.37733815771577 -1.88470590899090
 1  5.92681224972497  0.65012620352035 -2.71323758065807
 1  6.58868705260526  1.51218119871987 -0.02634302040204
 1  6.23578145024502  0.00334299759976  0.93845004050405
 1  7.54468659145915 -1.19263993699370 -0.95363012021202
 1  7.61467402590259  0.21191029402940 -1.80029085198520
 1  9.22367841214121  0.94284378187819  0.40483291139114
 1  9.02854597539754 -0.80248860156016  0.81784790819082
 1  10.32167679947995  0.03289943774377 -1.89263442144214
 1  9.23245285438544 -2.21406969046905 -1.79069745164516
 1  11.06960610121012 -2.33936733603360 -1.79095445354535
 1  10.28726092319232 -2.69464357905791 -0.44738213191319
 1  11.65430707230723  0.77847428082808  0.37896566736674
 1  11.60033762926293 -0.85903720132013  0.71251757185719
 1  12.97163511601160 -1.34094151345135 -1.12087435893589
 1  13.01814764466446  0.52991792779278 -1.42050638433843
 1  13.96559798009801  1.17937330063006  0.29349417811781
 1  14.12305061566157 -0.48889526842684  1.08573094709471
 1  15.46031643304330  0.19098249524953 -1.37435870467047
 1  15.43463726052605 -2.28346768796880  0.35083694819482
 1  14.86144778917892 -2.21582610261026 -1.15867724122412
 1  16.56842512211221 -2.01805270227023 -1.21940845414541
 1  16.18848212171217  1.53702203590359  0.66147206350635
 1  16.55720979877988 -0.04444072887289  1.18020651535154
 1  18.32635937363737 -0.67267378137814 -0.55734593019302
 1  17.91325863546355  0.94692358645865 -1.18289403300330
 1  18.54345340224022  2.27027829582958  0.66642858965897
 1  19.17247320982098  0.81573641314131  1.79843308880888
 1  20.60040987328733  0.14195519311931 -0.04213832163216
 1  20.15417223572357  3.17227800430043 -0.99873205790579
 1  21.37905170597060  2.09856099819982 -1.59314729592959
 1  19.73439183678368  1.68745903610361 -2.15763414781478
 1  21.22919677317732  1.38486412731273  2.11096476527653
 1  22.36715460826083  1.79377984868487  0.83238989258926
 1  20.92187226572657  2.98992510971097  1.30659779647965

