%nproc=4
%Mem=3GB
# td=(NStates=1) iop(3/107=0140000000,3/108=0140000000) CAM-B3LYP/6-31G(d,p) 

TD

0 1
12 -7.09903459515952  0.61541992549255  0.04569093909391
 6 -4.84013282978298 -2.01340857145715  0.54434983738374
 6 -4.83860989158916  2.84583330123012  1.26900700590059
 6 -9.40379714421442  3.09382693569357 -0.40604307960796
 6 -9.55905200320032 -1.68672043774377 -0.83005981088109
 7 -5.08252528372837  0.47286337693769  0.72408023202320
 6 -4.27052930023002 -0.74691583478348  0.84589248394839
 6 -2.90303652425243 -0.44082248024802  1.25941161026103
 6 -3.04686791369137  1.01705040664066  1.67172345164516
 6 -4.40041027572757  1.45972062316232  1.17801219511951
 6 -3.01164734553455  1.37089990929093  3.20480579517952
 6 -1.98436416611661 -0.59211520072007  0.11478528882888
 6 -0.44364007320732 -0.31799504750475  0.47562094439444
 6  0.46535845904590 -0.63135975787579 -0.70318010811081
 8  0.18576879367937 -1.10653443114311 -1.76253364646465
 8  1.71323992239224 -0.38046798519852 -0.16859224682468
 7 -7.10893853725373  2.55075828572857  0.33482440654065
 6 -6.07129727352735  3.35222899029903  0.76703257935794
 6 -6.35767067546755  4.73446030963096  0.78039629832983
 6 -7.71293607890789  4.84612641784178  0.38510463686369
 6 -8.16065559305931  3.52860979977998  0.05037303590359
 6 -5.49581161506151  5.92677215091509  1.01709186438644
 6 -8.56847685568557  6.07667793739374  0.24453506600660
 6 -8.34142255225523  7.23974312401240  0.79662372167217
 7 -9.13809285038504  0.65474246864686 -0.38802537643764
 6 -9.87386487278728  1.72926625092509 -0.61708452195220
 6 -11.19374332703270  1.43011245574557 -1.13217807750775
 6 -11.17602708990899  0.07585513131313 -1.30546057435744
 6 -9.88843644724473 -0.40784097749775 -0.87002920422042
 6 -12.27995893359336  2.49268450985099 -1.38371782448245
 6 -12.25619941284128 -0.72025814961496 -1.82677200780078
 6 -12.25034694359436 -1.13840403270327 -3.23365401660166
 7 -7.18367132953295 -1.38723355905591 -0.18597127222722
 6 -8.27401172747275 -2.29452799829983 -0.43880546044604
 6 -7.79772181198120 -3.65650620202020 -0.55235553535354
 6 -6.47496528702870 -3.56689967206721 -0.20135221692169
 6 -6.10547427912791 -2.22363031883188  0.03789562496250
 6 -8.50023236273627 -4.88349444784478 -0.87545092819282
 6 -5.28279374227423 -4.32531609500950  0.20334530863086
 8 -5.23518451075107 -5.62190904790479  0.22780872947295
 6 -4.14386888948895 -3.37305475287529  0.53595191679168
 6 -3.54782895969597 -3.72300024272427  1.89862583108311
 8 -3.67933071647165 -3.20747810571057  2.98968232643264
 8 -2.71692704550455 -4.69111773027303  1.72703174067407
 6 -2.05579453645365 -5.19827503340334  2.99905730613061
 6  2.71805812621262 -0.57331562046205 -1.12290580778078
 6  4.10084096929693 -0.35818108600860 -0.62943550635063
 6  5.10269576087609  0.47547407540754 -0.93269614661466
 6  4.94059778537854  1.48777645294529 -2.12544667966797
 6  6.36571284998500  0.47949856585659 -0.21626215061506
 6  7.64285573817382 -0.11116966496650 -0.99390971967197
 6  8.94089180078008  0.04190237413741 -0.14975107750775
 6  10.22900836143614 -0.40431209440944 -0.91471719171917
 6  10.06738001460146 -1.88366624652465 -1.30582754875488
 6  11.48002266606661 -0.26646153725373 -0.01598956145615
 6  12.74633236873687 -0.40705073857386 -0.75141264636464
 6  13.87357862966297 -0.22496821112111  0.18005441704170
 6  15.25241123212321 -0.26962604620462 -0.47758341084108
 6  15.51993826482648 -1.68525691399140 -0.92115394169417
 6  16.36151314401440  0.39431594889489  0.45476021072107
 6  17.76305389308931  0.38206193579358 -0.18875540254025
 6  18.77498791739174  1.21510958945895  0.78539179587959
 6  20.21493429782978  1.21630106260626  0.21206791279128
 6  20.48829167496750  1.88272557765777 -1.12328702460246
 6  21.15761082808281  1.77121882178218  1.37115105510551
 1 -3.80232059555956  3.67626087748775  1.41240733653365
 1 -10.28426054935494  3.69582185668567 -0.63621814801480
 1 -10.18444286838684 -2.43592912801280 -0.99740756015601
 1 -2.72082937013701 -1.01042124482448  2.08814530523052
 1 -2.38089155545555  1.63616567766777  1.23724737373737
 1 -2.00287337373737  1.03823292969297  3.53509384678468
 1 -3.01838894799480  2.34104332713271  3.34707272947295
 1 -3.73926672717272  0.82954810911091  3.74385607080708
 1 -1.94336945594560 -1.66035670647065 -0.17678568566857
 1 -2.26890325932593  0.02950056985699 -0.69636637123712
 1 -0.36188161686169  0.73581316861686  0.72690655365537
 1 -0.26374479477948 -0.87855862246225  1.28460191849185
 1 -5.85487966566657  6.78601611361136  0.42120195149515
 1 -5.26213768506851  6.29646252765277  2.12553456595660
 1 -4.43995884048405  5.73483775177518  0.61484221682168
 1 -9.40468072787279  5.97133051505150 -0.56421777447745
 1 -9.04076314001400  8.02787250825082  0.25092486818682
 1 -7.78261619371937  7.42441927832783  1.61545050535053
 1 -11.94132460546055  3.15823497059706 -2.17531336283628
 1 -13.09970726842684  1.83257199959996 -2.01335706390639
 1 -12.60134116681668  3.09004633873387 -0.42519295879588
 1 -12.39485145004500 -1.70247116991699 -1.35095859675968
 1 -13.16730903000300 -0.02043475397540 -1.82834858925893
 1 -13.18980417961796 -1.61155481758176 -3.55040599869987
 1 -12.25085549124912 -0.30851932323232 -4.07885686408641
 1 -11.27346218561856 -1.59382040924092 -3.50677895609561
 1 -8.83705832443244 -4.86566306710671 -1.99593565656566
 1 -7.85622000720072 -5.78828478177818 -0.82411236633663
 1 -9.52196637563756 -5.23916236463646 -0.25274754345435
 1 -3.26662418091809 -3.39594620022002 -0.05318305640564
 1 -1.26351973957396 -4.48445065846585  3.40300201780178
 1 -2.94425086238624 -5.09513903880388  3.64857589528953
 1 -1.68200872137214 -6.09621040584058  2.53784714581458
 1  2.49218727352735 -1.62860948374838 -1.54222567126713
 1  2.33955039633963  0.11232931773177 -1.79528058555856
 1  4.44467495419542 -0.91152956675668  0.15891729192919
 1  3.94432974447445  1.87211275397540 -2.31598208390839
 1  5.39270620282028  2.40983140704070 -1.95698313671367
 1  5.38803837233723  0.98723991489149 -2.96243250015002
 1  6.70560874477448  1.29126910751075  0.17154676857686
 1  6.44001187328733 -0.24235157185719  0.66609280478048
 1  7.63891601440144 -1.10706137913791 -1.21263602080208
 1  7.69524208270827  0.43487259025903 -2.10734155705571
 1  9.07497354165417  1.05198469596960  0.20789321742174
 1  9.04034715551555 -0.74630298299830  0.66455257865787
 1  10.31525615741574  0.23893004080408 -1.82856801480148
 1  9.24284389348935 -2.09272755625563 -2.06317469936994
 1  10.98030717131713 -2.17426082538254 -1.70505586368637
 1  9.74261645874588 -2.51879599429943 -0.47014440814081
 1  11.48553019461946  0.76537297069707  0.32039981078108
 1  11.19067666316632 -0.98891018861886  0.83897021712171
 1  12.94049200170017 -1.55991341064106 -1.05986825832583
 1  12.72515834573457  0.32101703770377 -1.46710104380438
 1  13.73670509080908  1.03167853115312  0.34981981068107
 1  13.72088039863986 -0.88604498339834  1.12198457245725
 1  15.08349875127513  0.27311070807081 -1.44620588938894
 1  15.45778957575758 -2.37130647184718  0.13711557605761
 1  14.87735938033803 -1.86618113811381 -1.71043241674167
 1  16.48757703730373 -1.92372326932693 -1.31665817911791
 1  16.03612688618862  1.36632496619662  0.64737065336534
 1  16.34158823662366 -0.16610289508951  1.22288078277828
 1  18.21612835053505 -0.65266178017802 -0.32446264186419
 1  17.87429473907391  0.87539643374337 -1.35162090569057
 1  18.53125218211821  2.14053532153215  0.87186913371337
 1  18.69251521402141  0.67461230073007  1.85180842634263
 1  20.50212004430443  0.20291128872887  0.03592948514852
 1  20.13134995349535  3.16130690719072 -1.15092727742774
 1  21.61783558435843  1.92459360146015 -1.46895487668767
 1  19.81898029562956  1.33652394259426 -1.89051743614361
 1  21.29682353585358  1.06466210711071  2.32946661546155
 1  22.24519241204120  2.19314978567857  1.24087074067407
 1  20.59748982748275  2.73127924512451  1.79203634033403

