%nproc=4
%Mem=2GB
# td=(NStates=1) CAM-B3LYP/6-31G(d,p) 

TD

0 1
12 -7.08226879987999  0.56011475957596 -0.00270258285829
 6 -4.84714933293329 -1.99068024642464  0.52808934163416
 6 -4.87645757465747  2.81203965126513  1.10421678657866
 6 -9.38190292579258  3.01716721222122 -0.42472533223322
 6 -9.50662097579758 -1.76270178117812 -0.96906333543354
 7 -5.11291471607161  0.39214903300330  0.65997641594159
 6 -4.31694140024002 -0.71516133813381  0.82420044324432
 6 -2.91370037543754 -0.30861028672867  1.09808016221622
 6 -3.02657609600960  1.10665333363336  1.57401813251325
 6 -4.36404339923992  1.45531628042804  0.97676470637064
 6 -2.96927200930093  1.19055134323432  3.10252166106611
 6 -1.90028348934893 -0.62652791419142 -0.04450049174918
 6 -0.44735215781578 -0.40785513271327  0.55834996429643
 6  0.55782691989199 -0.68526203910391 -0.51725710621062
 8  0.20507174727473 -1.02783819141914 -1.61974830653065
 8  1.82458426892689 -0.40072746914691 -0.15487227612761
 7 -7.14925537343734  2.64533012281228  0.36166486198620
 6 -6.01721100010001  3.40354132993299  0.75999953355336
 6 -6.45938319141914  4.72885717511751  0.76407709490949
 6 -7.81719442644264  4.77023765526553  0.40740913221322
 6 -8.17860213181318  3.46492568786879  0.04715726202620
 6 -5.61430938763876  5.90183264916492  1.03470823132313
 6 -8.60643844144414  5.95145617931793  0.18415540094009
 6 -8.43539743104311  7.08734485308531  0.87164341414141
 7 -9.10527279987999  0.67537039813981 -0.58581261496150
 6 -9.82920918061806  1.71162111521152 -0.67023334743474
 6 -11.18007710431043  1.41509984908491 -1.10980269976998
 6 -11.16932933683368  0.12204756885689 -1.22893160716072
 6 -9.90124580528053 -0.38833080738074 -0.90686570267027
 6 -12.31588041174117  2.34973554455446 -1.30099687448745
 6 -12.39497404370437 -0.84303171327133 -1.67645845434543
 6 -12.31957944634464 -1.22587499869987 -3.17090220882088
 7 -7.16609607790779 -1.38625823942394 -0.29150382738274
 6 -8.21297153695370 -2.21310648274827 -0.59679463466347
 6 -7.79517566316632 -3.55781404890489 -0.57467474477448
 6 -6.47120100420042 -3.61232556955696 -0.11740347224722
 6 -6.22366496289629 -2.19050733203320  0.10242304650465
 6 -8.65088255565557 -4.74009685208521 -0.87337581598160
 6 -5.36847131743174 -4.35926981048105  0.29830270287029
 8 -5.25089392729273 -5.61034551795179  0.29883691439144
 6 -4.21279485888589 -3.38540433023302  0.56757662296230
 6 -3.58622925382538 -3.66146136743674  1.92063243614361
 8 -3.80300190079008 -3.07981471767177  3.00446312741274
 8 -2.59976116981698 -4.63627835023502  1.79486806770677
 6 -1.96802739063906 -5.01260548964896  3.01476641214121
 6  2.80685319701970 -0.43734152875288 -1.18018921932193
 6  4.16049813881388 -0.32159033533353 -0.51442159115912
 6  5.18494197859786  0.56901316671667 -0.91025079777978
 6  5.02616103910391  1.45701835113511 -2.09735390069007
 6  6.44239857265727  0.46030788098810 -0.15654213941394
 6  7.63344088198820  0.02992264536454 -0.94415136563656
 6  8.91810368296830  0.01848671827183 -0.03646545934593
 6  10.16858748324832 -0.37205427712771 -0.81645261576158
 6  9.99868656885688 -1.93903483958396 -1.32385585058506
 6  11.40410328722872 -0.19570335113511 -0.03411254265427
 6  12.72613752145215 -0.58733278437844 -0.65191521442144
 6  13.87074654305430 -0.15692689548955  0.19770683818382
 6  15.31568769366937 -0.19729345844584 -0.54904314411441
 6  15.61131280018002 -1.69886752055206 -0.80299991769177
 6  16.41658576447645  0.45089944994499  0.36541104830483
 6  17.78523311271127  0.43681507990799 -0.22952876747675
 6  18.85504587408741  1.11648986598660  0.67838827182718
 6  20.24537320652065  1.16274660816082  0.17498226142614
 6  20.38125947974797  2.03376167336734 -1.06659765246525
 6  21.29904083488349  1.66172910921092  1.25795115851585
 1 -3.99991147564756  3.58109363076308  1.35668025492549
 1 -10.11001139383938  3.77292812781278 -0.71940733223322
 1 -10.30602389178918 -2.61641098189819 -1.10136678887889
 1 -2.84126058295830 -1.26933524742474  1.80714140534053
 1 -2.16839044424442  1.61893547614761  1.06452710311031
 1 -2.04717917541754  0.93154360726073  3.64639835333533
 1 -3.13337839783978  2.27575163266327  3.38737090249025
 1 -3.90561400410041  0.60442512651265  3.38336074887489
 1 -2.15175766066607 -1.70974093449345 -0.56646055525553
 1 -1.98843051555156  0.06958420882088 -0.85118515811581
 1 -0.28978249564956  0.69703431733173  0.83094349344935
 1 -0.20160796279628 -1.02967748294830  1.50649460466047
 1 -5.99417819321932  6.88973761786179  0.32327803700370
 1 -5.73652064146415  6.22466582968297  2.09645594269427
 1 -4.45814977097710  5.53605477187719  1.11964514011401
 1 -9.27345939843984  5.90801694979498 -0.65812604080408
 1 -8.98904011991199  7.96324706360636  0.73566318811881
 1 -7.88782824862486  7.12535893539354  1.83807219271927
 1 -12.06455056015602  3.20051037703770 -1.95458846354635
 1 -13.10605027422742  1.62779667086709 -1.49152034353435
 1 -12.65029676077608  2.81964061876188 -0.30095133913391
 1 -12.32263704210421 -1.78631807690769 -1.11914686958696
 1 -13.42907162606261 -0.46192292909291 -1.37357288478848
 1 -13.18094444704470 -1.89104379057906 -3.31681156565657
 1 -12.41145470967097 -0.29360389798980 -3.69022251795180
 1 -11.45898217751775 -1.94456932403240 -3.31094971497150
 1 -9.01848145114512 -5.01047179007901 -1.95141840594059
 1 -7.99501886668667 -5.54960496469647 -0.79276888988899
 1 -9.51022090699070 -4.71616663796380 -0.27521934453445
 1 -3.48255895179518 -3.62597584828483 -0.20973624512451
 1 -1.72236040254025 -4.06878331803180  3.54150706600660
 1 -2.43054266286629 -5.61815343294329  3.75549838873887
 1 -0.91974008550855 -5.63907318051805  2.87512146504650
 1  2.68594789888989 -1.40560239613961 -1.71198516351635
 1  2.44074155175518  0.31098537813781 -1.96115926812681
 1  4.30716162176218 -0.78985120032003  0.33531674767477
 1  4.10649961346135  1.56839554995500 -2.43151152085209
 1  5.33018843054305  2.55042530143014 -1.85253172137214
 1  5.74068137573757  1.28770987848785 -2.94560329132913
 1  6.49777184008401  1.66976097609761  0.04050669346935
 1  6.24100822022202 -0.27049508690869  0.70627034373437
 1  7.41975936063606 -0.91664089928993 -1.22596391999200
 1  7.87445988188819  0.34534774287429 -1.82067499109911
 1  8.97078913051305  1.02969085408541  0.17293492569257
 1  8.85107359605961 -0.57198270447045  0.81201906560656
 1  10.13121067246725  0.05689822752275 -1.70987587708771
 1  9.47336232173217 -2.18549652615262 -2.13493941874187
 1  11.00505306100610 -2.24456124002400 -1.63323756765677
 1  9.63997688368837 -2.51108305030503 -0.42992243194319
 1  11.39525720662066  0.90561279147915  0.13873536103610
 1  11.24177723112311 -0.60844680598060  0.92889351095110
 1  12.63188650755075 -1.69744790599060 -0.74118178577858
 1  12.71610536303630 -0.24068337733773 -1.72443580488049
 1  13.82327376407641  0.98004056005601  0.37222456545655
 1  13.84139689278928 -0.79489909460946  1.02071858835884
 1  15.01399468796880  0.34881436643664 -1.53388774677468
 1  15.92603004590459 -2.32777306940694  0.00761930803080
 1  14.92796584728473 -2.10669304490449 -1.48743615871587
 1  16.62906253565357 -1.74371989688969 -1.29926139563956
 1  16.17629282998300  1.54335216891689  0.63814035833583
 1  16.21241568876887 -0.04456363146315  1.39568232943294
 1  18.12642358105811 -0.75702224962496 -0.24127746814681
 1  17.84897196169617  0.91610892979298 -1.14943851965196
 1  18.35427622022202  2.12866702440244  1.09804781008101
 1  18.96699385968597  0.60994517551755  1.64038403870387
 1  20.44620953365337  0.09101524972497 -0.07601053705370
 1  20.04003811041104  2.96986054795480 -0.78930252365237
 1  21.53831808390839  2.06669332213221 -1.16000736403640
 1  19.75638954335434  1.60860267106711 -1.81282825182518
 1  21.46978295349535  1.07875598469847  2.11084070127013
 1  22.32549425572557  1.59082031173117  0.71871683798380
 1  21.23031276117612  2.71615169846985  1.72220266076608

