%nproc=4
%Mem=2GB
# td=(NStates=1) CAM-B3LYP/6-31G(d,p) 

TD

0 1
12 -7.22745331833183  0.62950169826983  0.13590127752775
 6 -4.86777139513951 -1.86835801420142  0.65481201390139
 6 -4.79402933183318  2.80138858615862  1.08744510941094
 6 -9.38166290179018  3.10794629012901 -0.53708656835684
 6 -9.53564387808781 -1.72921843284328 -0.77530395949595
 7 -5.18269169376938  0.47519733783378  0.60943136143614
 6 -4.33943364946495 -0.64660448244824  0.73011103430343
 6 -2.91686069146915 -0.41494091979198  1.17054740894089
 6 -3.00307374577458  1.06595926422642  1.67423815451545
 6 -4.41320831573157  1.55621637043704  1.05666269616962
 6 -2.97742282438244  1.23244553265327  3.19087049594960
 6 -1.94456791779178 -0.64342960436044  0.06849080738074
 6 -0.41781920452045 -0.51430577777778  0.46954108340834
 6  0.54440557775778 -0.74607812071207 -0.62020740124012
 8  0.22034327442744 -1.10304571217122 -1.67288362006201
 8  1.84754656515652 -0.34587198359836 -0.23737052595260
 7 -7.17360780868087  2.66560215001500  0.34325302080208
 6 -6.11133041204120  3.41299227502750  0.77099063266327
 6 -6.45646289938994  4.73839812921292  0.76344703190319
 6 -7.72073478047805  4.89188982048205  0.33730212151215
 6 -8.17273154475448  3.47612680798080  0.03643618991899
 6 -5.59288724542454  5.81356382228223  1.23199796029603
 6 -8.60586838443844  5.97634866856686  0.20575756115612
 6 -8.48676256755676  7.14323044164416  0.91354760456046
 7 -9.19995226782678  0.62009487058706 -0.60650468416842
 6 -9.94763102280228  1.76892684578458 -0.75149147324732
 6 -11.32338143474347  1.45722406150615 -1.19003072257226
 6 -11.24496690059006  0.06306167026703 -1.30316903090309
 6 -9.95285096579658 -0.35547752205221 -0.98680369646965
 6 -12.31703052675267  2.44553512451245 -1.37791456625663
 6 -12.39442398869887 -0.74791220132013 -1.78345915441544
 6 -12.27209469786979 -1.11402381358136 -3.15978109670967
 7 -7.23747321562156 -1.46159577317732 -0.07403208020802
 6 -8.36445668546855 -2.21761693379338 -0.43982893809381
 6 -7.81006715231523 -3.67891615911591 -0.44778205550555
 6 -6.51702558665867 -3.56978131513151 -0.05918765066507
 6 -6.22814541094109 -2.13672195349535  0.18468127232723
 6 -8.48744621202120 -4.87986082848285 -1.00209868826883
 6 -5.30663513381338 -4.37609149264927  0.26991986458646
 8 -5.08312715061506 -5.55287977137714  0.13562059275928
 6 -4.21262484188419 -3.21667745754575  0.64732459775978
 6 -3.51044167506751 -3.60810603190319  1.99357973087309
 8 -3.66454805540554 -2.90782751895189  3.04208688978898
 8 -2.74714590829083 -4.70159488188819  1.83018159905991
 6 -2.13816440434043 -5.27509173827383  3.05443037853785
 6  2.80893340504050 -0.57579537413741 -1.26641784218422
 6  4.12834492349235 -0.38177635393539 -0.57746789578958
 6  5.11297478187819  0.35922218761876 -1.04418419111911
 6  5.10438886188619  1.24705735503550 -2.28553271857186
 6  6.46894122692269  0.48019987018702 -0.22313879907991
 6  7.60883842174217 -0.15163551045105 -1.02991994249425
 6  8.87070894349435 -0.14732986338634 -0.20715252805281
 6  10.27238786328633 -0.64960203190319 -0.94731570207021
 6  10.17418411861186 -2.12959389548955 -1.38395186018602
 6  11.47572044894489 -0.36560034083408 -0.07743687508751
 6  12.82574748244824 -0.59329338043804 -0.69653967686769
 6  14.04049351775178 -0.03188439123912  0.16257332483248
 6  15.40199632453245 -0.14488821792179 -0.52594083388339
 6  15.76595826472647 -1.57984561836184 -0.99330894859486
 6  16.46493059895990  0.39466382638264  0.39792429962996
 6  17.85632022142214  0.43388478687869 -0.13574938953895
 6  18.80953132263226  1.13790200720072  0.80471090409041
 6  20.22719138833883  1.32957329082908  0.30834559775978
 6  20.38897025082508  2.11953025022502 -0.98419941264126
 6  21.16058698949895  2.01855479177918  1.41884724812481
 1 -4.06186767126713  3.44926044744474  1.67028161506151
 1 -10.07967836053605  3.94563539853985 -0.82446783828383
 1 -10.30984427382738 -2.48774811561156 -1.17885453765377
 1 -2.56374283118312 -1.04866318021802  1.82427311851185
 1 -2.39842344754475  1.73014659725973  1.20895154555456
 1 -1.83766822432243  1.32442289518952  3.54798851235124
 1 -3.38053311331133  2.26220027752775  3.41414357975798
 1 -3.74995843854385  0.70119480348035  3.84138655145515
 1 -2.03535602050205 -1.66191615201520 -0.34913882308231
 1 -1.92084375687569  0.16323357375738 -0.58251829142914
 1 -0.27020053745374  0.43043765766577  0.80503090219022
 1  0.05918811681168 -1.18017253245325  1.34389834503450
 1 -5.90587936333633  6.75930457455746  0.53807951715171
 1 -5.62626961636164  6.04903826692669  2.41614791189119
 1 -4.55571952795280  5.64235540194019  1.02156533213321
 1 -9.59555160766077  5.83093924202420 -0.34940516871687
 1 -9.20692190809081  7.98097883678368  0.72825244704470
 1 -7.95308477427743  7.64466086558656  1.91275966146615
 1 -12.21365547064707  3.00588091409141 -2.35275828052805
 1 -13.41335100430043  1.93458734993499 -1.55706689818982
 1 -12.35225695679568  3.00664931963196 -0.50906215021502
 1 -12.65998077647765 -1.46929637473747 -1.01473642854285
 1 -13.38123684258426 -0.34974171097110 -1.70609613711371
 1 -13.10872722532253 -1.89394408060806 -3.47745763026303
 1 -12.16131969616962 -0.28045258285829 -3.81238473417342
 1 -11.34226050535054 -1.74752962006201 -3.15222384238424
 1 -8.79800940394039 -4.95398614151415 -2.03505676977698
 1 -7.76968633343334 -5.60065006920692 -0.54802441544154
 1 -9.39991987688769 -5.04471949324932 -0.41888371097110
 1 -3.30734143004300 -3.21114436513651 -0.00357562906291
 1 -1.65909407590759 -4.50087652735274  3.67460037533753
 1 -2.78121773037304 -5.70133175077508  3.55863870277028
 1 -1.39378749024902 -6.11745101830183  2.65954990789079
 1  2.49199850395040 -1.69242107800780 -1.42941690669067
 1  2.77732521012101  0.15089936953695 -2.19347249944994
 1  4.31931283688369 -0.85246746194619  0.29251246724673
 1  4.09889885338534  1.32605131553155 -2.74960333003300
 1  5.61453686538654  2.10369062796280 -2.05929239743974
 1  5.83564087168717  0.69090019751975 -2.94652338333833
 1  6.66697876077608  1.61485548554856 -0.20073743094309
 1  6.34614873427343  0.01123308590859  0.63722343904390
 1  7.21966935163516 -1.18932816801680 -1.25745706930693
 1  7.83474591049105  0.31817502560256 -1.87589051265126
 1  9.21104315591559  0.88616650165016 -0.00487285508551
 1  8.61081957065707 -0.75163066926693  0.81952981668167
 1  10.40939849124912 -0.10456791909191 -1.74497938743874
 1  9.19308429392939 -2.16669464596460 -2.04011993679368
 1  11.28532108780878 -2.43000978487849 -1.94472871677168
 1  9.92713559955996 -2.79243118511851 -0.38633807350735
 1  11.45471315221522  0.62189441964196  0.02401388888889
 1  11.57220027342734 -0.88806476777678  0.83993461506151
 1  12.80936425532553 -1.62042020322032 -0.99157682528253
 1  13.00071382388239  0.03456414741474 -1.52704606590659
 1  14.10644208090809  1.05417797379738  0.38623596659666
 1  13.85357811091109 -0.56717632233223  1.16763327982798
 1  15.27002029052905  0.39427891289129 -1.43729808780878
 1  16.06882432533253 -2.24513480558056 -0.10033148704871
 1  15.11611466216622 -2.09473184878488 -1.68781619671967
 1  16.75516514591459 -1.55836136103610 -1.53519498899890
 1  16.15239043974397  1.40774860856086  0.89673621792179
 1  16.71427587478748 -0.40429960506051  1.36157891909191
 1  18.05139607830783 -0.45769231663166 -0.51089442984298
 1  17.81577864236424  0.99818713761376 -1.16849042484248
 1  18.59045983858386  2.26742089978998  1.06093409870987
 1  18.73414057435744  0.53216739773977  1.76207620792079
 1  20.80965587828783  0.35738188638864  0.05006207020702
 1  20.07473157975797  3.02858642054205 -0.64783837723772
 1  21.44425867796780  2.16375302810281 -1.29778114141414
 1  19.55986989138914  1.89632144294429 -1.88607557655766
 1  21.13311928712871  1.84420252935294  2.55993561076108
 1  22.29014072037204  1.86278750845085  1.27980294659466
 1  20.75275500540054  2.97161724502450  1.22269270977098

