%nproc=4
%Mem=2GB
# td=(NStates=1) CAM-B3LYP/6-31G(d,p) 

TD

0 1
12 -7.18897947094709  0.61171992009201  0.02882056945695
 6 -4.92826744474447 -1.97100827922792  0.50754728742874
 6 -4.79267919681968  2.83727217451745  1.08855522042204
 6 -9.36304103960396  3.08642413791379 -0.39734259395940
 6 -9.63428374207421 -1.71511702270227 -0.81676810591059
 7 -5.12744616921692  0.44368418651865  0.81620203850385
 6 -4.37584729082908 -0.67697751975198  0.80595861906191
 6 -2.94251325672567 -0.34206363206321  1.21469182338234
 6 -2.95979941834183  1.16962963126313  1.68853958465847
 6 -4.38383537843784  1.50598134693469  1.12573960386039
 6 -2.92872795489549  1.31277356545655  3.27816922582258
 6 -1.82144560556056 -0.55850111151115  0.20740469876988
 6 -0.38297572017202 -0.35314966216622  0.60786491579158
 6  0.50461159835984 -0.75800931383138 -0.45749112961296
 8  0.26867810791079 -1.06331173877388 -1.63151948364836
 8  1.87170898139814 -0.64411180758076 -0.01712850175017
 7 -7.12260270817082  2.65594118391839  0.33464215971597
 6 -6.03999327832783  3.36992796859686  0.74570810441044
 6 -6.34215146824682  4.75346963636364  0.69934062126213
 6 -7.65119782678268  4.81933256475648  0.35249364066407
 6 -8.14002827442744  3.50359955525553  0.10485303160316
 6 -5.52392034873487  5.89847231313131  1.23547830833083
 6 -8.53222101970197  6.00349138283828  0.16064304970497
 6 -8.40024391569157  7.26941305990599  0.80098634843484
 7 -9.10599287188719  0.69953281438144 -0.64060809450945
 6 -9.83630989068907  1.84427438053805 -0.76771309540954
 6 -11.20797989458946  1.41304964406441 -1.14382610211021
 6 -11.37719012291229  0.16841220532053 -1.32091080508051
 6 -9.99082476317632 -0.37882985728573 -0.93589860596060
 6 -12.29449827352735  2.37113768476848 -1.47854462926293
 6 -12.45279982628263 -0.70362777287729 -1.79517032553255
 6 -12.35477296569657 -1.11271368256826 -3.27214233283328
 7 -7.27591706000600 -1.30440005360536 -0.08085276227623
 6 -8.31956219601960 -2.20081525362536 -0.45111006620662
 6 -7.88544469006901 -3.58238650615061 -0.47244452175218
 6 -6.53176706080608 -3.51439577657766 -0.02915464736474
 6 -6.29466206260626 -2.19255753705371  0.16419922412241
 6 -8.70692816021602 -4.79844268666867 -0.78469694809481
 6 -5.33348781908191 -4.38439232273227  0.16315918851885
 8 -5.22187102500250 -5.57941242464246 -0.08501147044704
 6 -4.18703228262826 -3.34737052685268  0.42524238953895
 6 -3.59049968086809 -3.73692891419142  1.83488386128613
 8 -3.83145474607461 -3.23770050625063  2.93148582968297
 8 -2.68679987368737 -4.76428115051505  1.69038761966197
 6 -2.17095768366837 -5.24514874397440  2.89825476097610
 6  2.85197770947095 -0.86269406400640 -0.99304050445045
 6  4.13506559555956 -0.57541571787179 -0.42349249824983
 6  5.09794327872787  0.23668993439344 -0.97367714041404
 6  5.13500192319232  0.85073772307231 -2.36168033333333
 6  6.41299563236324  0.45727757795780 -0.13759024422442
 6  7.68677621552155 -0.13807415431543 -0.96550350085008
 6  9.00567243984398 -0.07464259465947 -0.13317513031303
 6  10.26589721422142 -0.53842091379138 -0.96313728422842
 6  10.06437313751375 -1.99902083818382 -1.23831729672967
 6  11.41084396129613 -0.19298307910791 -0.04138326972697
 6  12.78218312601260 -0.42022607370737 -0.69308933183318
 6  13.98682815121512 -0.05969717251725  0.27349441694169
 6  15.37938406330633 -0.13644737383738 -0.43584182398240
 6  15.80087175607561 -1.56831446524652 -0.85211482918292
 6  16.43560766666667  0.54758911891189  0.33455796299630
 6  17.91089567896790  0.49089048744874 -0.21781759635964
 6  18.81642201170117  1.34893311031103  0.72271270427043
 6  20.23798246744675  1.42404273777378  0.29367413061306
 6  20.36249760356036  1.97308560576058 -1.24751574427443
 6  21.18657958875888  2.14721765806581  1.15720108350835
 1 -4.10899238373837  3.60135565696570  1.48995358225823
 1 -9.87383777647765  4.06838767376738 -0.61467685918592
 1 -10.18565185458546 -2.59717905870587 -1.25582223442344
 1 -2.32889934683468 -0.98157647154715  2.12874356555656
 1 -2.26269987518752  1.85648923152315  1.11907255765576
 1 -1.96018047554755  1.18053850675067  3.66836054955496
 1 -3.16188124812481  2.32334639213921  3.56264843024302
 1 -3.57473091579158  0.30962564656466  3.62234464726473
 1 -2.03688617351735 -1.72980294069407 -0.13427733693369
 1 -2.26038771127113  0.00348759915992 -0.72337237683768
 1 -0.12956647404741  0.64895950985099  0.69464986408641
 1 -0.11258906090609 -0.97473198839884  1.52021597679768
 1 -5.82311108650865  6.80522916701670  0.90006571577158
 1 -5.74830181958196  5.84613797689769  2.26972326942694
 1 -4.51403535953595  5.68109927632763  0.94924810041004
 1 -9.28886093859386  5.87237338543854 -0.60003023122312
 1 -9.00190140604060  8.10239097799780  0.63712333413341
 1 -7.64703416921692  7.52468886838684  1.47527591309131
 1 -12.05597970307031  3.14090441644164 -2.26104910961096
 1 -13.46453612281228  2.03210710191019 -1.83103429492949
 1 -12.47678941004101  3.13366202090209 -0.80397164116412
 1 -12.34508928732873 -1.56168561366137 -1.14935989088909
 1 -13.39660837973797 -0.09444618141814 -1.55476100360036
 1 -13.17226357895790 -1.78517320352035 -3.54731461596160
 1 -12.50064362856286 -0.24645918351835 -3.88398189388939
 1 -11.55288156745675 -1.60449531663166 -3.60024864486449
 1 -9.05679528252825 -4.84660540344034 -1.78728199229923
 1 -8.05525489028903 -5.75893589778978 -0.48407802080208
 1 -9.48770865576558 -4.84283930523052 -0.02636445904590
 1 -3.58495919181918 -3.30134338503850 -0.39246451795179
 1 -1.57644581108111 -4.59547598729873  3.33730664596460
 1 -3.02727233583358 -5.56621823942394  3.69240207910791
 1 -1.62262037353735 -6.14559383258326  2.69589354225423
 1  2.73127243134313 -1.97954979087909 -1.31669563456346
 1  2.66785426302630 -0.09968568896890 -1.82560571277128
 1  4.36422732833283 -0.98221043624362  0.66052926892689
 1  4.16421538503850  0.86583529392939 -2.65196356605661
 1  5.59284469616962  1.94462472137214 -2.35951241944195
 1  5.69895720332033  0.49412051955196 -3.19896862786279
 1  6.59663172607261  1.43469746974697  0.06867951075108
 1  6.47833195259526  0.05102706530653  0.86608632533253
 1  7.52448983368337 -1.29936917211721 -1.34586591019102
 1  7.89259169506951  0.48678188628863 -1.74697762136214
 1  9.36602865446545  0.97994587958796  0.19886751895190
 1  8.66561505020502 -0.65097060326033  0.92796065976598
 1  10.13514106550655 -0.03248071037104 -2.09747463696370
 1  9.17326231173117 -2.09131710821082 -2.05455137993799
 1  10.98238079377938 -2.40823760766077 -1.68619286318632
 1  9.97305019101910 -2.48317025902590 -0.10286972667267
 1  11.20206788768877  0.82608483868387  0.40223171067107
 1  11.37044009740974 -1.10512647394739  0.86295691729173
 1  12.87002032093209 -1.46041420262026 -1.06124379197920
 1  12.83369712221222  0.40991168216822 -1.57214057535754
 1  13.86525796249625  0.99668222422242  0.52682002500250
 1  13.78339109220922 -0.66164576927693  1.23599011551155
 1  15.17563085158516  0.29211869686969 -1.54472883088309
 1  16.03746118901890 -2.16887717981798 -0.14188564246425
 1  15.00881393209321 -1.91465384098410 -1.49446686178618
 1  16.73655328472847 -1.79873539843984 -1.41546301580158
 1  16.18559376007601  1.79562739643964  0.55293183748375
 1  16.49040348754875  0.04105493039304  1.31183394459446
 1  18.05357629632963 -0.66057260466047 -0.10177351775178
 1  17.91857892239224  1.04403172207221 -1.30190376617662
 1  18.49285007760776  2.23239739743974  0.72077008230823
 1  18.68147530783078  0.76913109410941  1.65733573387339
 1  20.58394330703070  0.45560170837084  0.34115117911791
 1  19.79928403500350  3.08338190009001 -1.14051764516452
 1  21.38904315641564  2.00463711651165 -1.34676603990399
 1  19.90684458885889  1.32321413221322 -1.88507547654765
 1  20.92315829102910  1.74896300540054  2.25398501570157
 1  22.22589429572957  2.05918714841484  0.84794976127613
 1  20.85158488838884  3.12634271757176  1.33177361786179

