%nproc=4
%Mem=2GB
# td=(NStates=1) CAM-B3LYP/6-31G(d,p) 

TD

0 1
12 -7.14670524352435  0.60760950905091  0.04322200960096
 6 -4.88698331633163 -1.95029620802080  0.46649318201820
 6 -4.80078000690069  2.83940238753875  1.19910627552755
 6 -9.35599033453345  3.03287878337834 -0.43619647934793
 6 -9.55259557325733 -1.80982649364936 -0.90000642974297
 7 -5.19276270087009  0.42824264236424  0.74110452875288
 6 -4.37665737183718 -0.68009783178318  0.72096011921192
 6 -2.95995500090009 -0.42694211991199  1.14915526972697
 6 -3.03220665906591  1.02996566486649  1.61637236793679
 6 -4.43293028792879  1.50113086188619  1.17617464736474
 6 -2.89315439753975  1.27473976207621  3.11528293719372
 6 -1.91864532553255 -0.67104236563656  0.00483444174417
 6 -0.51339876247625 -0.41691603880388  0.55945007430743
 6  0.51872300950095 -0.69075258815882 -0.51710709120912
 8  0.27317855795580 -1.15785119271927 -1.65266159785979
 8  1.74914672517252 -0.42934033043304 -0.11505829472947
 7 -7.07362781068107  2.65262085188519  0.17300599609961
 6 -6.02533181218122  3.41122209800980  0.63118665226523
 6 -6.38317557065707  4.85189947934794  0.79864055125513
 6 -7.66667937493749  4.86816744824482  0.20007839913991
 6 -8.13260753235324  3.51588078337834  0.01899444574457
 6 -5.55605356205621  5.92098456435644  1.27967272777278
 6 -8.55168296589659  6.02284331803180  0.19708669406941
 6 -8.44435832713271  7.15694181278128  1.00958720852085
 7 -9.10032230483048  0.65845870697070 -0.62637667136714
 6 -9.78140440014001  1.76339629272927 -0.71026735083508
 6 -11.22925202180218  1.48774711381138 -1.12892461196120
 6 -11.27266967086709  0.13158852295230 -1.29011772577258
 6 -9.90113579427943 -0.43291526582658 -0.98676369246925
 6 -12.16616544024402  2.44862543354335 -1.30310708550855
 6 -12.37293183948395 -0.81841925202520 -1.79696050455046
 6 -12.27505499389939 -1.05636804800480 -3.27142226082608
 7 -7.24438390669067 -1.32782239583958 -0.20717539453945
 6 -8.30280051985198 -2.16739191129113 -0.55171012621262
 6 -7.76981312691269 -3.55511377887789 -0.54423170047005
 6 -6.50653453755376 -3.53480781778178 -0.18894062596260
 6 -6.21154375077508 -2.08907718901890 -0.02056925272527
 6 -8.49299676707671 -4.75989883228323 -0.98296677507751
 6 -5.33347781808181 -4.38959284278428  0.18812168476848
 8 -5.24166300420042 -5.57178166156616  0.22639967066707
 6 -4.22115569496950 -3.29317510731073  0.58819868516852
 6 -3.53387401830183 -3.67901312261226  1.82361273417342
 8 -3.83982558315832 -3.11435817201720  2.90371305240524
 8 -2.76106730043004 -4.68544326672667  1.73637221812181
 6 -2.30341092899290 -5.13959818891889  3.06059099459946
 6  2.80773328502850 -0.73756155075508 -1.15003620402040
 6  4.11162325132513 -0.62393056935694 -0.45224537353735
 6  5.10686417081708  0.27719398479848 -0.83480325302530
 6  5.06549497249725  1.14989763906391 -2.14977914321432
 6  6.41900623342334  0.33416526672667 -0.08539502470247
 6  7.62482001990199 -0.34282462936294 -0.72521947244725
 6  8.92497437003700 -0.24165929632963  0.05632381958196
 6  10.24066469096910 -0.66296336803680 -0.59035000550055
 6  10.11852855305530 -2.12502343844384 -0.96034949994999
 6  11.47447032393239 -0.31728550935094  0.24954582318232
 6  12.70969587728773 -0.57888193929393 -0.60250027292729
 6  13.98970843924392 -0.17876907970797  0.33822088958896
 6  15.34723084798480 -0.03648737783778 -0.51038927872787
 6  15.71220288918892 -1.35601323512351 -1.16696631433143
 6  16.39324343024303  0.53812817281728  0.44677918511851
 6  17.77266185558556  0.65608700710071 -0.33413922852285
 6  18.85763613311331  1.38579679667967  0.50730116311631
 6  20.19549821902190  1.35018535203520  0.07122188538854
 6  20.33277463126313  2.14842313951395 -1.26462745544554
 6  21.23184411521152  2.05391832813281  0.99943530693069
 1 -4.03463494799480  3.53399892129213  1.52111669856986
 1 -10.14959535223522  3.87937877287729 -0.53537892939294
 1 -10.49430271967197 -2.34403374417442 -1.29514616681668
 1 -2.70910736763676 -1.18197651155115  2.06951764296430
 1 -2.33941754695470  1.58226180878088  1.05652630303030
 1 -1.82518697619762  1.03248370127013  3.46656036953695
 1 -3.15411047104710  2.28629268676868  3.39305147054705
 1 -3.47096053875388  0.64597928192819  3.66585899869987
 1 -2.16106859175918 -1.58465842624262 -0.24575848504851
 1 -2.10716238873887 -0.04021677127713 -0.93413345294529
 1 -0.30701421882188  0.51811642554255  1.00160055915592
 1 -0.36556435843584 -1.03114762996300  1.33664761996200
 1 -5.68981775717572  6.82537118121812  0.68676438563856
 1 -5.53987097649765  6.10604396749675  2.38224452155216
 1 -4.48495245124512  5.77560872727273  1.10995417101710
 1 -9.35782783528353  5.96028217631763 -0.46642687088709
 1 -9.08410962686269  7.94096483538354  0.87576719851985
 1 -7.67210667646765  7.37370376987699  1.70739912541254
 1 -11.78516262136214  3.20947127312731 -1.95696870157016
 1 -13.08026769596960  1.93020691189119 -1.51236242774277
 1 -12.33371510261026  3.05068372307231 -0.41470271427143
 1 -12.42592737113711 -1.92887233233323 -1.41672662756276
 1 -13.37064578347835 -0.38439517631763 -1.42273780128013
 1 -13.24414076667667 -1.66556124232423 -3.53955383988399
 1 -12.18665222942294 -0.12903744134413 -3.81769526522652
 1 -11.20424670397040 -1.33594846194619 -3.46249486948695
 1 -8.72012161516152 -4.85741648454846 -1.94885814991499
 1 -8.08123748854885 -5.86317632183218 -0.58365797879788
 1 -9.45176506140614 -4.60454547584759 -0.37521934453445
 1 -3.37974867076708 -3.38343159385939 -0.31220649214921
 1 -1.62200036653665 -4.48442488218822  3.61653456875688
 1 -2.97979758835884 -5.51957357495750  3.82399523842384
 1 -1.69709782128213 -5.98343761696170  2.97677163006301
 1  2.45936524062406 -1.73785562146215 -1.47661162616262
 1  2.67033451105110 -0.01660738113811 -1.94300745294529
 1  4.50680158575858 -1.37172938813881  0.37268048404841
 1  3.86780574407441  1.34275298569857 -2.15211358105811
 1  5.68064347604760  2.02997325622562 -2.11023749194920
 1  5.52802010961096  0.62899400690069 -3.05241397239724
 1  6.49963202610261  1.42381638163816 -0.12339969716972
 1  6.30673479287929  0.00565252785278  0.86042575927593
 1  7.51099848454845 -1.34855409060906 -0.77901922552255
 1  7.95153758965897 -0.02396918881888 -1.84753767736774
 1  8.86899895149515  0.86863474847485  0.37799543174317
 1  8.87403589228923 -0.71840734693469  0.98554641834183
 1  10.35552310371037 -0.07520498279828 -1.46259114861486
 1  9.27231221672167 -2.46637461396140 -1.57180310511051
 1  11.18801135683568 -2.45171195509551 -1.44695893979398
 1  9.74589747574758 -2.66643858585859  0.21948250855085
 1  11.48439612051205  0.85579780998100  0.63206469396940
 1  11.65077813121312 -0.86506246754675  1.30982160376038
 1  12.81584490339034 -1.54603276447645 -0.47473514111411
 1  12.62095584808481 -0.17990729972997 -1.56139950125012
 1  13.72297373407341  0.78905146114611  0.69832717571757
 1  14.26472922602260 -0.86798640334033  1.16709322582258
 1  15.23703699219922  0.77756724172417 -1.22504686268627
 1  15.60030747364737 -2.31889218131813 -0.44753620752075
 1  14.85428847954796 -1.65118749434944 -1.91239865496550
 1  16.67121675107511 -1.24158968386839 -1.70764223372337
 1  16.13535873657366  1.46624445814581  0.83244978927893
 1  16.41858630583058 -0.24486366146615  1.32548530973097
 1  18.00446138483849 -0.43097964536454 -0.80261360176018
 1  17.58020508500850  1.12326964586459 -1.34691826762676
 1  18.35622641524153  2.29350350805080  0.66245425072507
 1  18.98817597789779  0.79603378437844  1.36622662296230
 1  20.52475738843884  0.29666581478148 -0.10297323332333
 1  19.95891999859986  3.10274383628363 -0.98713230663066
 1  21.30884513661366  2.25266191899190 -1.62929429272927
 1  19.68616252065207  1.63140495129513 -2.14561153015302
 1  21.44029000420042  1.63172128122812  1.96970658785879
 1  22.28351005730573  1.75271650135013  0.47554252055206
 1  21.03006273617362  3.05309539283928  1.00509094959496

