%nproc=4
%Mem=3GB
# td=(NStates=1) iop(3/107=0140000000,3/108=0140000000) CAM-B3LYP/6-31G(d,p) 

TD

0 1
12 -7.14689938163816  0.62660104360436 -0.10984461446145
 6 -4.87267608410841 -1.99944717531753  0.46232163456346
 6 -4.84216024662466  2.88602732063206  1.30475058025803
 6 -9.35468223272327  3.12653020602060 -0.50357283258326
 6 -9.57647374537454 -1.78469023472347 -0.86408321322132
 7 -5.09327635883588  0.46792288288829  0.72661048504850
 6 -4.37181942924293 -0.74574571777178  0.85898379307931
 6 -2.97205342594259 -0.40709910791079  1.35157082618262
 6 -3.05870909780978  1.04355305690569  1.79650592989299
 6 -4.47433766846685  1.54185883698370  1.27139153305331
 6 -2.92920910171017  1.14760758005801  3.37528284288429
 6 -1.93479920962096 -0.64065005420542  0.23316712701270
 6 -0.43220893009301 -0.42000524852485  0.63977736003600
 6  0.59850177337734 -0.69130575247525 -0.41970176027603
 8  0.20547076387639 -1.07274105180518 -1.52669006210621
 8  1.76372497089709 -0.54869480788079 -0.02636802440244
 7 -7.17143478687869  2.67247045694569  0.37803872797280
 6 -6.10202034583458  3.43320708810881  0.86547242334233
 6 -6.48255316371637  4.86783364696470  0.91844010271027
 6 -7.68972375767577  4.98297010221022  0.41747787418742
 6 -8.11445097259726  3.57936487528753  0.04162216081608
 6 -5.47743977787779  5.84305377907791  1.23023317851785
 6 -8.53698370637064  6.09322959255926  0.07417803030303
 6 -8.39353776377638  7.29896904660466  0.70381444074407
 7 -9.15053409450945  0.72971996639664 -0.59469604350435
 6 -9.93708119441944  1.89516284058406 -0.73369618311831
 6 -11.15050900360036  1.54014345884588 -1.25837069676968
 6 -11.25260474767477  0.17874542034203 -1.35316534483448
 6 -9.97569517311731 -0.40205039843984 -0.84163636493649
 6 -12.23130406810681  2.51763700510051 -1.58915836853685
 6 -12.35012880578058 -0.72101822562256 -1.78052738333833
 6 -12.08043995289529 -1.30796098839884 -3.20065071627163
 7 -7.25813877627763 -1.35246008170817 -0.20332300740074
 6 -8.27678200450045 -2.16799534503450 -0.55021660156016
 6 -7.85404744454446 -3.60008055945595 -0.52447274707471
 6 -6.55618340884088 -3.50287326942694 -0.09115119681968
 6 -6.19472320402040 -2.19494745054505  0.09176101150115
 6 -8.74791713121312 -4.81446754515452 -0.89053243634363
 6 -5.45275073797380 -4.32930649404940  0.19451442554255
 8 -5.24223521582158 -5.58418527552755  0.17335328392839
 6 -4.15738024062406 -3.35267271467147  0.52263058465847
 6 -3.57821199799980 -3.67025496819682  1.87349331783178
 8 -3.70080286368637 -3.10789814771477  2.89764312251225
 8 -2.79849520232023 -4.76639525802580  1.69927896539654
 6 -2.07553651065107 -5.27550275617562  2.82533993439344
 6  2.78560488088809 -0.85103339223922 -1.08876239343934
 6  4.13829471467147 -0.53724899279928 -0.62318488128813
 6  5.11129662096210  0.30621714971497 -0.99090196719672
 6  4.94571829742974  1.18385606090609 -2.15190932593259
 6  6.39547582628263  0.35695631163116 -0.20938146254625
 6  7.59730118271827 -0.21129967796780 -0.94856518521852
 6  8.96970468206821 -0.22262407850785 -0.22827893029303
 6  10.18390385098510 -0.58886054925493 -0.96048176817682
 6  10.21656493309331 -1.99617749764976 -1.44047101310131
 6  11.40222488628863 -0.26017090819082 -0.01970993349335
 6  12.77105484098410 -0.47797783128313 -0.71214871997200
 6  14.02310358215821 -0.14137985228523  0.24838124972497
 6  15.30458644964496 -0.21737082068207 -0.54388004050405
 6  15.75070134113411 -1.55560394869487 -0.91077290359036
 6  16.51571856455645  0.40877739503950  0.38113284798480
 6  17.92979056675668  0.48677240684068 -0.24894142114211
 6  18.83773419201920  1.21634971347135  0.69164242094209
 6  20.28299110351035  1.39390882338234  0.23845055105511
 6  20.27286013181318  2.16447375247525 -1.08835353125313
 6  21.14020908790879  2.07249894979498  1.24334827482748
 1 -4.01059142264226  3.53253650505050  1.64361045684568
 1 -10.09296141944195  3.89930220472047 -0.80148467466747
 1 -10.35415984008401 -2.41364689978998 -0.78476629602960
 1 -2.54129141634163 -1.03441364406441  2.16772326302630
 1 -2.23770723702370  1.67573963506351  1.36828047704770
 1 -1.89628271467147  0.56664577097710  3.65663600100010
 1 -2.80512762186219  2.23424264706471  3.67243526572657
 1 -3.91071387188719  0.64262941724172  3.81858354355436
 1 -2.11860697969797 -1.56467713851385 -0.26424443154315
 1 -2.21478784778478  0.09154677447745 -0.59886662126213
 1 -0.35244067276728  0.67198678597860  1.00468433143314
 1 -0.13561198149815 -0.84193496009601  1.53603706200620
 1 -5.56674085178518  6.71941945394539  0.90517034833483
 1 -5.59521099239924  6.01359424082408  2.28820083258326
 1 -4.39033387798780  5.50601486948695  0.97480821342134
 1 -9.19092935273527  5.99089247124712 -0.91656300900090
 1 -8.84403346704670  8.22432215321532  0.21264103980398
 1 -7.67328526062606  7.45324216061606  1.68657761806181
 1 -11.93219369236924  3.27790693779378 -2.40934676617662
 1 -13.10826812451245  1.69187793019302 -1.68486421462146
 1 -12.35428646134613  3.11730906500650 -0.72063250275027
 1 -12.37926989188919 -1.76859778257826 -0.99219272017202
 1 -13.24784708380838 -0.04438714921492 -1.90310606500650
 1 -12.80342554175418 -2.08929259135914 -3.36229718781878
 1 -12.15843624932493 -0.45435390669067 -3.95292427082708
 1 -11.04396923632363 -1.76697772497250 -3.29982826102610
 1 -9.13011763036304 -4.86141264206421 -2.04563062606261
 1 -8.19852423762376 -5.80480643394339 -0.66052600770077
 1 -9.63098727772777 -4.70536898529853 -0.20654292299230
 1 -3.52998051655166 -3.44777138273827 -0.38316605470547
 1 -1.57825121272127 -4.43206541994199  3.21318303590359
 1 -2.67907434473447 -6.01083060796080  3.53469450715072
 1 -1.17677819831983 -6.07483826862686  2.66639000010001
 1  2.51106916171617 -1.79497612041204 -1.40457190589059
 1  2.55083152445245 -0.27896981218122 -1.82707376487649
 1  4.44832531923192 -0.97740615441544  0.28793019321932
 1  3.75673098459846  1.49298484118412 -2.37818830453045
 1  5.20895782798280  2.16909733363336 -1.91174861326133
 1  5.52877244574457  0.71033222412241 -2.95441169806981
 1  6.66044422832283  1.34028400900090  0.14184379827983
 1  6.19931780388039 -0.05249258595860  0.78742493799380
 1  7.36998912171217 -1.15062573557356 -1.18061281848185
 1  7.64336689518952  0.41117022002200 -1.86933775667567
 1  9.08143418771877  0.64815431293129  0.15284771287129
 1  8.79115223602360 -0.90096844954496  0.75100122352235
 1  10.44314894669467  0.05016116391639 -1.76577173517352
 1  9.45290489958996 -2.26262454595460 -2.18901728362836
 1  11.23224236483648 -2.36300970027003 -1.76568192629263
 1  9.89526172327233 -2.64130824552455 -0.54537193089309
 1  11.37866950855086  0.66865329872987  0.51523929472947
 1  11.41146874237424 -0.90385168276828  0.75765208530853
 1  12.86514446694670 -1.53080049934993 -1.13685595709571
 1  12.83260909080908  0.27964290029003 -1.43083741744174
 1  13.87131855215522  0.90754611791179  0.46430125882588
 1  14.30140845144514 -0.88540491939194  1.00887326132613
 1  15.41117151855186  0.34518791579158 -1.35212648144814
 1  15.88433223002300 -2.22954229542954 -0.01530966646665
 1  14.95573721812181 -1.94406892689269 -1.59659103260326
 1  16.76293457305730 -1.55040593759376 -1.42828934223422
 1  16.30611388488849  1.46388472217222  0.76422233853385
 1  16.69334341214121 -0.11858814361436  1.32711120582058
 1  18.35442217991799 -0.48295480948095 -0.31611180678068
 1  17.96573388298830  0.92304119821982 -1.20189593319332
 1  18.50732978987899  2.17373864186419  0.89876182298230
 1  18.87766372887289  0.64346918641864  1.70533377887789
 1  20.38366819911991  0.24738573617362  0.22807870007001
 1  19.86431324982498  3.07917869436944 -0.99581176587659
 1  21.26266006680668  2.36286742884288 -1.77217519871987
 1  19.63175157275727  1.58240853105311 -1.76137452185218
 1  21.13416727022702  1.66698233913391  2.32332600140014
 1  22.27387528032803  1.96162663336334  0.78481513511351
 1  20.76320639913991  3.08132424962496  1.29630676737674

