%nproc=4
%Mem=2GB
# td=(NStates=1) CAM-B3LYP/6-31G(d,p) 

TD

0 1
12 -7.12101267426743  0.63375212331233  0.06962464986499
 6 -4.82363698169817 -1.94991617001700  0.55358189088909
 6 -4.84237416631663  2.83020146744674  1.26681304620462
 6 -9.32649738523852  3.09575507100710 -0.58119097879788
 6 -9.54826514021402 -1.78190370137014 -0.89365579467947
 7 -5.09264268886889  0.39969978807881  0.75724614291429
 6 -4.31237094319432 -0.83861368336834  0.95994401760176
 6 -2.88919792519252 -0.37487691339134  1.26419677387739
 6 -3.12862630103010  1.12289495779578  1.80420115081508
 6 -4.40844783968397  1.38604935373537  1.26422345224522
 6 -2.99004408650865  1.12845513361336  3.35376678557856
 6 -1.94887834883488 -0.52897815921592  0.09858381668167
 6 -0.46907433003300 -0.38589293649365  0.46838096739674
 6  0.63446458365837 -0.53339685258526 -0.63380876137614
 8  0.32035327542754 -1.05961136873687 -1.75599193089309
 8  1.93145495599560 -0.33843123952395 -0.21608839773977
 7 -7.05109555745575  2.61263685348535  0.21372006750675
 6 -6.08316759575958  3.33795477127713  0.88297183078308
 6 -6.43659091219122  4.71654594399440  0.85497618481848
 6 -7.64196690369037  4.74399503100310  0.20376876817682
 6 -8.08917318891889  3.46828602390239 -0.02954040774077
 6 -5.49109706640664  5.71194366026603  1.26954171467147
 6 -8.46534433203320  5.92654368806881 -0.02003501810181
 6 -8.52052594389439  6.98107422602260  0.64981123092309
 7 -9.10946321892189  0.74981784288429 -0.45870990469047
 6 -9.87603386308631  1.84165411851185 -0.69908623272327
 6 -11.22593168976898  1.48436677577758 -1.11541326082608
 6 -11.23122552645265  0.15357072117212 -1.39781849584959
 6 -9.96922260296030 -0.35512748704870 -0.89602461856186
 6 -12.29619844354435  2.47494806580658 -1.33479025382538
 6 -12.40219476577658 -0.72370978107811 -1.67700850935094
 6 -12.39034652305231 -1.09679209040904 -3.18970408900890
 7 -7.25412488078808 -1.44739435303530 -0.32023670067007
 6 -8.24070431023102 -2.30301547364736 -0.57297225242524
 6 -7.88140428602860 -3.66221448894889 -0.39221649894990
 6 -6.53606749084909 -3.58738307530753 -0.06544827672767
 6 -6.18587118351835 -2.25947422872287 -0.03227042284228
 6 -8.68016548394839 -4.75666850925093 -0.66083456185619
 6 -5.30957542784278 -4.31667555105511  0.24446731933193
 8 -5.24491332923292 -5.52782726612661  0.30876790749075
 6 -4.20245382478248 -3.25853164296430  0.57824769006901
 6 -3.47637826872687 -3.67902312361236  1.88065843874387
 8 -3.60756235683568 -3.11310804700470  2.97805048614861
 8 -2.55669686338634 -4.61738646104610  1.56578515941594
 6 -2.02274286218622 -5.16152038113811  2.84174911041104
 6  2.84829734143414 -0.62301009560956 -1.28192939333933
 6  4.14503659265927 -0.30666884318432 -0.57562771177118
 6  5.12873635803580  0.44597086248625 -1.04782455515552
 6  5.01682010501050  1.28320096939694 -2.34024819011901
 6  6.40166449924993  0.61490334053405 -0.26222270747075
 6  7.57164470237024 -0.09715006190619 -1.08642559305931
 6  8.82925479807981 -0.07386251665167 -0.19830164296430
 6  10.14381500600060 -0.52483955565557 -0.89195016551655
 6  10.13953065326533 -2.04180511661166 -1.20371383638364
 6  11.37871074797480 -0.24837861866187 -0.01855098649865
 6  12.73822873057306 -0.54825887698770 -0.63779380228023
 6  13.89192866126613 -0.23113431623162  0.23703077057706
 6  15.32622874777478 -0.32836656575658 -0.31082932273227
 6  15.80234190309031 -1.79661729552955 -0.69466908460846
 6  16.40811491739174  0.29726408640864  0.54787929512951
 6  17.81473606300630  0.48669006740674 -0.17577339193919
 6  18.72123249274928  1.21701991899190  0.75213564656466
 6  20.09170783998400  1.37401773527353  0.11747651085109
 6  20.15638699249925  2.23944224142414 -1.05512650535054
 6  21.16042697349735  1.89551248754875  1.16300166356636
 1 -4.06577806230623  3.54404992639264  1.73703829072907
 1 -10.05684607730773  3.87393822882288 -0.75843123462346
 1 -10.27557084648465 -2.33103244404440 -1.21557821002100
 1 -2.57405386228623 -1.05814412831283  2.15589628082808
 1 -2.23952755795580  1.67638122072207  1.44052470287029
 1 -1.87667212471247  0.82776322922292  3.38752246574658
 1 -2.97241230123012  2.44599865736574  3.65859802520252
 1 -3.64104754745475  0.61733641764176  3.90461287408741
 1 -2.25367785268527 -1.37806776717672 -0.39295320452045
 1 -1.91813348584858  0.26029327972797 -0.50729076867687
 1 -0.18747226462646  0.66412102600260  0.82684308340834
 1 -0.10856865886589 -0.96333084828483  1.21724567976798
 1 -5.84210298569857  6.72445108920892  0.98440414961496
 1 -5.63797078647865  5.64716807990799  2.56105240234023
 1 -4.47831178717872  5.63714488088809  1.13914709030903
 1 -9.11059311181118  5.78303445154515 -0.83854408260826
 1 -9.08129934583458  7.71283202210221  0.20044966676668
 1 -7.93447291309131  7.50528692819282  1.61528991449145
 1 -12.16908101320132  2.98052837883788 -2.38639164386439
 1 -13.36814648384838  2.00566445764576 -1.22883407490749
 1 -12.37279901100110  3.30896955165516 -0.47176842084208
 1 -12.52088686708671 -1.53380282538254 -0.99190414531453
 1 -13.24245296419642 -0.08539527632763 -1.45744127162716
 1 -13.38003435603560 -1.44775946214621 -3.46101598609861
 1 -12.12114567876788 -0.38971350895090 -3.74934843054305
 1 -11.71802808210821 -1.92531739883988 -3.72719133913391
 1 -8.91999160216022 -4.81199194209421 -1.73654691879188
 1 -8.10652001680168 -5.86473647784778 -0.48225783878388
 1 -9.68861874677468 -4.64128915021502 -0.33290511311131
 1 -3.50300099599960 -3.54729798049805 -0.07067233873387
 1 -1.45353351985198 -4.48758519821982  3.43837675297530
 1 -2.78635824442444 -5.49800141774177  3.51329416831683
 1 -1.47519563106311 -6.09239851305131  2.59094304720472
 1  2.65556486058606 -1.60105194109411 -1.60618458345835
 1  2.39894737233723  0.03163744334433 -2.02160531273127
 1  4.21097200280028 -0.74433664886489  0.35635885188519
 1  4.05510447394740  1.53152186258626 -2.49452782248225
 1  5.55735114681468  2.23542380128013 -2.17621408960896
 1  5.62322963056306  0.52748385588559 -3.01650038103810
 1  6.65046710961096  1.57288128812881 -0.04961231843184
 1  6.44067818721872  0.31678364096410  0.81315103180318
 1  7.08183556825683 -1.30277951315132 -1.32292361596160
 1  7.78754119001900  0.37441064916492 -1.97501042464246
 1  8.96872892449245  1.08454633963396  0.08443607580758
 1  8.77928641734173 -0.49906541274127  0.86339420312031
 1  10.15156270767077  0.02456499419942 -1.88815370487049
 1  9.25160014551455 -2.26860483698370 -1.76332225702570
 1  11.09346190189019 -2.42973975787579 -1.59667391129113
 1  10.28383126912691 -2.51861380338034 -0.27206664636464
 1  11.53379106000600  0.71944417461746  0.34516600410041
 1  11.17547060046005 -0.80727668896890  0.81313193479348
 1  12.51612493139314 -1.52220038123812 -1.10456812441244
 1  12.90884463696370  0.19549024002400 -1.45305866716672
 1  13.72522395909591  0.69003155915592  0.92886022902290
 1  13.69343209630963 -0.84838444314431  1.18052456895690
 1  15.35220850935093  0.10152963796380 -1.31776613461346
 1  15.93566100900090 -2.44590488258826  0.12032057815782
 1  15.02197524822482 -2.22737511311131 -1.38070548564857
 1  16.71970159955996 -1.94530005490549 -1.20769223872387
 1  16.05325052575257  1.18180601430143  0.79448599289929
 1  16.59983443064306 -0.35056423152315  1.29313207440744
 1  18.23067400610061 -0.55549209660966 -0.52260560096010
 1  17.80917798229823  1.19622694159416 -1.08819239503950
 1  18.20516130873087  2.18849300700070  0.84828283358336
 1  18.93806096639664  0.71694587558756  1.80297029732973
 1  20.59275418811881  0.53545969416942 -0.45677861386139
 1  20.09944405100510  3.50919448134814 -0.87713130653065
 1  21.17945219731973  2.25565221802180 -1.72788415171517
 1  19.38931283568357  2.12138394919492 -1.93774074307431
 1  21.24190016521652  1.14756286538654  1.98911852905290
 1  22.15086679297930  2.09883111281128  0.74183915021502
 1  20.82718244814481  2.89489957325733  1.44836527702770

