%nproc=4
%Mem=3GB
# td=(NStates=1) iop(3/107=0140000000,3/108=0140000000) CAM-B3LYP/6-31G(d,p) 

TD

0 1
12 -7.10241493319332  0.61527991149115  0.15983235323532
 6 -4.85435425192519 -1.91695892649265  0.54633003540354
 6 -4.80987701830183  2.85540425832583  1.21734183938394
 6 -9.31790855535554  3.06980453345335 -0.55498797409741
 6 -9.54475057305731 -1.73076484218422 -0.82029883478348
 7 -5.13832086328633  0.40865695629563  0.80995881988199
 6 -4.27094934223422 -0.64709585278528  0.79011690639064
 6 -2.89922614321432 -0.41992039003900  1.34963063216322
 6 -3.07879110601060  1.05174387598760  1.81469774907491
 6 -4.38231846654665  1.47197184828483  1.26961135503550
 6 -2.98805498629863  1.09154197349735  3.39049436403640
 6 -1.96263199289929 -0.73173916311631  0.14837864816482
 6 -0.36749245844584 -0.44010725872587  0.63929731203120
 6  0.60867279047905 -0.63617023892389 -0.55252504260426
 8  0.21583179998000 -0.95913969166917 -1.64127152025203
 8  1.85597419581958 -0.37245718411841 -0.11731711931193
 7 -7.04600224362436  2.56619982988299  0.35513643774377
 6 -6.02375251905191  3.37295106250625  0.79896577267727
 6 -6.40446535493549  4.80360722432243  0.71407966666667
 6 -7.62783756905691  4.81585339053905  0.27845397179718
 6 -8.15029455695570  3.49607654645465  0.02765076367637
 6 -5.47272930683068  5.86485595929593  1.10043019821982
 6 -8.45494550255025  6.00930119971997  0.13730434293429
 6 -8.44443285328533  7.19050820052005  0.80533459275928
 7 -9.07132617371737  0.66103309770977 -0.58470504440444
 6 -9.80512799909991  1.77383070737074 -0.81663447694769
 6 -11.13189714241424  1.53493293779378 -1.29152401210121
 6 -11.23111259845984  0.15942348814882 -1.32077210551055
 6 -9.94315191879188 -0.34692488588859 -0.84964716601660
 6 -12.17313825152515  2.45639088048805 -1.52317176987699
 6 -12.51152494539454 -0.73155927972797 -1.76223555415542
 6 -12.45983789268927 -1.11406159845985 -3.21509216041604
 7 -7.19710267266727 -1.40436527222722 -0.17165984108411
 6 -8.22048637493749 -2.21292983848385 -0.54596617651765
 6 -7.82880492029203 -3.60174072547255 -0.48375867566757
 6 -6.54948273877388 -3.55641862396240 -0.14291637333733
 6 -6.22295602730273 -2.16666462226223  0.12104393979398
 6 -8.77292963246325 -4.69126522492249 -0.84434781788179
 6 -5.28106356925693 -4.38087165056506  0.16731170527053
 8 -5.17028802110211 -5.53389024602460  0.14172012061206
 6 -4.12729723232323 -3.28326577397740  0.54294261586159
 6 -3.51842601940194 -3.72177011971197  1.79257522602260
 8 -3.78535131853185 -3.15568292619262  2.90422378057806
 8 -2.88023337613761 -4.84806342484248  1.71950098759876
 6 -2.23934289128913 -5.33698890479048  2.92552995339534
 6  2.83575989638964 -0.47616590549055 -1.05308882608261
 6  4.16175706090609 -0.30747601550155 -0.47578014081408
 6  5.13470896219622  0.39328585658566 -0.96318919591959
 6  4.99905363096310  1.18064573987399 -2.21370550555056
 6  6.43369964866487  0.55555617161716 -0.26292681708171
 6  7.64242569516952 -0.10335888388839 -1.03822415111511
 6  8.94028173977398 -0.04133594969497 -0.13181928432843
 6  10.13868932953295 -0.58782044524452 -0.89343506350635
 6  9.98404168076808 -2.09849772967297 -1.26465343134313
 6  11.41265592939294 -0.34842973407341 -0.01585954845485
 6  12.76873460896090 -0.56312634613461 -0.66853435853585
 6  13.94307557935793 -0.14169988428843  0.13000941254125
 6  15.41815780678068 -0.23728281188119 -0.50078573107311
 6  15.72126839783978 -1.62743113141314 -0.89226105240524
 6  16.46521351405141  0.27115363266327  0.37165189988999
 6  17.79506709440944  0.55980971057106 -0.29475600260026
 6  18.77045746434643  1.31940001850185  0.66871012771277
 6  20.28731153555356  1.40254968746875  0.21729843584358
 6  20.34532737853785  2.01268857395740 -1.06006070197020
 6  21.11779684668467  2.01635333523352  1.33916785678568
 1 -4.22969333283328  3.70799405080508  1.68646474227423
 1 -10.11071319461946  3.96492876737674 -0.56444097029703
 1 -10.29981440554055 -2.40493602870287 -0.94047186658666
 1 -2.80969825702570 -1.04660486318632  2.24481097179718
 1 -2.26906037233723  1.78510057115712  1.49698334733473
 1 -1.89435252165217  0.49014812121212  3.70300063746375
 1 -3.26518362746275  2.08345756855686  3.79494751695169
 1 -3.71132393289329  0.23192834713471  3.73070475567557
 1 -1.96834195319532 -1.85689636043604 -0.07494550165017
 1 -2.00005637463746 -0.04877725792579 -0.75606234083408
 1 -0.43541897059706  0.55804539183918  0.82131599459946
 1 -0.18642706300630 -0.93544431103110  1.53556701500150
 1 -5.72822700040004  6.90850836283628  0.70728055935594
 1 -5.30022149344935  6.21040392179218  2.26198821132113
 1 -4.41743658825883  5.67410167816782  0.62829356195620
 1 -9.22311257105711  5.80335371737174 -0.66366771947195
 1 -9.01295035873587  7.95497521852185  0.55147492319232
 1 -7.66402433453345  7.16949378577858  1.45644460476048
 1 -12.06695716871687  3.19065821292129 -2.25114094559456
 1 -13.13022031973197  1.69935867826783 -2.07155288348835
 1 -12.12257329002900  3.08741607570757 -0.66703714321432
 1 -12.45907787268727 -1.61221214401440 -0.92984648554856
 1 -13.47128942804281 -0.25571828232823 -1.63392914731473
 1 -13.61363656285629 -1.58157181928193 -3.46607756585659
 1 -12.16792719841984 -0.08550702200220 -3.84982396079608
 1 -11.64133897329733 -1.77586861406141 -3.28842712091209
 1 -9.00098471707171 -4.44976147694770 -2.02279834283428
 1 -8.17864224942494 -5.66260221352135 -0.80238019311931
 1 -9.80895507450745 -4.83520196859686 -0.34502677137714
 1 -3.29938745724572 -3.35007161276128 -0.10322806090609
 1 -1.57584097169717 -4.59285149854986  3.49535125272527
 1 -3.11039747704770 -5.49537906280628  3.62595363306331
 1 -1.67569809030903 -6.16285707050705  2.60950431153115
 1  2.78900695549555 -1.50889751255126 -1.53183463216322
 1  2.91838828012801  0.16302438723872 -2.10389144664466
 1  4.19903038973897 -0.81359977377738  0.53571497169717
 1  4.05952126362636  1.27589313201320 -2.72421290699070
 1  5.48799573177318  2.15191561546155 -2.03650108850885
 1  5.66536610511051  0.78511970287029 -3.11531778867887
 1  6.66214439833983  1.65991597219722 -0.19991037713771
 1  6.67439531163116  0.04114677797780  0.79821601710171
 1  7.37856997979798 -1.19799047204721 -1.19495425262526
 1  7.71270382888289  0.27665676867687 -2.06563738663866
 1  8.99583562786279  0.81893139063906  0.13585601370137
 1  8.57242036283628 -0.62926127882788  0.67447357075708
 1  10.02813744554456 -0.05627948014801 -1.89414457245725
 1  9.11037064616462 -2.23886216971697 -2.02907128902890
 1  10.93047218781878 -2.58375177447745 -1.92745810391039
 1  9.93965616271627 -2.79361347604761 -0.55887328102810
 1  11.45041668326833  0.75046147954796  0.25111288208821
 1  11.28025562106211 -1.10894219181918  0.91758807890789
 1  12.78645659815982 -1.59320673997400 -0.96511878337834
 1  12.85980181008101 -0.11554661866187 -1.74155848954896
 1  13.62612403270327  0.90324568786879  0.29814464316432
 1  14.06654496509651 -0.57286366526653  1.12686506050605
 1  15.44080448184819  0.56675007200720 -1.22356362516252
 1  15.64972876967697 -2.34906424762476 -0.03729186468647
 1  15.13379502390239 -1.97840236023602 -1.79839121262126
 1  16.64486276587659 -1.75206610361036 -1.31140765406541
 1  16.05066834033403  1.28140647434743  0.99455537183718
 1  16.70633471127113 -0.29381566636664  1.26364485918592
 1  18.25732246994700 -0.38679519351935 -0.45711590719072
 1  17.42232954255426  1.24668356245625 -1.10735647924792
 1  18.33699275617562  2.32996426442644  0.65235718251825
 1  18.59195515801580  0.82284712421242  1.68752199769977
 1  20.56853668596860  0.27530852845285 -0.03484759255926
 1  20.06415323382338  3.13264404090409 -0.85897808250825
 1  21.20971477227723  2.03507464956496 -1.53493147434744
 1  19.59748814641464  1.55432572277228 -1.78430681508151
 1  20.90954480798080  1.25399104000400  2.22367603640364
 1  22.12520041284128  2.00604107480748  0.97532418601860
 1  20.88695877437744  3.14032014921492  1.66167330403040

