%nproc=4
%Mem=2GB
# td=(NStates=1) CAM-B3LYP/6-31G(d,p) 

TD

0 1
12 -7.15231580458046  0.60812956105611  0.02585027242724
 6 -4.81789640764076 -1.95136631503150  0.48850538323832
 6 -4.74700462936294  2.85608405570557  1.10628699359936
 6 -9.32086682218222  3.03725922142214 -0.41324418411841
 6 -9.49264957865787 -1.73500901190119 -0.79219564866487
 7 -5.06796022062206  0.48626844494449  0.68620903920392
 6 -4.29999970607061 -0.71121094309431  0.79040706390639
 6 -2.83319232463246 -0.40052947864786  1.13390374457446
 6 -2.95795923432343  1.07878054635464  1.60102083278328
 6 -4.28293528842884  1.55901665046505  1.08779580948095
 6 -2.82760784288429  1.22073436153615  3.12953436233623
 6 -1.96408986998700 -0.67772303370337 -0.07749379107911
 6 -0.50479790239024 -0.35643999119912  0.37404153345335
 6  0.48031916911691 -0.65030854375438 -0.75899127962796
 8  0.22950419051905 -1.06489189678968 -1.83705003670367
 8  1.75220703120312 -0.36468386478648 -0.30749753865387
 7 -7.08281872977298  2.56160174997500  0.18898759425943
 6 -6.08727800680068  3.35071604740474  0.80200373397340
 6 -6.52747000010001  4.77797208660866  0.88408909610961
 6 -7.78331103810381  4.75588622012201  0.38395678697870
 6 -8.04731900350035  3.45135433073307  0.02952549884989
 6 -5.61528948564856  5.85141760766077  1.25201996249625
 6 -8.67369516711671  5.89394042774277  0.27894487988799
 6 -8.44690858215822  7.16705282388239  0.91250750055006
 7 -9.09937220982098  0.67414027512751 -0.56593062676268
 6 -9.86878313801380  1.76620657375738 -0.70567689178918
 6 -11.22747184378438  1.41300964006401 -1.21639335883588
 6 -11.16792919681968  0.01130649474947 -1.33662237623762
 6 -9.87811349204920 -0.37405938023802 -0.91678669476948
 6 -12.34767359105911  2.34478504950495 -1.34842161696170
 6 -12.36813135943594 -0.78521593169317 -1.70434124262426
 6 -12.31716920532053 -1.09303171437144 -3.21260637923792
 7 -7.24540400870087 -1.38863847744774 -0.14710938793879
 6 -8.29912015181518 -2.27804297639764 -0.52213716891689
 6 -7.86369251485149 -3.63058132563256 -0.42964024132413
 6 -6.57697158125813 -3.59245358235824  0.00816908500850
 6 -6.17023962036204 -2.20237851915192  0.11997480168017
 6 -8.65384285168517 -4.83997684008401 -0.75300377877788
 6 -5.39912438273827 -4.39549343284328  0.26251912451245
 8 -5.25834467236724 -5.62930741414141  0.45786281698170
 6 -4.17845142454245 -3.40781657145715  0.63507337263726
 6 -3.55787641854185 -3.63184840614061  1.95215558845885
 8 -3.76912851345135 -3.00404714091409  2.95286796789679
 8 -2.69886107980798 -4.57413213561356  1.71760034093409
 6 -1.97707829572957 -5.00417464656466  2.85256019151915
 6  2.83317582928293 -0.45084287888789 -1.32889408980898
 6  4.14516660566057 -0.35230340664066 -0.62353250225023
 6  5.14035752015201  0.45224148954895 -1.04118389108911
 6  5.03842226522652  1.45991864116412 -2.23091725702570
 6  6.45264959775978  0.54389623982398 -0.18341482668267
 6  7.66780431833183 -0.17443779067907 -0.88313526402640
 6  8.98402027462746 -0.05357048744874 -0.06946875967597
 6  10.19059968446845 -0.59642671437144 -0.95450642114211
 6  10.03088978917892 -2.04702563866387 -1.32347581258126
 6  11.41580445734573 -0.34916869766977  0.07638850745075
 6  12.86225113281328 -0.50009406050605 -0.58478850175018
 6  13.97374684308431 -0.17147835063506  0.28872594009401
 6  15.33228935383538 -0.16988071717172 -0.45279351915192
 6  15.63972564146415 -1.54428206200620 -0.90843046074607
 6  16.37651175707571  0.47350171017102  0.60471497869787
 6  17.71002559195919  0.52691408980898 -0.05488130273027
 6  18.79362973247325  1.29217743474347  0.76738717171717
 6  20.20259892909291  1.17444777827783  0.24345910911091
 6  20.24665601940194  1.88626692389239 -1.16172716541654
 6  21.28807973877388  1.83937687398740  1.24059942334233
 1 -3.97110859535954  3.36471199259926  1.53507809470947
 1 -9.93577397009701  3.95880671567157 -0.64230962246225
 1 -10.16805009440944 -2.34611395219522 -1.14594124632463
 1 -2.61492794969497 -1.19245755965597  1.87028771997200
 1 -2.13708731393139  1.69222280488049  1.21885253565357
 1 -1.82851730923092  0.82139259215922  3.55778949244925
 1 -2.92742780278028  2.29109316681668  3.32401456685669
 1 -3.61023446614661  0.64849953395340  3.64410682348235
 1 -2.17370985588559 -1.71106106650665 -0.35658956815682
 1 -2.27214888738874  0.14325157555756 -0.84193423302330
 1 -0.34474799219922  0.49831444534453  1.02922332143214
 1  0.06286848484848 -1.06623113831383  1.09522347754775
 1 -5.96519529492949  6.70925957005701  0.68824453365336
 1 -5.74846183558356  6.10849421252125  2.21655795289529
 1 -4.56870082608261  5.55408657505751  1.10903407900790
 1 -9.43636568906891  5.65576172427243 -0.40805103330333
 1 -9.19788100400040  7.85080581948195  0.73374299609961
 1 -7.48783824962496  7.15380177967797  1.67026541204120
 1 -12.36086019111911  2.90561088708871 -2.26341934663466
 1 -13.33955362456246  1.83062695389539 -1.49570076157616
 1 -12.19266099719972  3.03979263396340 -0.49350059405941
 1 -12.33560833923393 -1.75110455555556 -1.03907886278628
 1 -13.30849956885689 -0.25605234203420 -1.39356488398840
 1 -13.39058541114111 -1.51567625382538 -3.68696858135814
 1 -12.19731329552955 -0.13728826642664 -3.71557505320532
 1 -11.59234551385139 -1.90795566266627 -3.32693131313131
 1 -9.13421302430243 -4.96571731463146 -1.70106337043704
 1 -8.03386275107511 -5.61638164236424 -0.61483109610961
 1 -9.56232611751175 -4.83731875317532 -0.23948577117712
 1 -3.43885458135814 -3.48657190789079 -0.03258853035304
 1 -1.56493465996600 -4.10213665336534  3.25748866416642
 1 -2.69677928652865 -5.57850946854686  3.75471831073107
 1 -1.19491760326033 -5.75639491269127  2.52302625552555
 1  2.75635493959396 -1.26180801670167 -1.63524748974898
 1  2.55801327892789  0.07976225582558 -2.17763091529153
 1  4.34654556015602 -0.90995321052105  0.27756097209721
 1  4.00763972747275  1.53492220262026 -2.55378374807481
 1  5.74276968866887  2.41977223612361 -1.93719018721872
 1  5.38524583218322  0.83328443594359 -3.22024075507551
 1  6.83022508540854  1.71646564656466 -0.20393775097510
 1  6.32859697909791  0.25208717131713  0.85911562826283
 1  7.51013839853985 -1.50391962716272 -0.78892021562156
 1  7.86110854675468  0.22535574367437 -1.95860878447845
 1  9.12210426202620  1.10941882688269  0.37756538873887
 1  8.79679816851685 -0.53579908610861  0.76963482718272
 1  10.37380493189319  0.08296083378338 -1.92214710421042
 1  9.25262024752475 -2.06026400290029 -1.97629355415542
 1  10.99170172587259 -2.25189197309731 -1.78968321222122
 1  9.68549143514351 -2.74748669066907 -0.48424786448645
 1  11.28600628152815  0.61103333353335  0.65317680518052
 1  11.30355340874087 -0.96339230053005  0.71394201580158
 1  12.92240555945595 -1.62430059125913 -0.79542721032103
 1  13.01778553105310  0.08818950995100 -1.45022838413841
 1  13.81214265096510  0.78266082208221  0.72659000200020
 1  14.17606035913591 -0.83838344304430  1.04636115261526
 1  15.10674396289629  0.32596208120812 -1.28551290929093
 1  15.65915335823582 -2.11865215731573  0.08859740584058
 1  14.78762181288129 -1.88457083268327 -1.67847526262626
 1  16.77835746514652 -1.66409193409341 -1.12125359485949
 1  16.06547174787478  1.44057189088909  0.92039858415842
 1  16.46918136533653 -0.04685386048605  1.49607236843684
 1  18.21973291199120 -0.32735928332833 -0.40826416681668
 1  17.61418848334834  1.15860317921792 -0.98813238903890
 1  18.72385317791779  2.37792194989499  0.80640864616462
 1  18.70707786808681  0.82353653465346  1.89656965726573
 1  20.58688360106011  0.06937308550855  0.07629469346935
 1  19.97178128472847  2.87988155005501 -1.01554514791479
 1  21.18595284738474  1.70040669346935 -1.57530889418942
 1  19.45268917331734  1.39798160896090 -1.85192216121612
 1  21.28424439963996  1.29159726882688  2.17045666286629
 1  22.23128483478348  1.70729195889589  0.63356832313231
 1  21.25031476137614  3.04208429172917  1.02176261676168

