%nproc=4
%Mem=2GB
# td=(NStates=1) CAM-B3LYP/6-31G(d,p) 

TD

0 1
12 -7.09888046104610  0.62191093919392  0.02902058945895
 6 -4.85301991999200 -1.99343052145215  0.48507504020402
 6 -4.74794472337234  2.71767021432143  1.32136850175017
 6 -9.33376811231123  3.16764225972597 -0.53328618831883
 6 -9.55103541724172 -1.74951046204620 -0.78361479057906
 7 -5.06479990459046  0.45242506060606  0.62516293459346
 6 -4.33901360746075 -0.72767258925893  0.80753877707771
 6 -2.81546055145515 -0.48636806250625  1.26720707490749
 6 -2.98664210261026  1.01264393269327  1.57078780948095
 6 -4.35446244114411  1.45442619141914  1.08091512141214
 6 -2.76418150025003  1.16968925702570  3.11540294919492
 6 -1.92069553055306 -0.75859112051205  0.09098305660566
 6 -0.42891031363136 -0.60924527172717  0.55805993529353
 6  0.54896603380338 -0.73119663256326 -0.67192257275728
 8  0.31959319941994 -0.84375978357836 -1.86485281698170
 8  1.82144395489549 -0.61731912831283 -0.20349713861386
 7 -7.16041648954895  2.61389697949795  0.33227192269227
 6 -6.05714499349935  3.30602157795780  0.83601713531353
 6 -6.40941819491949  4.72359664906491  0.80749143634363
 6 -7.70052275927593  4.82914354585458  0.32288067936794
 6 -8.19848412001200  3.54818401370137  0.04890743704370
 6 -5.62771072777278  5.90449291519152  1.27121188168817
 6 -8.61726952455245  6.04083511721172  0.11597858325833
 6 -8.54458835013501  7.20821694029403  0.74656090589059
 7 -9.18458073067307  0.71118397949795 -0.48579261296130
 6 -9.85502176187619  1.83111306440644 -0.68497482158216
 6 -11.17625672227223  1.47827616671667 -1.17511923142314
 6 -11.20500290419042  0.20391575567557 -1.24087280128013
 6 -9.91883756445644 -0.34889686398640 -0.95900091619162
 6 -12.25253407710771  2.49571014201420 -1.32701947674767
 6 -12.40737528382838 -0.64225163526353 -1.75118592709271
 6 -12.32299978837884 -1.10573298449845 -3.25180029862986
 7 -7.17695716401640 -1.39436905050505 -0.38043272027203
 6 -8.16718695849585 -2.21975714781478 -0.59420437563756
 6 -7.89773591919192 -3.59893816131613 -0.43840111741174
 6 -6.46453033713371 -3.53630796779678 -0.11328306020602
 6 -6.12195479187919 -2.19622790409041  0.02321512571257
 6 -8.75418288568857 -4.83472631503150 -0.71885036343634
 6 -5.30016448674867 -4.31608549204921  0.20729360196020
 8 -5.11230006790679 -5.61062554595460  0.25320235093509
 6 -4.17991157055706 -3.33849963976398  0.50348021332133
 6 -3.45742637353735 -3.64650987228723  1.88420879377938
 8 -3.54754635523552 -3.04028076427643  2.93305598669867
 8 -2.64265545924592 -4.69175389778978  1.75063364426443
 6 -2.08957954585459 -5.10831506060606  2.98567350285028
 6  2.84389690139014 -0.65155294989499 -1.23404460486049
 6  4.13067515651565 -0.48611678797880 -0.50539068806881
 6  5.04730821522152  0.33270953635364 -0.83847362006201
 6  5.01338976197620  1.24550720002000 -2.03913807910791
 6  6.38710304310431  0.46922877307731 -0.02146863206321
 6  7.59635717361736 -0.05349569646965 -0.82547949844984
 6  8.93080495309531 -0.13952908330833 -0.05778759155916
 6  10.14219484398440 -0.54352142384238 -0.90769173967397
 6  10.04330103030303 -2.04525546164616 -1.29825329032903
 6  11.41280415731573 -0.24122790359036  0.00218108670867
 6  12.67305221292129 -0.56001005210521 -0.62037206010601
 6  13.91472094049405 -0.25573677647765  0.29941700920092
 6  15.28229435433543 -0.26483021212121 -0.41545978577858
 6  15.87281895079508 -1.74605223902390 -0.80746036373637
 6  16.27809191509151  0.53209756975698  0.44317882508251
 6  17.65661025042504  0.51261265966597 -0.09946576117612
 6  18.75061543104311  1.38460667766777  0.75994642764276
 6  20.18229689888989  1.39267960146015  0.15447021022102
 6  20.20383173697370  1.91964026122612 -1.32132312501250
 6  21.10034096489649  2.16324926122612  1.15263062646265
 1 -4.15396688118812  3.56748226962696  1.75803038993899
 1 -10.08728912161216  3.81834266926693 -1.12526791829183
 1 -10.24340763016302 -2.63151249204920 -0.86576322852285
 1 -2.74907136403640 -1.02675098899890  2.26560725192519
 1 -2.25580918611861  1.57373095569557  1.21632228262826
 1 -1.74814927242724  0.99438989188919  3.41919563306331
 1 -2.91174623462346  2.28953301080108  3.23357552295230
 1 -3.54488793149315  0.67144182818282  3.59033144594459
 1 -2.01469395429543 -1.74600456085609 -0.29759366856686
 1 -2.03568524102410 -0.12021477107711 -0.75070511011101
 1 -0.28750226762676  0.44126874077408  1.10232063116312
 1 -0.13440124212421 -1.31701621682168  1.29461341654165
 1 -5.74985376077608  6.95085372947295  0.88334404360436
 1 -5.61291828122812  5.87517088018802  2.27509380648065
 1 -4.61883583958396  5.69239040544054  0.94677785338534
 1 -9.41252330483048  6.01985813391339 -0.69957018521852
 1 -9.16375759165917  8.10706144504450  0.39671929372937
 1 -8.02216168196820  7.42138853835384  1.64933331883188
 1 -12.28852295739574  3.10185051105111 -2.36140914561456
 1 -13.14277394659466  1.96503039423942 -1.49872106360636
 1 -12.40159189028903  3.35796445114511 -0.54012525652565
 1 -12.34760953935394 -1.62737218231823 -1.18371332623262
 1 -13.30503922282228 -0.09546628342834 -1.46813234073407
 1 -13.22775912851285 -1.53924861106111 -3.58989887438744
 1 -12.03421698589859 -0.25291982958296 -3.89854335003500
 1 -11.38844512381238 -1.96978184528453 -3.37702632263226
 1 -9.04253385638564 -4.88569931283128 -1.82550581468147
 1 -8.14901426622662 -5.67390739493949 -0.68856846984698
 1 -9.60699058395840 -4.79894491579158 -0.42117393999400
 1 -3.61654235013501 -3.54533778447845 -0.29878515001500
 1 -1.29521768826883 -4.56668310801080  3.44302721802180
 1 -2.85355496409641 -5.18566018361836  3.83076591549155
 1 -1.59192730423042 -6.15668494169417  2.81073502640264
 1  2.91152045614561 -1.76456829272927 -1.69625359035904
 1  2.33473095069507 -0.03200892129213 -2.04264741694169
 1  4.23560446604660 -0.98367058225823  0.33961717771777
 1  3.90950991449145  1.64000271067107 -2.40275864556456
 1  5.57476288798880  2.16880713961396 -1.86559302750275
 1  5.43304061166117  0.77805891339134 -3.00682941394140
 1  6.62143420632063  1.42798679867987  0.29589223202320
 1  6.23434755415542 -0.13779181658166  0.90936065276528
 1  7.52731011571157 -1.07970720592059 -1.42547387098710
 1  7.69619205510551  0.66350955905591 -1.65707863146315
 1  9.09663171477148  1.02817070207021  0.24971260346035
 1  8.83408189688969 -0.72213771997200  0.86698456215622
 1  10.21428898029803 -0.00035749804981 -1.77657254675468
 1  9.28885387088709 -2.31803978047805 -2.08302422722272
 1  10.90587314301430 -2.63851063496350 -1.85460970487049
 1  9.53121600760076 -2.67987992999300 -0.53948338803880
 1  11.44711239213921  0.67865009520952  0.52126361386139
 1  11.18153120652065 -0.90384634593459  0.95689631123112
 1  12.53453677257726 -1.63634179537954 -0.98487615521552
 1  12.88248200070007  0.05401609260926 -1.57575093639364
 1  13.75534697139714  0.83368592459246  0.47260460346035
 1  13.71319407250725 -0.97699730443044  1.04653116961696
 1  15.04349763826383  0.34939442444244 -1.32440679867987
 1  16.14892233513351 -2.40375066716672  0.11984053015302
 1  15.04135718641864 -2.23417579317932 -1.38722613771377
 1  16.70771040044005 -1.44747027192719 -1.66990846034603
 1  15.94596979767977  1.38978681238124  0.64805134943494
 1  16.47578202540254 -0.13809298439844  1.55750851205121
 1  18.01737267596760 -0.40168671607161 -0.51568490889089
 1  17.71124818931893  1.22261958085809 -1.04543811961196
 1  18.48957975057506  2.39105326302630  0.74119212451245
 1  18.61691885218522  0.76222040304030  1.67690769106911
 1  20.63312822552255  0.41705785398540  0.13285034903490
 1  19.60880498709871  2.89417297919792 -1.52078567196720
 1  21.24960921302130  1.92699935273527 -1.58737010031003
 1  19.70769467386739  1.41987379817982 -2.04568153715372
 1  21.14705068026803  1.57239534863486  1.98888850605060
 1  22.24469617591759  2.13024425412541  0.68075304160416
 1  20.54753448334834  3.25942602590259  1.42135257575758

