%nproc=4
%Mem=2GB
# td=(NStates=1) CAM-B3LYP/6-31G(d,p) 

TD

0 1
<<<<<<< HEAD
12 -7.07870844384438  0.58166691479148  0.12563025042504
 6 -4.86778139613961 -1.99322050045005  0.56216274897490
 6 -4.74151408030803  2.78940738803880  1.18348471337134
 6 -9.40754549004900  3.18749424492449 -0.28272113181318
 6 -9.54587490119012 -1.76695220622062 -0.80488691779178
 7 -5.14107753235324  0.49786960506051  0.78626904520452
 6 -4.36769647574758 -0.62806262826283  0.74910293349335
 6 -2.98836784218422 -0.35889531523152  1.17877823202320
 6 -3.11963540194019  1.05696836513651  1.76279701040104
 6 -4.38328532343234  1.48962971177118  1.15022205210521
 6 -3.03426850895090  1.22599488758876  3.23849525842584
 6 -1.96898035903590 -0.41052631403140 -0.03500954265427
 6 -0.52998042064206 -0.44925927312731  0.41381551085109
 6  0.49124026122612 -0.59784329722972 -0.69563494399440
 8  0.18364960506051 -0.96569197679768 -1.81404773647365
 8  1.75662747324732 -0.34931232763276 -0.39233602250225
 7 -7.12442289018902  2.62432802260226  0.27931662716272
 6 -6.02156143514351  3.37151812761276  0.76937047064706
 6 -6.37355460856086  4.77333162256226  0.76639732693269
 6 -7.71941464846485  4.92359299079908  0.35591398269827
 6 -8.15819009060906  3.49841903720372  0.13019556585659
 6 -5.41093905060506  5.96659912581258  0.97983274377438
 6 -8.41180897849785  6.05774680838084  0.09312629802980
 6 -8.29476336763676  7.24968108670867  0.65751200100010
 7 -9.07422969556956  0.70086294739474 -0.42497653135314
 6 -9.84592085178518  1.86374632773277 -0.62458878297830
 6 -11.23680277687769  1.45896423552355 -1.02475419491949
 6 -11.24532693659366  0.09463482758276 -1.24492320632063
 6 -9.93634931563156 -0.33449542384238 -0.88837385348535
 6 -12.25854467816782  2.34021459245925 -1.39908668346835
 6 -12.29511405770577 -0.83094050415041 -1.72173298179818
 6 -12.19453694209421 -1.31455386658666 -3.19642476107611
 7 -7.25652512081208 -1.37387700130013 -0.25751042804280
 6 -8.23551379117912 -2.32521769386939 -0.54910986618662
 6 -7.87283342894289 -3.58021628912891 -0.52655993329333
 6 -6.54930881498150 -3.61650598759876 -0.08439017091709
 6 -6.23329592599260 -2.22622090339034  0.15593839803980
 6 -8.61374884228423 -4.83762660506051 -0.83053153155316
 6 -5.31137560786079 -4.43370725422542  0.29081195379538
 8 -5.21011984988499 -5.61454593799380  0.26578360906091
 6 -4.22656623602360 -3.33677946774677  0.58621848714871
 6 -3.54811544244424 -3.75890111141114  1.87208758165817
 8 -3.83245484608461 -3.21439817601760  2.92280496159616
 8 -2.62212340604060 -4.76143086548655  1.73151173207321
 6 -1.96231681958196 -5.19702393149315  2.97676261176118
 6  2.84975748744874 -0.63514130873087 -1.22744394479448
 6  4.11773386238624 -0.50670884718472 -0.61397154615462
 6  5.08231171557156  0.34195046044604 -0.95961573427343
 6  5.02694111711171  1.32122477177718 -2.13652781808181
 6  6.42549688248825  0.32370422062206 -0.13853033823382
 6  7.64391192909291 -0.13576392329233 -0.87891484198420
 6  8.95664753735374 -0.09563469386939 -0.01487330013001
 6  10.16853747824782 -0.43742081378138 -0.89647061756176
 6  10.08091479167917 -2.02575351145114 -1.23096656165617
 6  11.45875875277528 -0.20077385818582 -0.01208033943394
 6  12.75098000570057 -0.41227527862786 -0.79818984188419
 6  13.88658812721272 -0.03232443524352  0.08874594209421
 6  15.23220934583458 -0.25216894599460 -0.54174241404140
 6  15.56471814071407 -1.71853948774877 -1.00523014071407
 6  16.43174728062806  0.38825318531853  0.35952045924592
 6  17.75274986438644  0.51608300670067 -0.22703851845185
 6  18.79462983248325  1.24058227522752  0.73591402440244
 6  20.26747541674167  1.34330466396640  0.33241800500050
 6  20.47015836963697  2.02154045124512 -0.98222921562156
 6  21.10123105390539  1.98331126742674  1.38969433283328
 1 -4.08169965446545  3.50891641304130  1.60537512441244
 1 -10.17366775947595  3.85677651265126 -0.48398378987899
 1 -10.47967125652565 -2.51668100890089 -1.14382103430343
 1 -2.81543800070007 -1.14002231613161  1.89781047224722
 1 -2.28184178937894  1.47184076667667  1.28943959435944
 1 -2.07406186368637  0.74803525642564  3.56285999949995
 1 -3.12429748974898  2.24077813531353  3.83499566496650
 1 -3.71139458215822  0.40059474347435  3.59433184598460
 1 -2.08608109300930 -1.30349030943094 -0.70697460666067
 1 -2.28905057755776  0.71885913631363 -0.54634467406741
 1 -0.07776129352935  0.42646726062606  1.05760615971597
 1 -0.29116691869187 -1.34512902810281  1.08520247544754
 1 -5.60000877627763  6.71658030213021  0.21302701190119
 1 -5.40280727012701  6.36345970907091  1.90676697379738
 1 -4.26676063206321  5.60278144454445  0.95239841544154
 1 -9.25330738323832  5.98515466356636 -0.67876810501050
 1 -9.03231444734473  8.13397413631363  0.20996061786179
 1 -7.76508597439744  7.27352375187519  1.57007539303930
 1 -11.99461356645665  3.06775710171017 -2.10120312501250
 1 -13.35701537073707  1.94459835103510 -1.65729692119212
 1 -12.49915164626463  3.06207486218622 -0.47599884388439
 1 -12.46094087248725 -1.53932337743774 -0.96974192909291
 1 -13.24809352825283 -0.40295703250325 -1.62579810731073
 1 -13.11406775937594 -1.99565425162516 -3.31604148864886
 1 -12.33440700490049 -0.54584912251225 -4.07160065576558
 1 -11.36547282658266 -2.06028089518952 -3.32667128712871
 1 -9.36919652265227 -4.81901264416442 -1.70064332843284
 1 -7.94972433723372 -5.68868887308731 -1.28170778377838
 1 -9.51317120202020 -5.11171619291929 -0.04118594119412
 1 -3.51418211411141 -3.55252850355036 -0.33292856435644
 1 -1.41409957645765 -4.34514095379538  3.23662657795780
 1 -2.82360196879688 -5.53548516611661  3.67504034293429
 1 -1.26302441394139 -6.14321359455946  2.55242919581958
 1  2.56852615671567 -1.78447028292829 -1.69137310231023
 1  2.57940541814181 -0.02728844924492 -2.08829198139814
 1  4.37384829042904 -1.27395961116112  0.22926614261426
 1  4.13990295379538  1.54615332573257 -2.51003937363736
 1  5.30758617031703  2.47520777967797 -1.84349081728173
 1  5.69586689428943  0.84360546804680 -3.02510124112411
 1  6.62582464536454  1.38477247724772  0.22452509530953
 1  6.26080019941994 -0.21584962236224  0.93538325502550
 1  7.61989937463746 -1.10177941314131 -1.29444076767677
 1  7.87202963886389  0.40268347644764 -1.72579550315032
 1  9.05244729632963  0.95288317331733  0.37169480168017
 1  9.00391888058806 -0.70947645384538  0.96439430313031
 1  10.19767731913191  0.01466400410041 -1.88838372787279
 1  9.14777976347635 -2.27257523402340 -1.72979890469047
 1  10.90403295899590 -2.32886967086709 -1.66796104000400
 1  10.14916780278028 -2.76547848984898 -0.29450889058906
 1  11.46257393829383  0.66772900310031  0.25289677717772
 1  11.42077513091309 -0.66896285758576  1.04285490709071
 1  12.75375869476948 -1.47378553975398 -0.72180984858486
 1  12.92608636113611  0.02351304230423 -1.76062942424242
 1  13.75018645534553  0.90618317431743  0.45937328032803
 1  13.71352410551055 -0.44749435413541  1.07383389988999
 1  15.51074436293629  0.47311679667967 -1.44655901390139
 1  15.78998644154415 -2.27478777087709 -0.04508596249625
 1  14.95433848454845 -2.30541291689169 -1.69570698579858
 1  16.42753238263827 -1.61234675957596 -1.30719218871887
 1  16.14601980268027  1.55422325602560  0.73336988128813
 1  16.46898134533453 -0.25145432053205  1.19213197439744
 1  18.17252819151915 -0.40713726112611 -0.43233657405741
 1  17.94853191769177  1.09597691659166 -1.18257183298330
 1  18.47230802340234  2.33613777147715  0.86166417171717
 1  18.74833199349935  0.76810099109911  1.68083808410841
 1  20.55946085878588  0.25166131433143  0.23748081208121
 1  20.12750685728573  3.18568213011301 -0.95471906530653
 1  21.49789404150415  1.81955860866087 -1.15209657295730
 1  19.96074997939794  1.74668647944794 -1.71160812981298
 1  20.96723269846985  1.22389049814981  2.42310192739274
 1  22.29446115241524  1.93838506820682  1.35461042734273
 1  20.86994672457246  3.03060314361436  1.72418285878588
=======
12 -7.22687326032603  0.61930067816782  0.19896758415842
 6 -4.89062368036804 -1.95501668006801  0.48309484218422
 6 -4.86758668756876  2.82868131543154  1.18190455535554
 6 -9.45054979047905  3.15869136463646 -0.39184204390439
 6 -9.56982729642964 -1.71091660266027 -0.79465589468947
 7 -5.12361578617862  0.37630744884488  0.74811522982298
 6 -4.38353805990599 -0.69641946394639  0.79487751095110
 6 -2.92227123252325 -0.41671109680968  1.19844019821982
 6 -3.00243368176818  1.12734540284028  1.53701443214321
 6 -4.42482947784778  1.51973272207221  1.04634166406641
 6 -2.79692477457746  1.44616690479048  3.03233464236424
 6 -1.94529799079908 -0.74602986438644  0.10453441174117
 6 -0.42247967056706 -0.39430377757776  0.58766289558956
 6  0.50957209440944 -0.85839935283528 -0.50247562806281
 8  0.30168140824082 -1.28318372597260 -1.65437176887689
 8  1.82356416691669 -0.59548694509451 -0.11151794069407
 7 -7.10061050895090  2.59137472727273  0.33337203270327
 6 -6.00661994099410  3.37087806360636  0.81898543214321
 6 -6.45657291039104  4.78227251665167  0.78381906910691
 6 -7.75045775277528  4.84343497499750  0.39087747904790
 6 -8.13807807940794  3.46737593289329  0.00917346364636
 6 -5.58020597729773  5.88676114201420  1.12779754025403
 6 -8.56636443404340  6.10136116981698  0.19424641004100
 6 -8.43397728902890  7.18779489808981  0.89217546734673
 7 -9.18163043564356  0.69616247734773 -0.50473450715072
 6 -9.87913417311731  1.83522347544754 -0.64833115721572
 6 -11.22674177077708  1.44961330043004 -1.15890761026103
 6 -11.21863426732673  0.13099846394639 -1.31146986098610
 6 -9.95551123182318 -0.40028200250025 -0.76581159725973
 6 -12.33610243394339  2.53722429342934 -1.56445322012201
 6 -12.29820436673667 -0.84514192429243 -1.82001280978098
 6 -12.08764625302530 -1.07184959615962 -3.35156027462746
 7 -7.25263473177318 -1.33635324892489 -0.14531920892089
 6 -8.22724296409641 -2.19986515861586 -0.48882383758376
 6 -7.80937708330833 -3.62153042054205 -0.47045432273227
 6 -6.48579246334633 -3.57871220822082 -0.04094582648265
 6 -6.16703930033003 -2.14715299659966  0.16749955415542
 6 -8.68548601600160 -4.74824766716672 -0.95272375077508
 6 -5.34238870917092 -4.33773765726573  0.21383425602560
 8 -5.15940477837784 -5.55218970237024  0.09163619431943
 6 -4.18560213961396 -3.36498228802880  0.59231909720972
 6 -3.56347697859786 -3.73658888018802  1.98057843074307
 8 -3.80193179377938 -2.99176591279128  2.96398908000800
 8 -2.79461065476548 -4.82932765516552  1.77605618651865
 6 -2.08985957385739 -5.18404263336334  2.96564149964997
 6  2.80297280898090 -0.81865966056606 -1.18237943834383
 6  4.13663575257526 -0.57320549684968 -0.56416656565657
 6  5.10519400380038  0.27811407680768 -0.94527430013001
 6  5.03590201320132  1.16430908020802 -2.13980814611461
 6  6.36124045684568  0.43702555275528 -0.09245573077308
 6  7.60082762066207 -0.04100444734473 -0.87004395489549
 6  8.95665753835384  0.12042691229123 -0.17087890069007
 6  10.20757138163816 -0.52527959965997 -0.98196916741674
 6  10.00362706290629 -1.88280921702170 -1.47926139113911
 6  11.41296417331733 -0.19558333913391 -0.15630476187619
 6  12.81298620632063 -0.47508155925593 -0.64036405930593
 6  13.99293876227623 -0.25459666246625  0.21643871137114
 6  15.41284740964096 -0.29158288738874 -0.42132037183718
 6  15.66783845274527 -1.74840247404740 -0.87389700740074
 6  16.50047415331533  0.23166752675267  0.49160366756676
 6  17.91913650305030  0.55062646104610 -0.19294510911091
 6  18.82049241874187  1.23079129612961  0.80329076207621
 6  20.27757642684268  1.43485381888189  0.19321408460846
 6  20.39906125992599  2.28335663286329 -1.14699569226923
 6  21.15163609440944  2.15789872617262  1.18413377677768
 1 -4.10933241774177  3.58272379377938  1.43597818471847
 1 -10.10783117581758  4.07318815381538 -0.69672506400640
 1 -10.21848513791379 -2.59987932873287 -1.22006865906591
 1 -2.63067952485249 -1.07576589048905  2.14733542474247
 1 -2.29849345454545  1.53966754935493  0.94877552795280
 1 -1.74954941244124  1.27398785168517  3.43537725122512
 1 -3.11020608060806  2.65466952445245  3.27443960936094
 1 -3.53390683338334  0.69430411441144  3.66587900070007
 1 -1.95006749164916 -1.70545050545055 -0.33163707290729
 1 -1.99535120762076 -0.28844159375938 -1.01038107770777
 1 -0.44660817821782  0.62030664456446  0.84496489558956
 1 -0.21245904790479 -0.85733024822482  1.38203215841584
 1 -5.89499827522752  6.77796644074407  0.57299300850085
 1 -5.63873086248625  6.15074843794379  2.18013431053105
 1 -4.55546950295030  5.93964513091309  0.87577075267527
 1 -9.36208826132613  6.00400654875487 -0.48241847004700
 1 -9.14021523742374  7.80974171307131  0.79817943974397
 1 -7.61238070387039  7.36857325682568  1.71264965046505
 1 -11.92124622972297  3.24677500350035 -2.36096910161016
 1 -13.07750741994199  1.95316920812081 -1.79428061956196
 1 -12.46976870797080  3.28086674137414 -0.77924916891689
 1 -12.21579635803580 -1.92735218031803 -1.26761171607161
 1 -13.40410912981298 -0.45320205700570 -1.60670619811981
 1 -12.74951130373037 -1.81919660586059 -3.73255313981398
 1 -12.02182574677468 -0.20511504910491 -3.98118161386139
 1 -11.08952523182318 -1.36246111321132 -3.67730635063506
 1 -9.07825742874287 -4.54665540844084 -1.98350161426143
 1 -8.24590395519552 -5.66989699389939 -0.88348796179618
 1 -9.69959984488449 -5.05072009330933 -0.52542436503650
 1 -3.57171786768677 -3.30142339303930 -0.19042431393139
 1 -1.45664383088309 -4.14200063976398  3.17636055135514
 1 -2.65824543314331 -5.58285990359036  3.91883472237224
 1 -1.54085219671967 -5.93595286848685  2.77702165506551
 1  2.89725903000300 -1.92575441134113 -1.42893685868587
 1  2.56772425002500 -0.30424614501450 -1.99026217841784
 1  4.06343724932493 -0.91807402260226  0.32661587758776
 1  3.98556752025203  1.18659737013701 -2.47538590829083
 1  5.40624603630363  2.13211347024702 -2.09255572377238
 1  5.57191449904990  0.87171827932793 -2.99022775377538
 1  6.49893195609561  1.55448944894489  0.18721136393639
 1  6.26427054645465 -0.18355639303930  0.98347806450645
 1  7.55051243594359 -1.12621185638564 -1.10769209280928
 1  7.70253268916892  0.42099530763076 -1.95360828442844
 1  9.30724277587759  1.11776966196620  0.10801843404340
 1  9.05021351005101 -0.51922742894289  0.86772463616362
 1  10.27849540094009  0.10570310801080 -1.84407929742974
 1  9.30725571107111 -1.92271024752475 -2.25450137493749
 1  11.01347390309031 -2.22532931683168 -1.78917316121612
 1  9.69205209120912 -2.74721666366637 -0.87891733143314
 1  11.41320900180018  0.87561979217922  0.07996948444844
 1  11.36425947934794 -0.62752871417142  0.94842546414641
 1  12.95157847674768 -1.54846300750075 -1.04385205280528
 1  12.98424217671767 -0.00316962596260 -1.69064242554255
 1  13.78310974767477  0.62978553455346  0.98509585258526
 1  13.88108086118612 -1.17741734643464  0.90965748224823
 1  15.29056234473447  0.30755024002400 -1.32735709370937
 1  15.76206364926493 -2.65207549964996 -0.01420287418742
 1  14.78291134183418 -2.16361873747375 -1.43661107620762
 1  16.52071170057006 -1.85056058095810 -1.58861033053305
 1  16.06514171487149  1.15670350405041  1.10960750505050
 1  16.64056850405040 -0.59787896299630  1.19531229242924
 1  18.23663460216022 -0.39766631403140 -0.30785412581258
 1  17.60978804330433  1.12250956985699 -1.14318789458946
 1  18.45577637023703  2.15968012571257  1.10362836813681
 1  18.90283744404440  0.74679886088609  1.86726672697270
 1  20.73845875857586  0.45916206440644 -0.14558749474948
 1  19.96381048764876  3.19423298519852 -1.07385097849785
 1  21.24297854995500  2.27180383318332 -1.51897326062606
 1  19.74138804320432  1.80049185998600 -1.91816878587859
 1  20.94943091829183  1.57622573167317  2.19601921912191
 1  22.16395810211021  2.08233946364636  1.05878084438444
 1  20.84660439033904  3.24471455475548  1.33397383788379
>>>>>>> 8e03b5b5abfc0030b3aa597dc0de36371bfbd096

