%nproc=4
%Mem=2GB
# td=(NStates=1) CAM-B3LYP/6-31G(d,p) 

TD

0 1
12 -7.08567914091409  0.59012776087609  0.15226291369137
 6 -4.87595221322132 -1.92093327172717  0.40039657235724
 6 -4.80532046094609  2.87141558885889  1.11683804870487
 6 -9.42866760226023  3.10791628712871 -0.32727558725873
 6 -9.50049036273627 -1.74876038703870 -0.83859028812881
 7 -5.07174059865987  0.37437725582558  0.70202062036204
 6 -4.29089879597960 -0.71981180318032  0.75235325852585
 6 -2.93140214561456 -0.52573199889989  1.21355170937094
 6 -3.01661509990999  1.03639630793079  1.72669340004000
 6 -4.40023701860186  1.48456920572057  1.09709673957396
 6 -3.14430951305130  1.26276856495650  3.32347375627563
 6 -1.90811427242724 -0.66078133953395  0.09868382668267
 6 -0.51659908250825 -0.58385273247325  0.59087321662166
 6  0.48443958115812 -0.82799631253125 -0.40772615311531
 8  0.28366960706071 -1.18351375897590 -1.56248257995800
 8  1.75766757725773 -0.48628602500250 -0.06022281118112
 7 -7.13661410931093  2.67113270307031  0.32215091059106
 6 -6.05087436643664  3.41015199099910  0.73040657425743
 6 -6.46679393249325  4.81250553995400  0.76844753195320
 6 -7.82578528552855  4.89319995149515  0.34505289658966
 6 -8.16963123472347  3.54329352465247 -0.06147360106011
 6 -5.64578253495350  5.86058852475248  1.09340410091009
 6 -8.66055385298530  6.11948298199820  0.06688367376738
 6 -8.49825371667167  7.21861798039804  0.74475072487249
 7 -9.09704197679768  0.64712757385739 -0.56538057175718
 6 -9.88406466616662  1.72072202530253 -0.62911923602360
 6 -11.22619171577158  1.51229956905691 -1.14604632413241
 6 -11.24432683658366  0.13388875297530 -1.23159187318732
 6 -9.87710339103910 -0.39701167546755 -0.94547956405641
 6 -12.33340216391639  2.39708027902790 -1.39343611841184
 6 -12.34794934123412 -0.66238364846485 -1.77775858435844
 6 -12.33072056045605 -0.97567997919792 -3.34369948854886
 7 -7.19856932523252 -1.44737435103510 -0.33789846684668
 6 -8.24850509030903 -2.17297246934693 -0.64104906010601
 6 -7.78857500310031 -3.66981524902490 -0.53688096539654
 6 -6.47912179627963 -3.57853219021902 -0.13501523342334
 6 -6.18290088648865 -2.22972125342534 -0.03137033283328
 6 -8.61020848824882 -4.91142398479848 -0.75665414381438
 6 -5.26881135143514 -4.36397028052805  0.27093996659666
 8 -5.07914675257526 -5.60289477287729  0.21084811551155
 6 -4.13162674207421 -3.32015780558056  0.53957382268227
 6 -3.49798042894289 -3.64761998329833  1.97183755665567
 8 -3.81511311191119 -3.11022775897590  2.92538521962196
 8 -2.67485867956796 -4.60979570197020  1.69029761066107
 6 -2.13437402530253 -5.13969819891989  2.92455739123912
 6  2.80346285798580 -0.60355815041504 -1.12506370677068
 6  4.14553664266427 -0.34251242754275 -0.47268741774177
 6  5.07696118051805  0.45272153755376 -0.88751852455246
 6  5.03454187718772  1.18246089538954 -2.17172133743374
 6  6.47567189999000  0.40949279947995 -0.18554503970397
 6  7.66838437633763 -0.15004535143514 -0.93139008950895
 6  8.81057292989299 -0.26481161156116  0.03075126232623
 6  10.17756838133813 -0.55106217791779 -0.81020199069907
 6  10.12846954715472 -2.20059099519952 -1.00095356035604
 6  11.51236411331133 -0.25290907170717 -0.01089022042204
 6  12.76382128982898 -0.40964501560156 -0.86687671057106
 6  13.91588105650565 -0.07476867966797  0.00637770527053
 6  15.26632275717572 -0.15358908800880 -0.73274151395140
 6  15.65844751365136 -1.52780041384138 -0.97850746844684
 6  16.41032513841384  0.63147750775078  0.18443295049505
 6  17.86950153955395  0.76112751115112 -0.31031684628463
 6  18.81128149764977  1.36777499449945  0.69187962096210
 6  20.21749041824182  1.20729106260626  0.26525128832883
 6  20.52119347314731  1.98456675387539 -1.05727672037204
 6  21.22540347114711  1.76774971127113  1.41098646204620
 1 -4.07142862736274  3.66319184058406  1.38358294519452
 1 -10.16707710041004  3.85195603060306 -0.40907629912991
 1 -10.24932822222222 -2.51487082788279 -0.98208486068607
 1 -2.69748620552055 -1.06170448434843  2.12556324752475
 1 -2.07340094529453  1.55209879247925  1.27308795919592
 1 -2.26535099259926  1.03555400830083  3.74583829732973
 1 -3.53315837583758  2.16597065456546  3.42221438683868
 1 -3.74734817751775  0.61932661666167  3.70858327112711
 1 -2.10429291419142 -1.71293125352535 -0.13299720892089
 1 -2.05227690019002  0.05909315971597 -0.52215225482548
 1 -0.17145066246625  0.30788540244024  0.97167756685669
 1 -0.08612641464146 -1.40490500570057  1.43692764796480
 1 -5.79941871727173  6.88208685278528  0.59488519771977
 1 -5.66417340674067  6.18167153025303  2.22802910001000
 1 -4.54293824982498  5.54030519691969  1.04084726032603
 1 -9.23662571507151  5.77614376247625 -0.66305653385339
 1 -9.07518873477348  8.08978971787179  0.53999362116212
 1 -7.81684114991499  7.45299169866987  1.59102748824883
 1 -12.09684378947895  3.16180650665067 -2.21251425612561
 1 -13.22119178837884  1.93039693089309 -1.69739093059306
 1 -12.37973970507051  3.01003965866587 -0.36780802480248
 1 -12.27776255465547 -1.75392483758376 -1.53615857075708
 1 -13.17854657355736 -0.28879561636164 -1.41835736323632
 1 -13.21004735733573 -1.50899558575858 -3.61742162666267
 1 -12.51257482168217 -0.00691522912291 -3.74568806450645
 1 -11.35844212351235 -1.16236110321032 -3.82657127712771
 1 -8.96708631163116 -4.78926966986699 -1.72069533363336
 1 -8.35124448924892 -5.94214421862186 -0.74122373537354
 1 -9.72099198409841 -4.65318033933393 -0.09529135173517
 1 -3.38450914681468 -3.51007425812581 -0.26518178967897
 1 -1.68244641114111 -4.38093453315332  3.57967088238824
 1 -2.83701330993099 -5.77151876947695  3.55685852475248
 1 -1.09829794129413 -5.67027630083008  2.53543749664967
 1  2.76099540364036 -1.58353018891889 -1.55011897689769
 1  2.42215969356936  0.03236751635163 -1.90515366756676
 1  4.28092899849985 -0.93686590179018  0.49098231423142
 1  3.90810977447745  0.81211992239224 -2.66492486218622
 1  5.26219163086309  2.26122638153815 -2.08005447364736
 1  5.80911821942194  0.54401550905091 -2.86178490949095
 1  6.89414147704770  1.45528952895290  0.21961460426043
 1  6.39232335173517 -0.07356539393939  0.86345606230623
 1  7.29085647034703 -1.15853508870887 -1.25679700330033
 1  8.16729916581658  0.24235744384438 -1.86690961456146
 1  9.13240529212921  0.68995688068807  0.34717234943494
 1  8.56417490619062 -1.09264477067707  0.91520938463846
 1  10.18403595499550 -0.02829029132913 -1.80900579007901
 1  9.25516050155015 -2.47211518801880 -1.35305122992299
 1  10.70436299199920 -2.60760754465446 -1.80335457935794
 1  10.24032691869187 -2.67239918191819 -0.19938937863786
 1  11.39959764066407  0.74192642284228  0.39797128462846
 1  11.57041009440944 -1.11672763406341  0.79412003360336
 1  12.71016433533353 -1.50548871007101 -1.47484515211521
 1  12.73278703120312  0.22363305430543 -1.82701606290629
 1  13.80528196489649  1.14996755275528  0.43978132113211
 1  13.91533428652865 -0.74814441914191  0.87890440694069
 1  14.88517180568057  0.64471395639564 -1.66518087608761
 1  15.99167661056106 -1.91815210731073 -0.01058251215121
 1  14.82234528522852 -2.12486486208621 -1.40773818891889
 1  16.66859648904891 -1.43985951085109 -1.71889335883588
 1  16.25589078977898  1.66382421612161  0.42887943224322
 1  16.44195864306430  0.10367119201920  0.96051881308131
 1  18.13680461916192 -0.31131767916792 -0.56466980738074
 1  17.89018608310831  1.34243156205621 -1.10720429622962
 1  18.49246003860386  2.30931508920892  0.97893589888989
 1  18.76810397069707  0.67958213921392  1.65860586088609
 1  20.42018693139314  0.03695984418442  0.17753481748175
 1  20.27199130573057  2.93595715761576 -0.91700529392939
 1  21.60180443254325  2.01612826562656 -1.41999336263626
 1  19.79643354775478  1.67538934973497 -1.81189815881588
 1  21.37308328352835  1.07556566566657  2.32829244644464
 1  22.25718742504250  1.70748197789779  0.95818078437844
 1  21.15448517841784  2.83104318761876  1.65917635813581

