%nproc=4
%Mem=3GB
# td=(NStates=1) iop(3/107=0140000000,3/108=0140000000) CAM-B3LYP/6-31G(d,p) 

TD

0 1
12 -7.17328201990199  0.58771715521552  0.15911228122812
 6 -4.91864068056806 -1.93847107770777  0.54957035943594
 6 -4.83019905050505  2.78139685758576  1.39039914511451
 6 -9.34797156165617  3.12009956295630 -0.47348982428243
 6 -9.60880697869787 -1.75173693939394 -0.87323412831283
 7 -5.11562859405941  0.38479457005701  0.85057288128813
 6 -4.43395564286429 -0.71896303950395  0.96544443914391
 6 -2.98569479007901 -0.46621501950195  1.29775544464446
 6 -2.97695092199220  0.98746744834483  1.84599087838784
 6 -4.40521075577558  1.49888453955396  1.33940833473347
 6 -2.84324050485048  1.23652647194719  3.31958727332733
 6 -1.96254198389839 -0.62471846104610  0.08690250055005
 6 -0.56576228542854 -0.37884113211321  0.61695507780778
 6  0.45314723792379 -0.69349597149715 -0.55971576167617
 8  0.17979819661966 -0.97486126382638 -1.70947834093409
 8  1.68709730813081 -0.36700663906391 -0.18311369896990
 7 -7.16511415481548  2.61468467836784  0.32810373447345
 6 -6.01743188698870  3.29359312671267  0.85869174527453
 6 -6.40269517791779  4.75254211781178  0.88935719441944
 6 -7.61803658895890  4.84628643384338  0.24478060446045
 6 -8.06914644214421  3.52897983678368 -0.12126412781278
 6 -5.53947598149815  5.83752322602260  1.26847700290029
 6 -8.48863887188719  5.96395666526653  0.10262087458746
 6 -8.37712612261226  7.17293644334433  0.70926498579858
 7 -9.07536657775778  0.64695168956896 -0.63879045294529
 6 -9.85636312261226  1.85836916121612 -0.66309912341234
 6 -11.21226517921792  1.48913835833583 -1.33386824652465
 6 -11.24398388558856  0.15831337713771 -1.37989801810181
 6 -9.94607221082108 -0.32767296069607 -0.87095929722972
 6 -12.23975491319132  2.55162040344034 -1.79534898759876
 6 -12.33394718761876 -0.68405452925293 -1.89913924452445
 6 -12.19894180308031 -1.11922211451145 -3.43179383058306
 7 -7.31095405780578 -1.39850468616862 -0.08731140624062
 6 -8.35425975227523 -2.23532207770777 -0.49011059095910
 6 -7.91082312211221 -3.64521507290729 -0.40007030683068
 6 -6.54125191569157 -3.55273825592559 -0.12523460516052
 6 -6.28876260796080 -2.17060501630163  0.21895373077308
 6 -8.82906524602460 -4.78131422982298 -0.66261964506451
 6 -5.35236069896990 -4.30714427782778  0.10384535863586
 8 -5.27760875317532 -5.57006386338634  0.13745969456946
 6 -4.25721022362236 -3.36252369976998  0.56988531013101
 6 -3.65713989078908 -3.75622356505651  1.88140410891089
 8 -4.01526430983098 -3.27412477037704  2.95292865106511
 8 -2.76237158995900 -4.69833845234523  1.74480351785179
 6 -2.19242819981998 -5.38873407930793  3.00181758215822
 6  2.75740206060606 -0.48695698459846 -1.24362787998800
 6  4.04850573577358 -0.32543781168117 -0.56355891869187
 6  5.15592108340834  0.39733626162616 -0.87994087108711
 6  5.18881260686069  1.07239491479148 -2.30957509250925
 6  6.49947622632263  0.41447206320632 -0.10898142254225
 6  7.72497394999500 -0.24521306930693 -0.82332266096610
 6  8.99757746934693 -0.13957577367737 -0.00404650705070
 6  10.25360082068207 -0.43939560276028 -0.80162588258826
 6  10.18639191579158 -1.96618449834983 -1.51769873587359
 6  11.48988365216522 -0.23375826692669  0.11771380888089
 6  12.78153588908891 -0.48257829132913 -0.61328883398340
 6  14.05190646244624 -0.14542025632563  0.17992440404040
 6  15.47099309030903 -0.20914999859986 -0.60874652715272
 6  15.75701197219722 -1.56789517781778 -0.97608943524352
 6  16.47378437113711  0.46627314461446  0.34944967966797
 6  17.92224981268127  0.51700543014301 -0.23755028202820
 6  18.92928334693469  1.24503258175818  0.66836009270927
 6  20.36821962636264  1.31973140564056  0.14695140114011
 6  20.37270011581158  2.22200950605060 -1.15595029092909
 6  21.36377144414441  1.83902560246025  1.23246718671867
 1 -4.09815017851785  3.53881713311331  2.00674677047705
 1 -10.06279840314031  3.82680495499550 -0.69255378157816
 1 -10.45099952405241 -2.45729126422642 -1.20554837423742
 1 -2.61309859705971 -1.08781898459846  2.22391888258826
 1 -2.20602406870687  1.47544960606061  1.10958460746075
 1 -1.81636472287229  0.82225133153315  3.57992833023302
 1 -3.16410351945194  2.18223744654465  3.64461248344834
 1 -3.58307110761076  0.55286044034403  3.99751143634363
 1 -2.19795491449145 -1.66001667246725 -0.40612861996200
 1 -2.35823219221922  0.09004662446245 -0.47926466106611
 1 -0.46188161686169  0.57459704700470  1.11570543354335
 1 -0.43228164846485 -1.19295006160616  1.33546700500050
 1 -6.05060923862386  6.86284379637964  0.89940977227723
 1 -5.70978244954495  6.26529941134113  2.34131614411441
 1 -4.37466231083108  5.65571983998400  1.40008074067407
 1 -9.18038829862986  6.00540392239224 -0.76605795849585
 1 -9.05532459615961  7.96386610761076  0.35699547524753
 1 -8.00043797589759  7.47572440884088  1.45850481078108
 1 -11.87625809880988  2.94615376247625 -2.81479731123112
 1 -13.20886818451845  2.14528327072707 -1.91009673787379
 1 -12.41850288298830  3.58209554365437 -1.04287472697270
 1 -12.41205317021702 -1.46861778457846 -1.31298479937994
 1 -13.28726102520252 -0.13220593109311 -1.85654140854085
 1 -12.83860906010601 -2.18701236333633 -3.65706666476648
 1 -12.52516292199220 -0.26847531883188 -4.11020999939994
 1 -11.12831767116712 -1.34498552575258 -3.63122140034003
 1 -9.28206282488249 -4.80898739953995 -1.75765182818282
 1 -8.23948833403340 -5.63468942224222 -0.55179513461346
 1 -9.65285946494650 -4.66998544694469 -0.11565383408341
 1 -3.52270978947895 -3.44359096469647 -0.41442918101810
 1 -1.58255164276428 -4.82797501090109  3.61070278787879
 1 -2.93475991329133 -5.71162068696870  3.59968100580058
 1 -1.60450097059706 -6.27714849964997  2.59359272037204
 1  2.65724377917792 -1.49658628142814 -1.58440988968897
 1  2.46558299959996  0.12648073287329 -2.08015907340734
 1  4.31377186388639 -0.69776819061906  0.48926032623262
 1  4.24960027152715  1.26909245194519 -2.84693517921792
 1  5.51862879507951  2.07375779967997 -2.18592603100310
 1  5.75772534103410  0.47871906280628 -3.05034129102910
 1  6.96386457035704  1.39802978357836  0.01455106900690
 1  6.17892576467647 -0.10593793049305  0.79247544304430
 1  7.47103922672267 -1.16515718871887 -0.95227998519852
 1  7.82505506400640  0.22093119611961 -1.85747657055706
 1  9.09292533683368  0.81591108860886  0.48053048114812
 1  8.78896201700170 -0.81266961966197  0.82685880928093
 1  10.34392902470247  0.37806395419542 -1.75300045804580
 1  9.03601321042104 -1.80826911041104 -2.11257963986399
 1  11.07736687728773 -2.14284768406841 -2.21905726382638
 1  10.48654085118512 -2.58949306400640 -0.55374276797680
 1  11.41391303290329  0.76354278767877  0.47446521732173
 1  11.38336593209321 -0.86206750435043  1.12864918501850
 1  12.66600455295529 -1.59924734403440 -0.88330060156016
 1  12.67102293219322 -0.07160222422242 -1.64861919561956
 1  14.14815623592359  0.88603396669667  0.51560638933893
 1  13.95227353795380 -0.78509488838884  1.20838321232123
 1  15.47986838823882  0.46317971497150 -1.58447971677168
 1  15.59607340414041 -2.29341868306831 -0.15535367086709
 1  14.88349999439944 -1.90765528552855 -1.67090846434643
 1  16.68999727932793 -1.75019591659166 -1.62593910721072
 1  16.14965823932393  1.45512384608461  0.61291720802080
 1  16.69991406920692 -0.12777906270627  1.25633412811281
 1  18.26511324902490 -0.49112562656266 -0.64488468406841
 1  18.00543785338534  1.25201409550955 -1.07356309990999
 1  18.49797885478548  2.28272954095410  1.32632457925793
 1  18.90615657815782  0.44959979947995  1.51349459495950
 1  20.55750558285829  0.16684768236824 -0.09075318311831
 1  19.90613743224323  3.33558433493349 -0.95273745844584
 1  21.44091789258926  2.30652179427943 -1.37857583878388
 1  19.80258865646565  1.80042033223322 -1.98054643904390
 1  21.61321517501750  0.99235487638764  1.93193686248625
 1  22.33044093689369  1.99438990969097  0.65131178477848
 1  21.02709278777878  2.84176029322932  1.64653178987899

