%nproc=4
%Mem=2GB
# td=(NStates=1) CAM-B3LYP/6-31G(d,p) 

TD

0 1
12 -7.13600417341734  0.58444719281928  0.14569225662566
 6 -4.86372099009901 -2.02520369876988  0.57936446914691
 6 -4.80870079897990  2.84760320762076  1.13649001390139
 6 -9.50285502100210  3.07355285078508 -0.43783664336434
 6 -9.49994030773077 -1.79353486448645 -0.88458488758876
 7 -5.08266169076908  0.49830964906491  0.75884630293029
 6 -4.38886859295930 -0.70634045604560  0.82002002520252
 6 -2.92577158255826 -0.26782620832083  1.22607296149615
 6 -3.05537897629763  1.25238790709071  1.59219995069507
 6 -4.41833882878288  1.55576632543254  1.20754778467847
 6 -2.94219930203020  1.37290957905791  3.13843525242524
 6 -1.95763922492249 -0.53374863626363  0.07792175047505
 6 -0.42868029062906 -0.40703505070507  0.49603373267327
 6  0.59379051625163 -0.64428794169417 -0.57772315281528
 8  0.32846408650865 -1.18354376197620 -1.69296562826283
 8  1.80872268276828 -0.38173556995700 -0.19039582848285
 7 -7.18161860976098  2.62666825662566  0.28971766726673
 6 -6.11344062306231  3.36356733253325  0.77962149574957
 6 -6.50646789988999  4.74083837323732  0.81789247644764
 6 -7.81476418341834  4.81656228772877  0.33099149044904
 6 -8.18293256485649  3.49215841114111  0.05269781608161
 6 -5.54664262096210  5.83975644154415  1.23814857535754
 6 -8.68670646824682  5.95683671737174  0.12875986138614
 6 -8.64500839213921  7.10595671427143  0.82195844564456
 7 -9.11079335193519  0.54746760786079 -0.56571060476048
 6 -9.88011427112711  1.77521747484748 -0.66677300140014
 6 -11.29330842744274  1.38463680278028 -1.08244996449645
 6 -11.27069947384738  0.03743910801080 -1.23264197819782
 6 -9.93658933963396 -0.46209818411841 -0.89260427652765
 6 -12.27115593929393  2.41990256125613 -1.15258203300330
 6 -12.28560310661066 -0.84470188028803 -1.81327213571357
 6 -12.00816830523052 -1.12450486168617 -3.33184830343034
 7 -7.20346981528153 -1.39449906350635 -0.21186586358636
 6 -8.23007324712471 -2.22526769886989 -0.55008996419642
 6 -7.79147529312931 -3.59473774127413 -0.51632891019102
 6 -6.44449833393339 -3.57850218721872 -0.03501523342334
 6 -6.18594119051905 -2.17047532883288  0.16598940314031
 6 -8.56166363376338 -4.80872371477148 -0.99626810521052
 6 -5.28325279557956 -4.34922880638064  0.28093096569657
 8 -5.06372521042104 -5.53994847824782  0.26152318301830
 6 -4.20252383178318 -3.30704649444944  0.67968783408341
 6 -3.50536116701670 -3.56904212551255  1.93384375727573
 8 -3.70494209480948 -3.04648138433843  2.98696137723772
 8 -2.65281647534753 -4.68135285768577  1.76563514441444
 6 -2.11129171707171 -5.26256048514851  2.94819975547555
 6  2.81027353905391 -0.59264705930593 -1.16187738813881
 6  4.20909299829983 -0.34459263556356 -0.60233038203820
 6  5.07667115151515  0.42611887728773 -1.02092186488649
 6  4.90777920092009  1.37697034633463 -2.29085325062506
 6  6.49668400120012  0.62753460366037 -0.36241272647265
 6  7.61915945384538  0.02749240234023 -1.16724367486749
 6  8.89198107070707  0.05432030163016 -0.28878069086909
 6  10.20708133263326 -0.44734180588059 -1.03997496799680
 6  10.12025872607261 -1.97736867296730 -1.32968643364336
 6  11.38156103300330 -0.25552933373337 -0.17120625202520
 6  12.81008591629163 -0.55107915901590 -0.63736375927593
 6  13.99434890329033 -0.19576077887789  0.32459952745275
 6  15.31144726962696 -0.25449917901790 -0.36435467526753
 6  15.68960062896290 -1.72884051785178 -0.80109972767277
 6  16.38315242114211  0.41016537653765  0.51271577877788
 6  17.78545313471347  0.35458685708571 -0.12776859145915
 6  18.77514788428843  1.20642885988599  0.79583001600160
 6  20.29659832903290  1.17236757025703  0.28055281848185
 6  20.42836419021902  1.76295459265927 -1.18398939163916
 6  21.21516244704470  1.91367430373037  1.30232559595960
 1 -4.26770825532553  3.65931145254525  1.42799738663866
 1 -10.40360075277528  3.77071790679068 -0.48109350085009
 1 -10.18931222062206 -2.58579792059206 -1.26829348154815
 1 -2.66682313921392 -0.68461677557756  2.16168685988599
 1 -2.32378598379838  2.05912949554955  1.27740839123912
 1 -1.74176863436344  1.29982043494349  3.40150386388639
 1 -3.48249330933093  2.30087414491449  3.51383354875487
 1 -3.48126156885689  0.47763244724472  3.37154956775678
 1 -2.19705219011901 -1.44830479087909 -0.54958886808681
 1 -1.97198887138714  0.16602385278528 -0.81018105770577
 1 -0.25712923032303  0.61930654455446  0.76471687078708
 1 -0.26567436943694 -1.14528904410441  1.17905186038604
 1 -5.97025580098010  6.89205784988499  0.68652436163616
 1 -5.85983297269727  6.02490585368537  2.27780407750775
 1 -4.42556651265127  5.59891105750575  1.11197437303730
 1 -9.41843389588959  5.73987013511351 -0.65777600580058
 1 -9.49227044294429  7.87790852975297  0.64615423722372
 1 -7.91281074687469  7.31813821332133  1.52882126762676
 1 -11.98121222632263  3.46150647664766 -1.78372137683768
 1 -13.27945761496150  1.93071696289629 -1.64827601910191
 1 -12.37854958605861  2.78071672637264 -0.13240448444845
 1 -12.33933871227123 -1.77927737283728 -1.34307926282628
 1 -13.32086080498050 -0.48426516331633 -1.65933146064606
 1 -12.93486983958396 -1.80881556775678 -3.47480736523652
 1 -12.04708827302730 -0.23267780538054 -4.08921241694169
 1 -11.01956823612361 -1.53154802190219 -3.61915053505351
 1 -8.91720132313231 -4.87770851375138 -2.11084434853485
 1 -7.86384574937494 -5.77731773597360 -0.78681829482948
 1 -9.49253913881388 -4.98126314761476 -0.32832465506551
 1 -3.46941763766377 -3.67449069976998 -0.19122439393939
 1 -1.35502366886689 -4.69082552225222  3.60563347864786
 1 -2.91380098869887 -5.64090570817082  3.73315615451545
 1 -1.54628273977398 -6.03403267646765  2.67975192809281
 1  2.79094839893989 -1.62975481138114 -1.62475644064406
 1  2.48322580018002 -0.07129284968497 -2.02899605180518
 1  4.36276718231823 -1.05493770897090  0.24831804780478
 1  3.77104606810681  1.60174888528853 -2.73047141684168
 1  5.18619403110311  2.41855211411141 -2.09897636583658
 1  5.58409571717172  1.00617172467247 -3.18864759575958
 1  6.55397746064606  1.73231723172317  0.03751639443944
 1  6.39907402680268  0.11107306990699  0.58662837953795
 1  7.36511389608961 -0.90100933613361 -1.80046136973697
 1  7.72252468836884  0.64837804590459 -2.04457738133813
 1  9.18915096669667  1.01312919791979  0.01483911611161
 1  8.74740322902290 -0.52838834503450  0.51265912961296
 1  10.12573012441244  0.09134167186719 -2.04306919641964
 1  9.28315330083008 -2.08530650715072 -2.01874779957996
 1  10.95028758445845 -2.33406018991899 -1.81605584948495
 1  9.84705759175918 -2.69754169616962 -0.54100354005401
 1  11.31820950185019  0.75480771097110  0.25421690919092
 1  11.15466852025203 -0.87894385568557  0.86797741934193
 1  12.61394471337134 -1.64943310451045 -0.97059472707271
 1  12.92469622212221  0.09176986798680 -1.68292165346535
 1  13.88880031673167  0.79894245024502  0.45686302930293
 1  13.71275402850285 -0.80320992569257  1.25576209270927
 1  15.29821310981098  0.45805529052905 -1.25687004500450
 1  15.84742218511851 -2.31177146924692  0.21155970207021
 1  14.79746279697970 -2.13579595519552 -1.38932634773477
 1  16.56502613201320 -1.83729925482548 -1.30755222472247
 1  16.11183638433843  1.44909274297430  0.68394493879388
 1  16.44222867006701 -0.11176035113511  1.49630239143914
 1  18.19100003870387 -0.69081562896290 -0.15734907530753
 1  17.78672573707371  0.93332065096510 -1.04045762156216
 1  18.36761755435544  2.25426958465847  0.70383838913891
 1  18.63512067236724  0.98880306130613  1.98144814511451
 1  20.61917683038304  0.20383653185319  0.24508157215722
 1  19.98829293589359  2.75666922882288 -1.15945953935394
 1  21.55177943004301  1.61003765656566 -1.25009637293729
 1  19.89342324672467  1.03100491129113 -1.74636160516052
 1  21.14625060026003  1.36772488158816  2.47105672287229
 1  22.27599930623062  2.10888211791179  1.17351231753175
 1  20.76964669456946  2.96575665896590  1.51381182168217

