%nproc=4
%Mem=2GB
# td=(NStates=1) CAM-B3LYP/6-31G(d,p) 

TD

0 1
12 -7.20875144814481  0.60761951005101  0.12038972637264
 6 -4.92550716871687 -1.96259743814381  0.51643817651765
 6 -4.81134106300630  2.80092854015402  0.97368373327333
 6 -9.37391212671267  3.13731922742274 -0.28490134983498
 6 -9.58143845754575 -1.79628513951395 -0.75144157325733
 7 -5.16761018561856  0.46051586968697  0.64183460176018
 6 -4.37726743284328 -0.67902772477248  0.76837486068607
 6 -2.96375538093809 -0.41623104880488  1.11033138733873
 6 -3.01349478787879  1.05960862916292  1.33768449914991
 6 -4.46942393729373  1.56297704650465  0.94867189708971
 6 -2.72430751285129  1.38573086118612  2.96861827072707
 6 -1.93532699369937 -0.76043130453045 -0.07516355805581
 6 -0.48649607220722 -0.68575292249225  0.37289141844184
 6  0.53215435263526 -0.67656116901690 -0.72614799529953
 8  0.26255749584959 -1.08879428702870 -1.73587991969197
 8  1.85994780528053 -0.42200959735974 -0.25980276917692
 7 -7.20543099099910  2.68082367216722  0.25197389288929
 6 -6.09598887788779  3.34093506930693  0.67649118271827
 6 -6.40988824192419  4.71480576997700  0.69983067026703
 6 -7.83034574157416  4.86726735823582  0.47034542584258
 6 -8.23290756235624  3.44865406070607  0.19697224352435
 6 -5.46221417811781  5.92327479337934  1.01514627512751
 6 -8.63494129172917  5.98044907860786  0.32375936133613
 6 -8.36465035633563  7.14770088868887  0.86402265206521
 7 -9.12785505810581  0.61646450755076 -0.54017805150515
 6 -9.94579083878388  1.77624757785779 -0.61018734283428
 6 -11.24705380198020  1.49931827092709 -1.07337905740574
 6 -11.32088449234923  0.07874323842384 -1.14314302830283
 6 -9.98005368606861 -0.43521549584958 -0.81448646474647
 6 -12.29742856655666  2.49206977797780 -1.39246602140214
 6 -12.37791233753375 -0.80161757185719 -1.61156196469647
 6 -12.22148963736374 -1.19912232343234 -3.16708182678268
 7 -7.37855732403240 -1.46163577717772 -0.01889656665667
 6 -8.31152139193919 -2.29583475557556 -0.46994194939494
 6 -7.91923806940694 -3.64189245674567 -0.40889816711671
 6 -6.52497638173817 -3.55771010801080 -0.07405913781378
 6 -6.24475707210721 -2.24646292759276  0.13334613881388
 6 -8.65367283468347 -4.90181302370237 -0.72205068346835
 6 -5.33584805510551 -4.23754763826383  0.22985585818582
 8 -5.25115395329533 -5.47831231463146  0.12326935763576
 6 -4.18080165956596 -3.27638342814281  0.57497736303630
 6 -3.57153778467847 -3.59350457175718  1.79630000290029
 8 -3.79137073767377 -3.12090882708271  2.93025570667067
 8 -2.71392258595860 -4.68974369676968  1.68922750365037
 6 -2.26247683558356 -5.12590681978198  2.99186412191219
 6  2.91571408310831 -0.57519531413141 -1.25332653305331
 6  4.21480356935694 -0.33778195449545 -0.49161931093109
 6  5.22756624102410  0.37976424182418 -0.87619739243924
 6  5.24345276827683  1.37176982628263 -2.13790795609561
 6  6.53092742554255  0.50364221442144 -0.05967245244524
 6  7.65458299619962 -0.15950629752975 -0.87123407390739
 6  9.05607748034804 -0.13377850825082 -0.02069388218822
 6  10.18865949044904 -0.48099517121712 -0.87911888238824
 6  10.09282598279828 -1.95554649074907 -1.40460392539254
 6  11.48235111201120 -0.36067984878488  0.03191406000600
 6  12.80408531623162 -0.39486353745375 -0.71649167206721
 6  13.96917638603860 -0.10829203200320  0.17118418591859
 6  15.35854197909791 -0.23217694679468 -0.49626786658666
 6  15.69993166206621 -1.73753138693869 -0.78493811151115
 6  16.44965907180718  0.47314167416742  0.40695520272027
 6  17.87400198959896  0.56221762016202 -0.14390020462046
 6  18.78594896439644  1.26421463846385  0.78118855185519
 6  20.20177884708471  1.29050938443844  0.27667243044304
 6  20.43263461726173  2.16879517671767 -0.99238023072307
 6  21.21011194199420  1.84133707000700  1.28845420882088
 1 -3.98751023552355  3.56290181158116  1.11898648554855
 1 -10.28918931163116  3.84326516151615 -0.45337072857286
 1 -10.53423671307131 -2.44010335113511 -0.84240089228923
 1 -2.59868632553255 -1.02229054295430  2.03184387558756
 1 -2.27545115031503  1.56743032563256  0.60440109050905
 1 -1.66225068256826  0.93032348524852  3.06500021352135
 1 -2.70123518351835  2.53216727422742  3.13457562296230
 1 -3.65941938463846  0.85063974797480  3.51505391819182
 1 -2.26612909780978 -1.76833679407941 -0.52608651785179
 1 -2.29564123662366 -0.22176492609261 -0.92599263886389
 1 -0.22838635603560  0.21903651755176  0.98343874297430
 1 -0.37240504250425 -1.49822433763376  1.06526048124812
 1 -5.68872764816482  6.75496414051405  0.34620032923292
 1 -5.37798478787879  6.33488685178518  1.97469376647665
 1 -4.47800175617562  5.60627179357936  0.69330250585059
 1 -9.68246029852985  6.02514866296630 -0.25247547574758
 1 -9.10836205210521  7.85543628252825  0.68238786058606
 1 -7.62689215501550  7.31239763926393  1.72170055555556
 1 -12.15948005310531  2.83929425542554 -2.53063606830683
 1 -13.23221289048905  2.20752464366437 -1.37385857735774
 1 -12.11043277437744  3.48850750545054 -0.81431267526753
 1 -12.13398817721772 -1.66355580068007 -0.87637259215922
 1 -13.46055477437744 -0.38952568936894 -1.40279580708071
 1 -13.28934528712871 -1.73633832003200 -3.14179406390639
 1 -12.43372693689369 -0.29538407600760 -3.97442093779378
 1 -11.31349762906291 -1.80253512061206 -3.50335895589559
 1 -8.84340394339434 -5.16543728662866 -1.79916318041804
 1 -8.08679804460446 -5.76790679487949 -0.36520613361336
 1 -9.60282016691669 -4.79161418271827 -0.10711253385339
 1 -3.54737543344334 -3.44682793349335 -0.31230650215021
 1 -1.93972213871387 -4.30346678637864  3.51896481178118
 1 -3.07671728032803 -5.72840445804581  3.46639947884788
 1 -1.27521563306331 -5.78950822402240  2.74618857175718
 1  2.92763206730673 -1.53487532343234 -1.54540850585058
 1  2.60141761936194  0.04114839443944 -2.07530068226823
 1  4.12301320692069 -0.97542975817582  0.41046426242624
 1  4.29931889538954  1.71937064746475 -2.52243061276128
 1  6.02309772147215  2.23737399629963 -1.99042551075107
 1  5.85283259085909  0.58104921242124 -2.84980371137114
 1  6.68635069796980  1.57457145714571  0.12166480928093
 1  6.46331045044504  0.01374333693369  0.99747946464647
 1  7.31574895959596 -1.27348658385839 -1.16688801240124
 1  8.06200863676368  0.38874208230823 -1.74736766036604
 1  9.06076812841284  0.95626351135114  0.48617624982498
 1  8.98760724942494 -0.68535404160416  0.86413427712771
 1  10.23375092649265  0.22695523322332 -1.56739162866287
 1  9.23904889038904 -2.16139411591159 -2.03454937973797
 1  11.23394595029503 -2.12338912281228 -1.86563080698070
 1  10.14269715571557 -2.91004294629463 -0.80247968766877
 1  11.30304798569857  0.56106833703370  0.46946843434343
 1  11.50827388078808 -1.08379434073407  0.89042966456646
 1  12.92357567646765 -1.53307146834683 -1.19109677727773
 1  13.02729648214821  0.18406909790979 -1.60392375367537
 1  13.96441787848785  1.03880643664366  0.55762310531053
 1  14.11444419751975 -0.70677028172817  0.92290880738074
 1  15.29440272877288  0.23347283228323 -1.51176553455345
 1  16.02842028492849 -2.40244053615362  0.23666221232123
 1  14.67416046674668 -2.22560493609361 -1.21739915501550
 1  16.59914954435444 -1.78632415731573 -1.59276074557456
 1  16.07801300200020  1.49379721342134  0.58217476177618
 1  16.39330377757776 -0.24289346444644  1.38203096429643
 1  18.37234817351735 -0.38279482688269 -0.46287962836284
 1  17.97178424292429  0.96053337223722 -1.13619719551955
 1  18.46804759735974  2.42338649634963  0.99384739003900
 1  18.92748990929093  0.85083926492649  1.74846484678468
 1  20.60412532523252  0.36356250445045 -0.25083801980198
 1  20.15913001960196  3.24447800970097 -0.86787038043804
 1  21.44395864796480  2.23513016581658 -1.34143550685069
 1  19.95456936133613  1.71832364316432 -1.94275124412441
 1  21.10609658485849  1.22898100720072  2.11595121232123
 1  22.30783248954895  1.86607783748375  1.06756172247225
 1  20.90902063196320  2.90177026032603  1.69342978347835

