%nproc=4
%Mem=3GB
# td=(NStates=1) iop(3/107=0140000000,3/108=0140000000) CAM-B3LYP/6-31G(d,p) 

TD

0 1
12 -7.15102979467947  0.71693007650765  0.05983235323532
 6 -4.87077589408941 -2.01438866946695  0.64829023142314
 6 -4.72704873547355  2.78123684158416  1.20376048124812
 6 -9.36992375687569  3.10398795179518 -0.43131560686069
 6 -9.53889998799880 -1.67019878557856 -0.92949975487549
 7 -5.07365439663966  0.39164525512551  0.78778660266027
 6 -4.30210245754575 -0.72258340154015  0.91960985568557
 6 -2.85982220282028 -0.48990738873887  1.23577924702470
 6 -3.07268049494949  1.03025172677268  1.72998927822782
 6 -4.40728096279628  1.53407805890589  1.24403879777978
 6 -2.94021020182018  1.15280810011001  3.30824613921392
 6 -1.97273300300030 -0.60359634883488  0.16112992329233
 6 -0.48625433463346 -0.65980922892289  0.52343572587259
 6  0.54569649284928 -0.74937155905591 -0.71967175727573
 8  0.27559777657766 -1.14518829652965 -1.82868026112611
 8  1.74895349374937 -0.57328726712671 -0.25729111671167
 7 -7.06449409280928  2.71676488638864  0.31374229832983
 6 -6.01081122492249  3.44396816421642  0.73357923402340
 6 -6.34629953835384  4.83109997359736  0.80903916261626
 6 -7.64823960926093  4.86208801400140  0.36417254365437
 6 -8.06486601410141  3.49984692349235  0.12910090869087
 6 -5.46397843174317  5.86900637433743  1.25983613881388
 6 -8.39102911091109  6.06624689428943  0.09051966446645
 6 -8.35156356635663  7.25916506620662  0.72954701400140
 7 -9.07846688778878  0.66980397479748 -0.57214378827883
 6 -9.79607709400940  1.87431075537554 -0.76602941644164
 6 -11.17880183288329  1.45875532003200 -1.23110797049705
 6 -11.28514800200020  0.14431197699770 -1.22298232653265
 6 -9.89469707330733 -0.38803899729973 -0.92817501880188
 6 -12.19445038273827  2.50015525692569 -1.40555000770077
 6 -12.39496328922892 -0.66020214401440 -1.82291162176218
 6 -12.27198910781078 -0.98727892019202 -3.32758340954095
 7 -7.27490045244524 -1.43707854355436 -0.12868554365437
 6 -8.27062138843884 -2.26626517201720 -0.60559213911391
 6 -7.82592463226323 -3.67118767016702 -0.54691499129913
 6 -6.53696148664867 -3.59062204430443 -0.04135621732173
 6 -6.20775450715071 -2.16870482628263  0.18487032243224
 6 -8.75948828832883 -4.79520561896190 -0.75968935203520
 6 -5.35813127602760 -4.42986655005501  0.22723769786979
 8 -5.19183017531753 -5.59600645764576  0.14456040464046
 6 -4.19281378397840 -3.34847229462946  0.69693801540154
 6 -3.57537171397140 -3.78497644034403  1.93059902840284
 8 -3.83086586998700 -3.26033339123912  2.99528288648865
 8 -2.76956230903090 -4.75914453295330  1.84333337083708
 6 -2.24247320432043 -5.27745295119512  3.09358675907591
 6  2.76615293569357 -0.67341563046305 -1.28726224342434
 6  4.14854573977398 -0.34919018691869 -0.63874643744374
 6  5.04745023632363  0.42311883988399 -1.00957383438344
 6  5.03078680428043  1.29312698799880 -2.26139027402740
 6  6.42353863256326  0.50188080408041 -0.25011553595360
 6  7.59471092369237 -0.16109465746575 -0.96200652935294
 6  8.94973268486849 -0.04371618771877 -0.12288839123912
 6  10.13265872647265 -0.39240090329033 -0.90461618161816
 6  10.14566784338434 -1.81540942084208 -1.54579154515452
 6  11.46339100290029 -0.29693458455846 -0.10595855835584
 6  12.75155289078908 -0.32714274777478 -0.90362786788679
 6  13.89320059185919 -0.04990070437044  0.15288169976998
 6  15.38342433343334 -0.35434451805181 -0.34552020452045
 6  15.61755802680268 -1.80833922222222 -0.63180500680068
 6  16.43755074777478  0.24577109440944  0.55691042574257
 6  17.74668225592559  0.59854358395840 -0.09513604060406
 6  18.78058847744774  1.23580165866587  0.74608786548655
 6  20.15695850025002  1.37084651715172  0.24953165916592
 6  20.27527037283728  2.23770107520752 -1.11534623052305
 6  21.22447751475147  1.92887458735874  1.27687162716272
 1 -4.01799216271627  3.63740699209921  1.75643173897390
 1 -10.15450757405741  3.87581985648565 -0.49104363056306
 1 -10.26108053215322 -2.28705424052405 -1.09236705610561
 1 -2.58185547274728 -0.99240944364436  2.07053354405441
 1 -2.32019548584858  1.79873193429343  1.22079572857286
 1 -1.90617370377038  0.80030913731373  3.57010734813481
 1 -2.86431354045405  2.18201742454245  3.58924694689469
 1 -3.62123492399240  0.43595875017502  3.53591527672767
 1 -2.13246836583658 -1.66388705950595 -0.36670467756776
 1 -2.21229759875988  0.03087070687069 -0.72466920152015
 1 -0.02755818451845  0.25722530983098  1.07521138413841
 1 -0.29814823512351 -1.62728349494949  1.03897735603560
 1 -5.56207038473847  6.47194470647065  0.42538236953695
 1 -5.65573704500450  6.18413129452945  2.21708372087209
 1 -4.28355319991999  5.38210247824782  1.27682841544154
 1 -9.24050431023102  6.05282866486649 -0.62029338203820
 1 -9.02084114781478  8.09858957995799  0.26972674837484
 1 -7.81377931003100  7.54599143554355  1.42102106240624
 1 -11.86056652965297  3.21184033113311 -2.14720055155516
 1 -13.20458775647565  2.10677942034203 -1.57686341454145
 1 -12.16123715641564  3.19493682778278 -0.41965240474047
 1 -12.44932689758976 -1.76074699749975 -1.40843434433443
 1 -13.24030632973297 -0.15059777027703 -1.53483923832383
 1 -13.03022822202220 -1.66899056115612 -3.60593155125513
 1 -11.84101450715071 -0.14415288658866 -3.98324730313031
 1 -11.47364220362036 -1.61032205940594 -3.29133741194119
 1 -9.29254387298730 -5.00803730453045 -1.73153921692169
 1 -8.10008439363936 -5.78235418871887 -0.78859881498150
 1 -9.69370354935494 -4.89530797919792  0.17035476677668
 1 -3.39723724222422 -3.48732533813381 -0.07261499959996
 1 -1.55444883248325 -4.79133134653465  3.58089980758076
 1 -3.08021445874587 -5.65767529242924  3.73122416011601
 1 -1.81240176067607 -6.17316810161016  2.72751611271127
 1  2.63863191799180 -1.71178780158016 -1.79427087578758
 1  2.75241168246825  0.08959704450445 -2.05764682218222
 1  4.30640112681268 -1.02547096089609  0.33444484468447
 1  3.93458877037704  1.53148869156916 -2.44488497419742
 1  5.45735266746675  2.30413083698370 -2.24042148054805
 1  5.63324289278928  0.77600879177918 -3.14403065996600
 1  6.74488267216722  1.53803378397840 -0.10715110121012
 1  6.44390226232623 -0.03389072577258  0.65224141964196
 1  7.51725384818482 -1.18905957895790 -1.01694645184518
 1  7.72224478297830  0.33027213021302 -1.87332815571557
 1  9.02199824412441  0.85054455195520  0.29420184828483
 1  8.94217733853385 -0.47424577727773  0.82811893529353
 1  10.37960259205921  0.30411655945595 -1.85213037103710
 1  9.07467707680768 -1.95058334183418 -2.03499188108811
 1  10.88357749834984 -2.04796819611961 -2.33874923302330
 1  10.11054325142514 -2.49956407110711 -0.74360175387539
 1  11.33239488108811  0.68603503690369  0.18127589838984
 1  11.46222381788179 -1.03363466106611  0.75419173927393
 1  12.93113106560656 -1.30845826512651 -1.05789806130613
 1  12.75055088498850  0.25792072807281 -1.74151848554855
 1  13.65509692999300  1.04544990829083  0.53133796249625
 1  13.82799110971097 -0.71976835573557  0.90926330033003
 1  15.49873027442744  0.44948834583458 -1.27230849964996
 1  15.44680847764777 -2.46394573577358  0.06255812031203
 1  14.92751439583958 -2.12438695869587 -1.51573294679468
 1  16.70737901750175 -1.90874177117712 -1.13824033733373
 1  16.06196947044704  1.17601593529353  1.05663157945795
 1  16.72815689348935 -0.20124640944094  1.27420591529153
 1  18.21142788048805 -0.27174368836884 -0.64110430603060
 1  17.53848115771577  1.17361625572557 -1.04872061566157
 1  18.28233729062906  2.19658092609261  1.07825977277728
 1  18.94544050655066  0.66667150665066  1.83329657515752
 1  20.35972580488049  0.43753475107511 -0.17534164196420
 1  19.72430924942494  2.99010978747875 -0.94417660236024
 1  21.19364316511651  2.09541068316832 -1.59941792299230
 1  19.57841623922392  1.80176046624662 -1.77053543794379
 1  21.30222407590759  1.28052369326933  2.10228389718972
 1  22.26842473527353  1.74913538423842  1.01858851245125
 1  20.99898997749775  2.93369948714871  1.37998513521352

