%nproc=4
%Mem=3GB
# td=(NStates=1) iop(3/107=0140000000,3/108=0140000000) CAM-B3LYP/6-31G(d,p) 

TD

0 1
12 -7.15375006670667  0.65891427492749  0.13110948094809
 6 -4.80789960646065 -2.01380861146115  0.46416181858186
 6 -4.75617164776478  2.82490120802080  1.13637374257426
 6 -9.42119888438844  3.09082663566357 -0.39405188048805
 6 -9.46438253625363 -1.71958372407241 -1.03716052095210
 7 -5.16054308550855  0.34185027562756  0.70594841884188
 6 -4.36431867916792 -0.73761490469047  0.78047594229423
 6 -2.94371059165917 -0.32672107010701  1.30731640074007
 6 -3.10795402230223  1.00176887848785  1.80140641994199
 6 -4.40389062376238  1.49209386048605  1.13496789068907
 6 -3.24994117491749  1.15605842514251  3.36116143074307
 6 -2.01458718841884 -0.62713870307031  0.20310412071207
 6 -0.49002471167117 -0.46967021502150  0.63008639093909
 6  0.45423734693469 -0.66395301720172 -0.57304709480948
 8  0.24755497229723 -1.08727250495049 -1.66747414051405
 8  1.84652325072507 -0.46204614301430 -0.22978836643664
 7 -7.07292493589359  2.59150236013601  0.32379330343034
 6 -6.02052219601960  3.31332509990999  0.73583946004600
 6 -6.31111602000200  4.73062992659266  0.79568782748275
 6 -7.62607739303930  4.87058886408641  0.30194632103210
 6 -8.04072359985999  3.48324526332633  0.08024602320232
 6 -5.39828186208621  5.76310578427843  1.20294044924492
 6 -8.45970597859786  6.05741601120112  0.15284589708971
 6 -8.23955236523652  7.31876102580258  0.62597665696570
 7 -9.09653869496950  0.69871686608661 -0.44287086098610
 6 -9.85984347064706  1.82009533383338 -0.70035284878488
 6 -11.10152410511051  1.55032447694769 -1.28992385208521
 6 -11.11620110731073  0.13943148894890 -1.29066909520952
 6 -9.93947155075507 -0.32125231863186 -0.92582478377838
 6 -12.27955889358936  2.45787102850285 -1.47133658635864
 6 -12.35953974687469 -0.72136826062606 -1.77647697829783
 6 -12.24450635953595 -0.92470266256626 -3.34757540874087
 7 -7.23492645504550 -1.39025386108611 -0.19449212431243
 6 -8.23600792709271 -2.29495804130413 -0.55532711261126
 6 -7.84155619541954 -3.64230478187819 -0.41815211501150
 6 -6.47470526102610 -3.55184816691669 -0.02835491719172
 6 -6.17047077877788 -2.26262421822182  0.08507034243424
 6 -8.51740407990799 -4.87517361576158 -0.82545592869287
 6 -5.37058252115211 -4.40774433783378  0.26533150725072
 8 -5.25592658495850 -5.62785964296430  0.41430737933793
 6 -4.21064556715672 -3.38640608800880  0.54465278687869
 6 -3.51421559835984 -3.75413335603560  1.83808977747775
 8 -3.67881066446645 -3.16240359825983  2.92877623582358
 8 -2.71892724552455 -4.75851446994700  1.71994103160316
 6 -2.20343930093009 -5.32149735563556  2.96664406480648
 6  2.80544686508651 -0.67970625952595 -1.25652917011701
 6  4.09848073327333 -0.41127639553955 -0.55969853265327
 6  5.09774526582658  0.43936046404640 -0.94969784678468
 6  4.99853357895790  1.40618829412941 -2.02606674167417
 6  6.34212049074907  0.42797341334133 -0.17193771817182
 6  7.64173562616262 -0.03204175217522 -1.00313064176418
 6  8.87586529812981  0.04926311021102 -0.09694579697970
 6  10.12212767336734 -0.39919158235824 -0.85299101910191
 6  10.13417669426943 -1.86877475737574 -1.35293225922592
 6  11.46579124292429 -0.10424531563156 -0.05081304380438
 6  12.80886862236224 -0.36777681118112 -0.75447295239524
 6  13.96568784058406  0.00975526122612  0.10532694429443
 6  15.30041603260326 -0.23722280588059 -0.47635328782878
 6  15.65932220322032 -1.69339772807281 -0.78448027432743
 6  16.38127512021202  0.28305482278228  0.53021775647565
 6  17.78653624132413  0.32532626222622 -0.09821634863486
 6  18.76515693429343  1.14768284678468  0.77492074877488
 6  20.16860966536654  1.22923235573557  0.07628433443344
 6  20.20583342914291  2.12394970007001 -1.15261995789579
 6  21.17027209420942  1.81061276117612  1.16036997699770
 1 -4.02266262976298  3.50195344674467  1.47544364016402
 1 -10.19369149244925  3.90302257675768 -0.56668119431943
 1 -10.14373879797980 -2.44858039313931 -1.32256007540754
 1 -2.65928321552155 -1.12213241594159  2.13057954865487
 1 -2.33633710001000  1.88431049214922  1.20247389638964
 1 -2.42190527692769  0.81219032543254  3.79115945334533
 1 -3.46515362446245  2.27964718751875  3.50689871207121
 1 -3.91134393489349  0.46261141544154  3.69758144334433
 1 -1.89727484648465 -1.64797546834683 -0.43505151225123
 1 -2.35690205920592  0.05176279607961 -0.61254798939894
 1  0.00455502680268  0.59261884918492  1.17177104010401
 1 -0.32864128442844 -1.09834060066007  1.36020947924792
 1 -5.61132531023102  7.01483899589959  0.99828966026603
 1 -5.43236470777078  5.90895377677768  2.38104011651165
 1 -4.32291713631363  5.58889315731573  0.85198593119312
 1 -9.32497275707571  6.15244862686269 -0.44340569326933
 1 -9.10855991969197  8.19566928792879  0.39304908060806
 1 -7.42976090819082  7.51894873127313  1.30788974927493
 1 -11.80108058105811  3.24281342844284 -2.32713854535454
 1 -13.03878117581758  1.82007074947495 -2.13017874607461
 1 -12.63122415511551  3.02391972607261 -0.58709914941494
 1 -12.44493645854585 -1.77444836763676 -1.34628812971297
 1 -13.28849114821482 -0.39495220572057 -1.28885463986399
 1 -13.11040623982398 -1.66775043714371 -3.59627058515852
 1 -12.51169157485749  0.03887541624162 -4.05502448084809
 1 -11.18180301970197 -1.03842486968697 -3.84459273747375
 1 -8.88867348594859 -4.84354085488549 -1.82784884788479
 1 -7.98285267046705 -5.86947290059006 -0.61340129522952
 1 -9.44338851785179 -4.85668411681168 -0.24087635633563
 1 -3.39310682918292 -3.46737334293429 -0.18903664176418
 1 -1.75101848944895 -4.59171138453845  3.67062878047805
 1 -3.07476391369137 -5.79685921082108  3.58295933363336
 1 -1.39524004450445 -5.95371615641564  2.51956531763176
 1  2.74533258805881 -1.62805942874287 -1.89997144584458
 1  2.71343778507851  0.22692077687769 -1.86632769026903
 1  4.25042552925292 -1.08254666846685  0.30602200240024
 1  4.02162747424742  1.16334187688769 -2.61925241094109
 1  4.94203113531353  2.52942336623662 -1.72468990739074
 1  5.86306587508751  1.27369856075608 -2.78225448234823
 1  6.59846803070307  1.41642162276228  0.12466208010801
 1  6.33293116521652 -0.25546288298830  0.63724992049205
 1  7.18974109690969 -0.94587526052605 -1.45104986218622
 1  7.92541510001000  0.86049515251525 -1.94361518441844
 1  9.04317036133613  0.94702419991999  0.36918934703470
 1  8.90780390119012 -0.75505385808581  0.80568669206921
 1  10.08397302910291  0.38299444724472 -1.85963112111211
 1  9.33682329142914 -2.09378766226623 -2.02527090899090
 1  11.00994013461346 -2.10827422672267 -2.09661501960196
 1  10.16944914201420 -2.60966508120812 -0.47381477517752
 1  11.37328897049705  1.08796522992299  0.29484725552555
 1  11.34124171967197 -0.73587488508851  0.87566388648865
 1  12.92619057155716 -1.41946936623662 -1.13421569306931
 1  12.69676550645065  0.15997093309331 -1.74107844154415
 1  13.75738715901590  0.94965032833283  0.40986581528153
 1  13.89169748034804 -0.55739211811181  0.92839521352135
 1  15.44808520992099  0.13709710671067 -1.47321859065907
 1  15.59919371617162 -2.40805014621462  0.06659852435244
 1  15.04320596499650 -1.93528804880488 -1.63827520102010
 1  16.42383066266627 -1.59342023902390 -1.35539205250525
 1  16.21461473497349  1.26029436313631  0.78079399569957
 1  16.42047612541254 -0.30731701650165  1.44450294499450
 1  18.02111884958496 -0.82877939193919 -0.20749094469447
 1  17.81627893749375  0.68843773787379 -1.16832257585759
 1  18.32803186008601  2.17638890689069  0.83520546734674
 1  18.68073403590359  0.58938377787779  1.77204044954495
 1  20.38357819011901  0.09354035163516 -0.28673278107811
 1  19.88605542404240  3.13327410391039 -0.83798598329833
 1  21.08687248804880  2.16489763186319 -1.78039602080208
 1  19.52055045264526  1.84396468666867 -1.96222460686069
 1  21.18315216871687  1.10580622152215  1.94611828062806
 1  22.17880577337733  1.68612908360836  0.65409206280628
 1  20.81303138163817  2.86038215541554  1.53708084478448

