%nproc=4
%Mem=2GB
# td=(NStates=1) CAM-B3LYP/6-31G(d,p) 

TD

0 1
12 -7.15516608960896  0.68337708580858  0.10819850725073
 6 -4.88010262826283 -2.02004318271827  0.55220175287529
 6 -4.80061999089909  2.76985543284328  1.12683904880488
 6 -9.39560429592959  3.13253874937494 -0.43163602330233
 6 -9.52475278897890 -1.76059157015702 -0.87149357845785
 7 -5.11834525912591  0.42116193429343  0.71788220652065
 6 -4.37823752985299 -0.70178000000000  0.90062808600860
 6 -2.89296830223022 -0.44216364206421  1.39119947414741
 6 -3.01965540394039  1.11551421972197  1.74707543824382
 6 -4.41364835973597  1.49938068686869  1.12273930383038
 6 -2.84346942904290  1.34646693479348  3.25037644654465
 6 -1.94067752875288 -0.78819408080808  0.27692165046505
 6 -0.51496891949195 -0.42087643484348  0.70737486678668
 6  0.54111524872487 -0.62553606650665 -0.49303468396840
 8  0.20202144224422 -0.90724613221322 -1.64154048574857
 8  1.81259306980698 -0.34485188158816 -0.06083287218722
 7 -7.02923337123712  2.57784337413741  0.15738443394339
 6 -6.02501178017802  3.37486846264626  0.61573510711071
 6 -6.44001125422542  4.69553384278428  0.79092978017802
 6 -7.65577828482848  4.76475710721072  0.32329072037204
 6 -8.11324559615962  3.43675287058706 -0.11117857155716
 6 -5.45125308200820  5.80600306620662  1.05156991749175
 6 -8.52464026162616  5.93696473017302  0.19908689408941
 6 -8.57860175147515  7.05200131873187  0.89722597239724
 7 -9.12983525612561  0.69572243334333 -0.51312534623462
 6 -9.97601386108611  1.82212216531653 -0.71717804190419
 6 -11.16065516211621  1.47870620972097 -1.18363008250825
 6 -11.23064546844684  0.11056642074207 -1.34043275727573
 6 -9.96064174487449 -0.41695366966697 -0.91037605370537
 6 -12.27430625432543  2.46594716571657 -1.49398617341734
 6 -12.30749529582958 -0.70166757685769 -1.82536334483448
 6 -12.10447793619362 -0.96121853305331 -3.35078019661966
 7 -7.26377584588459 -1.39936955055506 -0.25290996799680
 6 -8.27097733753375 -2.22098727082708 -0.61076603180318
 6 -7.80129627522752 -3.55559382688269 -0.65229250655066
 6 -6.55265915001500 -3.58768310531053 -0.13432516441644
 6 -6.25512810921092 -2.25042332363236  0.09935273947395
 6 -8.64519198659866 -4.83742658505851 -0.89723820222022
 6 -5.37124159445945 -4.45718960246025  0.33490636323632
 8 -5.21691052895290 -5.57426190959096  0.26072310301030
 6 -4.25681926132613 -3.40026581638164  0.65048491379138
 6 -3.70339096999700 -3.67462268356836  1.95465583848385
 8 -3.84142574317432 -3.26318305450545  3.17066974807481
 8 -2.77099829352935 -4.66932165456546  1.85767434833483
 6 -2.24992558045805 -5.38635286438644  3.01980691619162
 6  2.79727223892389 -0.50135793039304 -1.14822602300230
 6  4.15926801580158 -0.30819899619962 -0.53896404540454
 6  5.17695117951795  0.38605487088709 -1.04144391709171
 6  5.12822124512451  1.14017666696670 -2.22696686198620
 6  6.43776810961096  0.49390124032403 -0.28382486768677
 6  7.51963950185019 -0.25518586548655 -1.06686363686369
 6  8.83697557015702 -0.21806693709371 -0.15865767856786
 6  10.08998962346235 -0.60807787948795 -0.79060003050305
 6  10.17750445064506 -2.00623155925593 -1.33016648164816
 6  11.49639251615162 -0.27354113491349 -0.05558468986899
 6  12.73834874257426 -0.47350140124012 -0.77051707460746
 6  13.97802727112711  0.05189398659866  0.10443751125113
 6  15.31369749464947 -0.10622435153515 -0.58753699349935
 6  15.69642131103110 -1.67141477527753 -0.95418503620362
 6  16.39193329922992  0.51127548754875  0.31200570777078
 6  17.83865845524552  0.69446084448445 -0.32476829142914
 6  18.77663803330333  1.36930514751475  0.78028846184618
 6  20.29918858805880  1.20901123462346  0.27282204540454
 6  20.56412776657666  2.08666696389639 -1.00633162586259
 6  21.22862379317932  1.78878181448145  1.31218658205821
 1 -4.24331581608161  3.60256577797780  1.59501408830883
 1 -10.11962235493549  3.87592842784278 -0.66718210971097
 1 -10.42542583198320 -2.43681302210221 -0.95661231343134
 1 -2.70316677357736 -1.06448476237624  2.28894958615862
 1 -2.19482308750875  1.64546812941294  1.27375802620262
 1 -1.63424788228823  1.07701815471547  3.37819153265326
 1 -2.85690075007501  2.38757281478148  3.40572273767377
 1 -3.51756519921992  0.69851453545355  3.89620203300330
 1 -2.23377586248625 -1.86454641504150  0.18028411921192
 1 -2.36548822132213 -0.08267101670167 -0.77530757035704
 1 -0.34490800820082  0.54896951085109  1.27422782188219
 1 -0.21730953295329 -1.04751926712671  1.56277023222322
 1 -5.77363613901390  6.85820446454645  0.76570227942794
 1 -5.32014900430043  5.81707507060706  2.25473177027703
 1 -4.30376433243324  5.38430959735974  0.67190036563656
 1 -9.45806785928593  5.82074822292229 -0.39726995519552
 1 -9.44366558245824  7.73280401930193  0.80452007380738
 1 -7.47869733553355  7.40560696019602  1.47177556305630
 1 -11.91547565266527  3.17436776277628 -2.24005701040104
 1 -13.18187785698570  1.91059495069507 -1.96503769526953
 1 -12.80859259035904  2.99303795849585 -0.64401564556456
 1 -12.16943172157216 -1.54022346744674 -1.19434438933893
 1 -13.44091281018102 -0.28855559235924 -1.57535306280628
 1 -12.89805615821582 -1.70672535873587 -3.46655654015402
 1 -11.92452601680168 -0.02292683028303 -3.92601609730973
 1 -11.09401568086809 -1.34789965706571 -3.51478009800980
 1 -9.03397300030003 -4.78697944084409 -2.02263552765277
 1 -8.02586195099510 -5.83914391859186 -0.81397101010101
 1 -9.42098198309831 -4.87711273257326 -0.16147797039704
 1 -3.35652634853485 -3.59835308600860  0.03071780028003
 1 -1.50091825832583 -4.79452589228923  3.58031094639464
 1 -2.94499410801080 -5.70363198079808  3.80554339323932
 1 -1.74159227072707 -6.29049832303230  2.66672062496250
 1  2.69453875797580 -1.47405924182418 -1.59020298529853
 1  2.38263574117412  0.08263254285429 -1.88335148734873
 1  4.37251815741574 -0.84126634183418  0.43901711771177
 1  4.01231019451945  1.27425613601360 -2.45081345104510
 1  5.59624503620362  2.11892215111511 -2.18751521972197
 1  5.64495180278028  0.70773188068807 -3.03284201520152
 1  6.74495655855586  1.60807480748075 -0.20433779097910
 1  6.38579269866987 -0.09580761816182  0.53273298999900
 1  7.10254763946395 -1.18595783098310 -1.38736005960596
 1  7.99205164106411  0.41620482858286 -1.92024494809481
 1  9.06283833543354  0.74542242724272  0.33844147634763
 1  8.62886137483748 -1.12523803000300  0.64981284498450
 1  10.15206275767577 -0.02265972827283 -1.67720260976098
 1  9.58418340384038 -2.19729770627063 -2.00855678047805
 1  11.08511106680668 -2.34393117701770 -1.86140038393839
 1  10.16594948094810 -2.69935187718772 -0.43330276997700
 1  11.34003168406841  0.92021425162516  0.28084957245725
 1  11.54027708110811 -0.95220118141814  0.79855047664766
 1  12.88212153105311 -1.65024318551855 -0.89887755535554
 1  12.77745149764976  0.16721741274127 -1.69675303660366
 1  13.99600103680368  1.15516807280728  0.24834217721772
 1  14.10762351545154 -0.25307491219122  1.21254777127713
 1  15.29685297379738  0.34704418941894 -1.59257361536154
 1  15.75862330523052 -2.24646493859386 -0.09813126702670
 1  14.90925397609761 -1.81266364196420 -1.80296771187119
 1  16.64183381278128 -1.62843836873687 -1.39150061956196
 1  16.05106030673067  1.50108794249425  0.60897744204420
 1  16.54145859305930 -0.10703987908791  1.32139490069007
 1  18.16642758145815 -0.25723227062706 -0.82197553795379
 1  17.58158522302231  1.52862018091809 -1.13163673947395
 1  18.64923571617162  2.43644780248025  0.81016902220222
 1  18.78818597889789  0.67220140114011  1.63396339663966
 1  20.41112602530253  0.12067821602160  0.07455451945195
 1  20.03197730433043  3.07129069096910 -1.01018461186119
 1  21.53091734383439  2.23808046084608 -1.14732609590959
 1  19.96423032743274  1.69245105590559 -1.83200016901690
 1  21.18140411561156  1.35186329542954  2.30449006620662
 1  22.28892059835983  1.59343057275728  1.20787575387539
 1  21.11362109200920  2.90539062236224  1.52974341484148

