%nproc=4
%Mem=2GB
# td=(NStates=1) CAM-B3LYP/6-31G(d,p) 

TD

0 1
12 -7.15090566356636  0.61527027512751  0.10563825122512
 6 -4.81696631463146 -1.91645282368237  0.41358789148915
 6 -4.78737866676668  2.85531397869787  1.09325569046905
 6 -9.40301503700370  3.15038053355336 -0.50878373807381
 6 -9.45967628132813 -1.68652416341634 -0.87617404650465
 7 -5.07699112371237  0.48999881798180  0.78379879817982
 6 -4.34272397849785 -0.63165298729873  0.80256828002800
 6 -2.99661866726673 -0.39911933763376  1.34417477167717
 6 -3.00269370777078  1.14680734903490  1.73446417711771
 6 -4.42336933183318  1.49108985778578  1.20875790569057
 6 -2.83002808490849  1.28959124722472  3.23701511041104
 6 -1.96812027302730 -0.76816207760776  0.20462442074207
 6 -0.48198562116212 -0.53758810601060  0.74166829612961
 6  0.51285242244224 -0.78444195709571 -0.47555293579358
 8  0.23918515861586 -1.15844125172517 -1.49162549424942
 8  1.80270208070807 -0.49320671707171 -0.03254004290429
 7 -7.01502195009501  2.52709829962996  0.32698139363936
 6 -5.98419769876988  3.43789476527653  0.72445597919792
 6 -6.37508476157616  4.71105539493949  0.71493218041804
 6 -7.70768347534753  4.79592022352235  0.35258364966497
 6 -8.14722899449945  3.43706290159016  0.13826637293729
 6 -5.41455941264126  5.98924139003900  1.06406116661666
 6 -8.61849964756476  5.98351938563856  0.21460844624462
 6 -8.54363825512551  7.10781690029003  0.88352460226023
 7 -9.16485875847585  0.66883974507451 -0.53054708840884
 6 -9.83084934463446  1.74785473857386 -0.71668799289929
 6 -11.19295839243924  1.50804914401440 -1.31448316781678
 6 -11.26284868876888  0.08149351345134 -1.35891460546055
 6 -9.93584926562656 -0.39897187148715 -0.92910792689269
 6 -12.29234805850585  2.44559513051305 -1.56514328912891
 6 -12.38531307760776 -0.86181359145915 -1.77756856535654
 6 -12.27560504890489 -1.18149056025603 -3.27974309290929
 7 -7.27617708600860 -1.38316793039304 -0.23867854485449
 6 -8.29851009080908 -2.26837200930093 -0.58036299149915
 6 -7.84478062366237 -3.64235250275028 -0.48346562386239
 6 -6.57461134523452 -3.56584092109211 -0.14444617651765
 6 -6.28198079447945 -2.16534481578158  0.11838464266427
 6 -8.64913238063806 -4.88630147254726 -0.82118059645965
 6 -5.36263073337334 -4.39281316481648  0.12564543714371
 8 -5.07909674757476 -5.56891137453745  0.22024905560556
 6 -4.17649122852285 -3.25190097989799  0.48558842414241
 6 -3.55172580348035 -3.58566378767877  1.87389776267627
 8 -3.81454305490549 -3.10109684588459  2.87081976307631
 8 -2.61903309700970 -4.57256197859786  1.75927450835083
 6 -2.01635222312231 -5.14063829292929  2.95941087658766
 6  2.77278979067907 -0.70581837643764 -1.08922012241224
 6  4.14388647764776 -0.42920109640964 -0.43821397039704
 6  5.11231471587159  0.38380464586459 -0.81828160086009
 6  5.00521894489449  1.19721237053705 -2.05231939723972
 6  6.38912324512451  0.43356520672067 -0.08629511471147
 6  7.63663120102010  0.04026367946795 -0.96110306080608
 6  8.90122199479948  0.09156402600260 -0.09328114091409
 6  10.24009463396339 -0.48764583628363 -0.89170014051405
 6  10.12886958715871 -1.85133606970697 -1.60078354335434
 6  11.43004588148815 -0.24927870867087  0.02430329892989
 6  12.75228013571357 -0.44566861796180 -0.58599862276228
 6  13.91412088048805 -0.10740194299430  0.17893496099610
 6  15.23728985388539 -0.20552428152815 -0.62084032383238
 6  15.65028669756976 -1.67722535633563 -0.90364998269827
 6  16.47589169506951  0.38212257225723  0.36391089828983
 6  17.74484907430743  0.61543294169417 -0.32150796539654
 6  18.77281765126513  1.20031824882488  0.70804123712371
 6  20.21017968716871  1.32475280878088  0.13351811501150
 6  20.39879123292329  2.04281257845785 -1.16100709340934
 6  21.21103203400340  1.80117305360536  1.26647201060106
 1 -4.00363184768477  3.62351787318732  1.19030361726173
 1 -10.09122951565156  4.10718155315532 -0.57729312081208
 1 -10.16624991439144 -2.53396273707371 -1.12670932313231
 1 -2.75328178507851 -1.07611592549255  2.22680337153715
 1 -2.34197780298030  1.73812739533953  0.98608925932593
 1 -1.79483394089409  1.08745919881988  3.49874358785879
 1 -3.31811687168717  2.39626368386839  3.51857402280228
 1 -3.37789123182318  0.64855953995400  3.69860227302730
 1 -2.19350183508351 -1.71176113651365 -0.22276618581858
 1 -2.14631630413041 -0.01532428202820 -0.64066410601060
 1 -0.27187070447045  0.44132874677468  1.01988238733873
 1 -0.26248405040504 -1.26291080628063  1.57506146134613
 1 -5.62699147454746  6.90060870497050  0.34377008620862
 1 -5.49553654305431  6.46089945304530  2.14854115121512
 1 -4.22846680268027  5.66153732013201  1.12042521812181
 1 -9.42951500400040  6.08909505760576 -0.36029625782578
 1 -9.26324754065407  7.93287402630263  0.93221284308431
 1 -7.83256272207221  7.31676807630763  1.65982436793679
 1 -12.06781088618862  3.12553287928793 -2.57295029972997
 1 -13.28767843704370  1.84404829602960 -1.91624281578158
 1 -12.65656738783878  3.23423207790779 -0.76716796079608
 1 -12.31038581698170 -1.76407585268527 -1.08960391529153
 1 -13.34595331423142 -0.34445118191819 -1.66011153865387
 1 -13.18030438303830 -1.76181086728673 -3.53591347584759
 1 -12.17212077627763 -0.31593613121312 -3.91160465616562
 1 -11.47369364866487 -1.99221408850885 -3.47002562256226
 1 -8.90407001000100 -4.90512125502550 -2.00860412451245
 1 -8.09533889868987 -5.68738874307431 -0.43920353335333
 1 -9.70794067896790 -4.98636365766577 -0.29571139373937
 1 -3.40322101800180 -3.34766801750175 -0.26519179067907
 1 -1.86479464596460 -4.16668310801080  3.63932684798480
 1 -2.78072768136814 -5.80193181078108  3.36030886978698
 1 -1.13010112161216 -5.64758403160316  2.67796174907491
 1  2.58252755685569 -1.64816665256526 -1.44344830983098
 1  2.77376485408541 -0.02613833423342 -1.89918307050705
 1  4.29152005760576 -1.13718593379338  0.22763597959796
 1  4.04896385988599  1.11642035243524 -2.51197956765677
 1  5.28179359105911  2.18852911181118 -1.85093156135614
 1  5.52096940454045  0.57472858035804 -2.91746047704770
 1  6.51500356325633  1.47161116111611  0.30575321812181
 1  6.40657477687769 -0.23403144054405  0.78561827852785
 1  7.61164854955496 -0.98428766396640 -1.34871619521952
 1  7.77153958985899  0.54208741684168 -1.92023494709471
 1  9.02012406400640  1.23238112311231  0.28733636583658
 1  8.74537302600260 -0.67561306750675  0.82217008070807
 1  10.34917246864686  0.18173071077108 -1.68368325782578
 1  9.27426241174117 -1.98997697419742 -2.39436536133613
 1  11.07930048574858 -2.35663244714471 -1.75357960186019
 1  9.73747663366337 -2.66609855185519 -0.80112955265527
 1  11.32143982488249  0.93057528772877  0.31051253875388
 1  11.43605665906591 -1.14402036333633  0.92572319391939
 1  13.01762508140814 -1.45393355455546 -0.75064273187319
 1  12.66672042454245  0.15956664766477 -1.57236059735974
 1  13.60326176287629  0.92855541154115  0.52276961996200
 1  14.29966271937194 -0.71800140484048  0.93273979047905
 1  15.47172046054605  0.28667815281528 -1.64830918891889
 1  15.71944938783878 -2.33275356745675  0.00975952205221
 1  14.88779182988299 -2.08578095369537 -1.63993140824082
 1  16.82891252065207 -1.78577410231023 -1.35041651115112
 1  16.20954615531553  1.17964579827983  0.81014755905591
 1  16.65771021822182 -0.35580475557556  1.44476723792379
 1  18.11200213891389 -0.45682222962296 -0.73980732113211
 1  17.62226929142914  1.15691301020102 -1.25573914971497
 1  18.26384717731773  2.01561571927193  0.91872987828783
 1  18.88115527582758  0.71768594959496  1.73471347164716
 1  20.42921783448345  0.33214936313631 -0.03534647064706
 1  19.97782188878888  2.99880344224422 -0.99088268166817
 1  21.49840409250925  2.15718237103710 -1.51868323162316
 1  19.78531243564357  1.72293410421042 -1.89640660966097
 1  21.13181915711571  1.08081619071907  2.17055667286729
 1  22.24466617291729  1.69933116281628  1.16709167546755
 1  20.91477120702070  2.74844492779278  1.77435787628763

