%nproc=4
%Mem=2GB
# td=(NStates=1) CAM-B3LYP/6-31G(d,p) 

TD

0 1
<<<<<<< HEAD
12 -7.12768334133413  0.59885863396340 -0.00263257585759
 6 -4.83704832283228 -1.89850102850285  0.52677921062106
 6 -4.86478640754075  2.80284873217322  1.14640100500050
 6 -9.44230896639664  3.10322581808181 -0.45001786148615
 6 -9.49360967466747 -1.72202771377138 -0.89972640174017
 7 -5.06263968856886  0.49235905400540  0.73393381168117
 6 -4.27772747884788 -0.70582040404040  0.74785280848085
 6 -2.87537654305431 -0.39792921862186  1.22089244344434
 6 -3.02862630103010  1.11188385668567  1.71166189688969
 6 -4.34661165606561  1.53503425222522  1.18069509940994
 6 -2.97775285738574  1.26952924102410  3.19156056495650
 6 -1.90015347634763 -0.68493375477548  0.16544050235024
 6 -0.48871629422942 -0.36916126332633  0.62648677797780
 6  0.55211634883488 -0.46261977487749 -0.49090447094709
 8  0.20199143924392 -0.79239464706471 -1.63820015171517
 8  1.87335914641464 -0.41927932433243 -0.16768355725573
 7 -7.12396284418442  2.66890248004801  0.22533122862286
 6 -6.16718599759976  3.37382835863586  0.73311684528453
 6 -6.49354660776078  4.77302159155916  0.82663335053505
 6 -7.82994570157016  4.85481611311131  0.32231062236224
 6 -8.23332760436044  3.55511470677068  0.05126767306731
 6 -5.72742069876988  5.84806727262726  1.24868962946295
 6 -8.66046384398440  6.05768680238024  0.11376836223622
 6 -8.54637852915292  7.19438555715572  0.86291254105411
 7 -9.11266353895390  0.67117997909791 -0.58863289698970
 6 -9.94302056175617  1.78853880698070 -0.67836416051605
 6 -11.24735383198320  1.45465380448045 -1.09449116861686
 6 -11.19176158005800  0.12271763586359 -1.27152586658666
 6 -9.89727540824082 -0.42821479577958 -0.95653066916692
 6 -12.50142896659666  2.39836040704070 -1.32136891169117
 6 -12.37158170447045 -0.89220663076308 -1.68363917241724
 6 -12.31844933333333 -1.24155656685669 -3.14934005260526
 7 -7.19251872017202 -1.46423603720372 -0.18806348334833
 6 -8.19673991379138 -2.25072024412441 -0.61098605380538
 6 -7.83164931053105 -3.60188845634563 -0.52335961326133
 6 -6.50232411651165 -3.54741907890789 -0.04819655155516
 6 -6.18468106450645 -2.15438371967197  0.08994179837984
 6 -8.54848231563156 -4.78599144154415 -0.75544402280228
 6 -5.25893036333633 -4.33616750025003  0.25245811841184
 8 -5.02483132103210 -5.60697518091809  0.19914694539454
 6 -4.07459103850385 -3.27927371717172  0.59144901020102
 6 -3.44052468336834 -3.61135635693569  1.92437281018102
 8 -3.69239083968397 -2.98288502470247  3.01751443254325
 8 -2.55583677737774 -4.61037575997600  1.71229981088109
 6 -1.95372596049605 -5.11638586768677  2.93031796729673
 6  2.79838234993499 -0.70122791739174 -1.22482368276828
 6  4.15326741574157 -0.40532870917092 -0.54730487948795
 6  5.16820030443044  0.32797906330633 -1.08884865756576
 6  5.06872529552955  1.01011366066607 -2.38993315861586
 6  6.41335566836684  0.58452030223022 -0.36555304050405
 6  7.58420595849585 -0.21170151705171 -1.12763971447145
 6  8.97967984058406 -0.11651678207821 -0.38382019481948
 6  10.23958458295830 -0.70996806850685 -1.01543251375138
 6  10.19293599379938 -2.12969390549055 -1.29265273027303
 6  11.48075095199520 -0.38135191599160 -0.13229236063606
 6  12.78475338303830 -0.60044409550955 -0.72803282618262
 6  13.95198466686669 -0.21194239703970  0.16655372287229
 6  15.29708583348335 -0.21928565766577 -0.48632687248725
 6  15.61460312921292 -1.66778441224122 -1.00614023172317
 6  16.36749085498550  0.34051841184118  0.58043255045505
 6  17.80028461786178  0.53963536193619 -0.04458027262726
 6  18.77105747524752  1.17131534853485  0.89940037303730
 6  20.17852652185218  1.34393472697270  0.26337110031003
 6  20.29050040384038  2.14045234243424 -0.94010500320032
 6  21.11484241504150  1.92571550785079  1.39323468686869
 1 -4.21597308180818  3.71120664206421  1.49149373627363
 1 -10.25871626432643  3.92838367336734 -0.35425081658166
 1 -10.06561985138514 -2.47421676247625 -1.33028968116812
 1 -2.71190764766477 -0.87095540944094  2.15155584678468
 1 -2.29205281048105  1.88753233583358  1.28862951335134
 1 -1.92287674517452  0.92645309820982  3.68463217671767
 1 -3.45687074707471  2.23217727522752  3.67385955135514
 1 -3.61263470617062  0.53575825982598  3.71794420722072
 1 -1.70919340424042 -1.70635059545955 -0.26085999519952
 1 -2.20056172867287  0.06556380678068 -0.60408044764477
 1 -0.42381589898990  0.78039265316532  1.11895229432943
 1 -0.19873767576758 -0.93926844204421  1.46986094129413
 1 -6.08934771017102  6.70675932003200  0.72646835603560
 1 -5.77620460986099  5.93357672077208  2.37688398549855
 1 -4.59529348534853  5.50094126052605  1.20079325492549
 1 -9.41476352885289  6.14190033813381 -0.61070129832983
 1 -9.26088730463046  7.99048978787879  0.87790741254125
 1 -7.80236970277028  7.42428882838284  1.71394978047805
 1 -12.68185229032903  3.13701402740274 -2.38502150685069
 1 -13.40328999819982  1.81053494469447 -1.00814200570057
 1 -12.19087081818182  3.34452310701070 -0.62487373137314
 1 -12.30702548094810 -1.74032347744774 -0.94164911981198
 1 -13.38594731363136 -0.45328206500650 -1.55873140064006
 1 -13.02119847244724 -1.94902958915892 -3.21385126962696
 1 -12.41164472867287 -0.40893543114311 -3.80036353205321
 1 -11.38890516981698 -1.90915578267827 -3.39409802980298
 1 -8.84729433243324 -4.86313705660566 -1.77520078417842
 1 -8.06009537433743 -5.86780678487849 -0.56785639863986
 1 -9.38012789768977 -4.84557957925793 -0.07204902750275
 1 -3.49627032293229 -3.31100435113511 -0.20708598009801
 1 -1.39299746624662 -4.34548098779878  3.46117903320332
 1 -2.81407101570157 -5.46420803840384  3.56281912081208
 1 -1.35454356585659 -5.88863813701370  2.54879883278328
 1  2.62449175327533 -1.74812664856486 -1.61229519451945
 1  2.37481495909591 -0.06159187958796 -1.97599075127513
 1  4.18020892649265 -0.71168338353835  0.49530274627463
 1  3.99716868036804  0.84528323872387 -2.70192856255626
 1  5.35380079177918  2.21266152505251 -2.50929739793979
 1  5.65070237783778  0.57221832933293 -3.36672540354035
 1  6.67954001690169  1.82363636363636 -0.46471382858286
 1  6.57201132053205  0.08835079767977  0.69098881558156
 1  7.21547893259326 -1.26562579777978 -1.23070439403940
 1  7.59824226012601  0.40369357745775 -2.15747867146715
 1  9.25413746534653  0.95153303830383 -0.39098146594659
 1  8.84357284598460 -0.60741624782478  0.59591745544554
 1  10.24420197159716 -0.14347180948095 -1.94775966546655
 1  9.22008699419942 -2.30257823432343 -1.88349427422742
 1  10.99576213191319 -2.39463624752475 -1.75078932283228
 1  10.12017490349035 -2.88098004000400 -0.46020546024602
 1  11.36130381128113  0.64221645184518  0.33599508700870
 1  11.43624667806781 -1.14215017631763  0.91060168176818
 1  12.93825714461446 -1.57896605780578 -1.02003967156716
 1  12.94873862636264 -0.00659996899690 -1.76604996629663
 1  13.95879731643164  0.69648220422042  0.71582892589259
 1  14.02061481458146 -0.88283788848885  1.07119363586359
 1  15.26552984148415  0.38145763076308 -1.44725908390839
 1  15.60403784668467 -2.47478777087709 -0.34042549644965
 1  14.95833888458846 -1.79693206880688 -1.83128054315432
 1  16.70407003640364 -1.73864938983898 -1.51241271077108
 1  16.11046624732473  1.34282211591159  0.92037858215822
 1  16.45297974517452 -0.16196537163716  1.45182794399440
 1  18.32555349404941 -0.22618916631663 -0.65905924632463
 1  17.66906397089709  1.37628494739474 -0.87754132993299
 1  18.63781457405740  2.23095725342534  1.19846785208521
 1  18.83393055335534  0.71295547654765  2.03222322262226
 1  20.60663557625763  0.28512466066607  0.29165622962296
 1  19.17624173077308  3.01046460836084 -0.79486307970797
 1  21.43339759185919  2.41145779857986 -1.00957232053205
 1  20.00748465286529  1.54361617241724 -1.73763073207321
 1  20.96707268246825  1.25632374147415  2.27543716091609
 1  22.23123482978298  1.83581481118112  0.94995996229623
 1  20.83330306020602  2.89990007330733  1.50833127362736
=======
12 -7.10801137413741  0.57798654675468 -0.03580589318932
 6 -4.71672629062906 -1.94805598399840  0.42373890659066
 6 -4.83939386828683  2.81841028832883  1.10392675757576
 6 -9.36993172867287  3.07128262376238 -0.43178603830383
 6 -9.54845515921592 -1.78270378137814 -0.87982441154115
 7 -5.03216664126413  0.41036085418542  0.58215863416342
 6 -4.24125383148315 -0.70149997199720  0.72617064026403
 6 -2.91687069246925 -0.36340576627663  1.16656701090109
 6 -2.99784322272227  1.06194886318632  1.51788251895190
 6 -4.41684867976798  1.52069281808181  1.11769879977998
 6 -2.84038912101210  1.23323561166117  3.11719312821282
 6 -1.84568802980298 -0.68605386678668  0.11811576987699
 6 -0.45017243984398 -0.49351369856986  0.56898102740274
 6  0.58327946514651 -0.63218673157316 -0.62434781528153
 8  0.29783102320232 -1.02348775637564 -1.67250358205821
 8  1.79287109760976 -0.30669806620662 -0.15200198909891
 7 -6.94408485638564  2.54444003380338  0.33181187668767
 6 -6.02854213321332  3.38880985678568  0.72349588318832
 6 -6.48087534063406  4.69771406080608  0.85016570377038
 6 -7.81576428342834  4.77162779427943  0.41718010931093
 6 -8.12180645224523  3.33774296959696  0.10505305160516
 6 -5.48710666736674  5.73433589948995  1.18178293879388
 6 -8.67936573417342  5.94674570827083  0.25120210561056
 6 -8.48403229452945  7.18823494209421  0.89229547934793
 7 -9.12884515711571  0.62644550565057 -0.53571760546055
 6 -9.88459471917192  1.75794574767477 -0.61406773087309
 6 -11.22660175677568  1.47294563366337 -1.05703742324232
 6 -11.25264766866687  0.10164552865287 -1.29648836283628
 6 -9.96993267396740 -0.43347532183218 -0.95274029012901
 6 -12.22730155385539  2.45108567956796 -1.48413518831883
 6 -12.44568911521152 -0.80660807090709 -1.84209501800180
 6 -12.25516300470047 -0.92680509170917 -3.37492261086109
 7 -7.16449591789179 -1.44631424502450 -0.21219589658966
 6 -8.23684392419242 -2.15620079217922 -0.59097405260526
 6 -7.85873201880188 -3.62708097559756 -0.57361463876388
 6 -6.53620750485049 -3.62413675067507 -0.04383611551155
 6 -6.17352994939494 -2.18582686398640  0.10163296749675
 6 -8.70244771217122 -4.85676851925193 -0.80385886428643
 6 -5.40207467776778 -4.43575745924592  0.26936980958096
 8 -5.23244208210821 -5.63146763016302  0.25420245094509
 6 -4.15668924832483 -3.45524131393139  0.59868973427343
 6 -3.57825845674567 -3.65067028832883  1.96377675057506
 8 -3.72489409000900 -2.84555129132913  2.96440912201220
 8 -2.85032622632263 -4.68051277367737  1.98945752665267
 6 -2.32179276717672 -5.22351658075808  3.27466240174017
 6  2.69809232093209 -0.44723251785179 -1.27565876627663
 6  4.17274936393639 -0.31772994929493 -0.61028117711771
 6  5.11714519891989  0.55690195559556 -0.90002977567757
 6  5.03255167816782  1.31790443974397 -2.13897806310631
 6  6.36675100790079  0.45079692989299 -0.18727521272127
 6  7.58046558445845 -0.07158750565057 -0.97203415391539
 6  8.87698957155716 -0.01045617601760 -0.11867368016802
 6  10.19392001650165 -0.45260233193319 -0.91753272377238
 6  10.16163286348635 -1.98183912001200 -1.28057152215222
 6  11.53533641054105 -0.26822060286029  0.02194306290629
 6  12.82260716841684 -0.61728577967797 -0.68398842174217
 6  13.94635410381038 -0.16614781758176  0.18108517601760
 6  15.35233135803580 -0.25597932703270 -0.48279651945195
 6  15.63181485038504 -1.60962859665967 -0.83384300200020
 6  16.50298440434043  0.30463482348235  0.44058856605661
 6  17.83314790419042  0.57222862126213 -0.26881269586959
 6  18.75811618111811  1.13687190419042  0.73634406740674
 6  20.26671534073407  1.28045837933793  0.20062482568257
 6  20.29310066386639  2.04380267746775 -1.15967696039604
 6  21.11682261306131  1.97889082538254  1.23161852525253
 1 -4.21262274677468  3.62027754915492  1.57487207410741
 1 -10.17322771547155  3.77874870987099 -0.25857124862486
 1 -10.28252154155416 -2.61011035183518 -0.98336498869887
 1 -2.83455991289129 -1.10300861476148  2.18704939613961
 1 -2.35615922112211  1.72865644824482  0.96952760316032
 1 -1.91024548204820  1.01881233413341  3.46392010551055
 1 -2.98709376937694  2.14162822032203  3.32155432083208
 1 -3.43083652635264  0.41987667166717  3.61566397919792
 1 -2.03025551045105 -1.69850981138114 -0.19947385658566
 1 -2.00563223572357 -0.22852560216022 -0.79105914551455
 1 -0.36164968236824  0.49369398329833  0.94723512261226
 1 -0.08217601960196 -1.16769128432843  1.42955691089109
 1 -5.88819759515952  6.69461810591059  0.90459616881688
 1 -5.11305829522952  5.95268863196320  2.45095139223922
 1 -4.52335629162916  5.67878904530453  0.75966914251425
 1 -9.42683473597360  5.68516466456646 -0.55239546774677
 1 -9.11508272417242  8.03330406930693  0.70927054885489
 1 -7.69923938973897  7.33042944244425  1.77600598609861
 1 -11.89060316541654  3.16671699769977 -2.31779478417842
 1 -13.08145781498150  1.98299219041904 -1.85207639913991
 1 -12.29634136523652  3.24597325202520 -0.65122636663666
 1 -12.30021479987999 -1.97140658575858 -1.38846380128013
 1 -13.42416113501350 -0.49607634443444 -1.60528605610561
 1 -13.01293764636464 -1.66137082328233 -3.92235211971197
 1 -12.18226179037904  0.30888635103510 -3.74997849354936
 1 -11.13927020632063 -1.43210807790779 -3.52129074907491
 1 -8.93061266426643 -4.72296303920392 -1.89747301140114
 1 -7.92406177097710 -5.73271327552755 -0.83047266026603
 1 -9.48322820772077 -4.71159618091809 -0.19190101270127
 1 -3.33073376927693 -3.46726997769777  0.01320604910491
 1 -2.07074524102410 -4.43375981568157  3.95674859015902
 1 -3.04755436403640 -5.71483310091009  4.03942678157816
 1 -1.64355246674667 -5.90065933913391  2.86702065496550
 1  2.55052435653565 -1.49831166706671 -1.77629159415942
 1  2.49656713431343  0.28589286888689 -2.07666081828183
 1  4.02478338393839 -0.75542775797580  0.44062727872787
 1  3.82058102160216  1.18849756015602 -2.42911128082808
 1  5.13034844654465  2.44231449034903 -1.85661212941294
 1  5.81529883748375  1.04276538403840 -3.11431016201620
 1  6.67636969986999  1.50368436843684  0.02819546234623
 1  6.31305542494249 -0.21370940834083  0.81052076877688
 1  7.45291267596760 -1.03159239443944 -1.19959128272827
 1  7.75910834673467  0.56963017111711 -1.73703662726273
 1  8.89431148274827  1.08265615061506  0.16050368256826
 1  8.76122461116112 -0.69964547074707  0.63146100980098
 1  10.31450900230023  0.16664920262026 -1.78575346484648
 1  9.43924891039104 -2.22391036753675 -2.12263818861886
 1  11.09010156585659 -2.37899468336834 -1.57191143504350
 1  9.94344723072307 -2.50271221322132 -0.71170060976098
 1  11.54975265616562  0.62196442664266  0.40834232173217
 1  11.39443249664967 -0.92611857315732  0.67337795939594
 1  12.97842116101610 -1.45355351655165 -1.01041870947095
 1  12.96511026352635  0.04542523352335 -1.60148350965097
 1  13.80486192289229  0.83147570357036  0.57641498449845
 1  13.98067082018202 -1.01193079777978  0.94384090059006
 1  15.38013130163016  0.46343582858286 -1.37112147014701
 1  15.60179762266227 -2.29760005210521 -0.00774222812281
 1  15.02787583828383 -2.06560893649365 -1.59548696379638
 1  16.74931456085609 -1.60946647154715 -1.15032650215022
 1  16.14358955965596  1.27846568026803  0.83401994629463
 1  16.41982642984298 -0.29223839893989  1.33462622382238
 1  18.37205814451445 -0.40258680608061 -0.73342668306831
 1  17.81329839433944  1.31363868276828 -1.13695727152715
 1  18.38790958355835  1.99870402810281  1.24895290059006
 1  18.66248340864087  0.53613779477948  1.65536553685369
 1  20.69794470717072  0.34069021722172 -0.02785572157216
 1  19.96936104270427  3.09737329922992 -0.94474806820682
 1  21.18028228032803  2.34776142894289 -1.52319368266827
 1  19.69808371277128  1.56590840164016 -2.12186915591559
 1  21.29696567176718  1.39595770487049  2.27224684188419
 1  22.25284699099910  1.86063729342934  0.76851181748175
 1  20.99176890679068  2.93883396669667  1.35702614311431
>>>>>>> 8e03b5b5abfc0030b3aa597dc0de36371bfbd096

