%nproc=4
%Mem=2GB
# td=(NStates=1) CAM-B3LYP/6-31G(d,p) 

TD

0 1
12 -7.19265983898390  0.57892664076408  0.07304499189919
 6 -4.83725834383438 -1.90109128752875  0.54616114881488
 6 -4.80101002990299  2.84959340664066  1.11117748264826
 6 -9.40014474997500  3.07083257875788 -0.37593045274527
 6 -9.62497281098110 -1.77084259525953 -0.81066749584958
 7 -5.08699212381238  0.46004582268227  0.69550996929693
 6 -4.29927963406341 -0.66236605860586  0.79908793199320
 6 -2.84606361176118 -0.32309173487349  1.30457081128113
 6 -2.99478291669167  1.13427609590959  1.62645337603760
 6 -4.37118411331133  1.50268101690169  1.10581761166117
 6 -2.84578966106611  1.24557684578458  3.13419482838284
 6 -1.86720018101810 -0.54913017441744  0.08660261856186
 6 -0.39968739133913 -0.46992133933393  0.49109323862386
 6  0.58846998419842 -0.57030054295430 -0.64268964946495
 8  0.25427666776678 -0.89005441304130 -1.73140947264726
 8  1.87528933943394 -0.35222261866187 -0.25226201510151
 7 -7.05813626152615  2.56205179497950  0.20110880638064
 6 -6.04560383938394  3.39852082788279  0.71344487808781
 6 -6.39867712081208  4.72863715311531  0.67158784598460
 6 -7.66495920292029  4.79347997949795  0.26459485078508
 6 -8.12392666426643  3.37690688598860 -0.02866031973197
 6 -5.48396635333533  5.86239870577058  1.03278803930393
 6 -8.62027982558256  5.85620665436544  0.23053003840384
 6 -8.58295218651865  7.01112723132313  0.96581283108311
 7 -9.12924519711971  0.67994085518552 -0.44202823652365
 6 -9.82438869856986  1.80793074617462 -0.67555387948795
 6 -11.25359445604560  1.44646298539854 -1.07208892839284
 6 -11.25074747864786  0.02686805090509 -1.25683439743974
 6 -9.90138581928193 -0.41830380468047 -0.92606762286229
 6 -12.36174499819982  2.42045261626163 -1.15733250805081
 6 -12.42077662396240 -0.79252666276628 -1.68367917641764
 6 -12.38547603600360 -1.09053146434643 -3.16643176177618
 7 -7.23792326062606 -1.38256787038704 -0.23704838183818
 6 -8.30693093289329 -2.25613078517852 -0.57985294049405
 6 -7.80289643524352 -3.63883215071507 -0.54002127942794
 6 -6.47701158525853 -3.52296663366337 -0.10007173907391
 6 -6.15959855625563 -2.16584486578658 -0.00094729052905
 6 -8.60213768116812 -4.87033987638764 -0.71220969936994
 6 -5.38135260556056 -4.36899078257826  0.16853972657266
 8 -5.37890672857286 -5.61136561996200  0.05755278597860
 6 -4.25573915331533 -3.34391018081808  0.53668353365337
 6 -3.62097272817282 -3.69892511381138  1.86166653955396
 8 -3.73643524412441 -2.94938167436744  2.84194687578758
 8 -2.73642483618362 -4.74755947834783  1.80071865276528
 6 -2.38316890479048 -5.11817604670467  3.20589552505251
 6  2.85024753645365 -0.63610140474047 -1.19867106750675
 6  4.21399348834883 -0.49465764206421 -0.58234838383838
 6  5.18039152355235  0.35637190259026 -0.97718749144914
 6  5.11016943994399  1.07009965926593 -2.29095326062606
 6  6.43444777757776  0.49572142234223 -0.23043952915292
 6  7.73017055495550 -0.08344869176918 -0.99091604210421
 6  8.97073894649465  0.00954582418242 -0.16242805560556
 6  10.20441106560656 -0.44986205790579 -0.87820879137914
 6  10.12286898709871 -1.89984092019202 -1.22655612061206
 6  11.38098097499750 -0.27094087488749  0.00763163176318
 6  12.68725363306331 -0.53646769786979 -0.70490051295130
 6  13.96006547494749  0.07000579777978  0.12831989948995
 6  15.38607473237324 -0.17123085218522 -0.39132737253725
 6  15.81464313321332 -1.71666930073007 -0.80866048374837
 6  16.46605071097110  0.49729408940894  0.47252175937594
 6  17.78151274067407  0.50597199559956 -0.12938875347535
 6  18.92249261876188  1.25157337433743  0.76917735073507
 6  20.33526219541954  1.13716404990499  0.17320208340834
 6  20.24135548934894  2.09516781398140 -1.04495548824882
 6  21.20599152995300  1.79634257055706  1.32084744814481
 1 -3.92742422692269  3.53278880028003  1.50928551545154
 1 -10.00166055875587  3.83386422142214 -0.54089948144814
 1 -10.54465775517552 -2.54494383518352 -1.17313396559656
 1 -2.42674913181318 -0.78615692959296  2.23137382858286
 1 -2.38275188038804  1.64971855445545  1.07058770917092
 1 -1.83341779927993  0.61961241414141  3.30542425592559
 1 -2.85167022702270  2.22016607410741  3.56893905930593
 1 -3.70028347104711  0.65792047604760  3.49523193599360
 1 -2.13804628952895 -1.50609056945695 -0.47410131933193
 1 -2.02580425292529  0.15277252765276 -0.78376841644164
 1 -0.40491400880088  0.42555716961696  1.10553095219522
 1 -0.15394319631963 -1.03041755695570  1.27230118531853
 1 -5.84408318371837  6.74241288538854  0.48396410561056
 1 -5.55980296969697  5.96084944804480  2.09095539263926
 1 -4.35241919791979  5.60421158755875  0.60427360296030
 1 -9.51486353885389  5.79369551765176 -0.33294352255225
 1 -9.36808802470247  7.77380811971197  0.97877749954995
 1 -7.79836930273027  7.12983938343834  1.74408279377938
 1 -12.31777588268827  2.92119244524452 -2.07448045274527
 1 -13.42756242544254  1.69427331853185 -1.22084327582758
 1 -12.32496422752275  3.04660331503150 -0.24436568056806
 1 -12.53124790319032 -1.71122056715672 -1.05520047494750
 1 -13.34038275717572 -0.16343308010801 -1.46316184368437
 1 -13.36525287788779 -1.48401308750875 -3.42375225972597
 1 -12.41631519571957  0.03888935133513 -3.69407290299030
 1 -11.55878215751575 -1.70757562466247 -3.64654327432743
 1 -9.01973157615762 -5.04899564246425 -1.74991825592559
 1 -8.16742610741074 -5.82815281948195 -0.43883349634964
 1 -9.62289217411741 -4.82082710401040 -0.11471329392939
 1 -3.56888758465847 -3.36467971867187 -0.32782805430543
 1 -1.63176134263426 -4.52566900660066  3.57195011031103
 1 -3.25769537813781 -5.09494111171117  3.88768160706071
 1 -1.98070618211821 -6.16221549474947  2.82429638253825
 1  2.64654395849585 -1.59645148104810 -1.76841080608061
 1  2.78013549114912 -0.01703742414241 -2.06624977717772
 1  4.43870477607761 -1.02135435063506  0.31737495349535
 1  3.92771173467347  1.21117982838284 -2.39981835153515
 1  5.46066147784778  2.10893115201520 -2.36572304050405
 1  5.45766307390739  0.39251035853585 -3.10720945194519
 1  6.75632769566957  1.35594959495950 -0.11508886608661
 1  6.07073119251925  0.25313727632763  0.89290900760076
 1  7.61051843654365 -1.06418565376538 -1.30195151875188
 1  7.66003843974397  0.45511871997200 -2.02504542814281
 1  8.88247029862986  1.23069095409541  0.00338797099710
 1  8.67479596829683 -0.56381188738874  0.72783064676468
 1  10.51909946134613  0.09066160386039 -1.62579746924692
 1  9.15235022052205 -1.98548652515252 -1.64239016381638
 1  10.96706926262626 -2.45409219311931 -1.77278152205221
 1  9.94201708770877 -2.50271221322132 -0.21472091179118
 1  11.15221290219022  0.86394862506251  0.64901638913891
 1  11.24641769516952 -1.13102906420642  0.84289491109111
 1  12.78115143404340 -1.70367852905291 -0.92678034563456
 1  12.78985273777378 -0.06141545054505 -1.57400076137614
 1  13.80527196389639  1.17043959996000  0.11719906290629
 1  13.90391314441444 -0.37290689538954  1.38220473697370
 1  15.30590387888789  0.62339182418242 -1.22383674167417
 1  16.13691113401340 -2.42371266336634  0.15724427052705
 1  14.81785483618362 -2.28197057265727 -1.25340275537554
 1  16.68004763416342 -1.59042456735674 -1.41988345784578
 1  16.18424362506251  1.51010884458446  0.80193673797380
 1  16.67687213441344 -0.06803597869787  1.56911967316732
 1  17.96513745244524 -0.54632117951795 -0.28959229962996
 1  17.59341640614062  1.02534985388539 -1.17445102090209
 1  18.82161295389539  2.41001515921592  0.83129113441344
 1  18.81151831213122  0.64867904890489  1.77731773207321
 1  20.80820573327333  0.10480662886289 -0.12749568556856
 1  19.52442654925492  3.12828639053905 -0.77794138753875
 1  21.27232148424843  2.23434008680868 -1.51815317861786
 1  19.77551145554555  1.67599941074107 -1.92493946294629
 1  21.39511548674868  1.01880999009901  2.06687630483048
 1  22.21863356965697  1.93029425912591  0.81011597789779
 1  20.84057378727873  2.80509059235924  1.58543898439844

