%nproc=4
%Mem=2GB
# td=(NStates=1) CAM-B3LYP/6-31G(d,p) 

TD

0 1
<<<<<<< HEAD
12 -7.19243981698170  0.51483023112311  0.15865355275528
 6 -4.85575019301930 -1.94692587098710  0.61119765246525
 6 -4.83279320822082  2.84357280458046  1.17079344424442
 6 -9.33795853135313  3.09655515101510 -0.47710056975698
 6 -9.51127144084409 -1.76942245324532 -0.72276870597060
 7 -5.08648207280728  0.42928274637464  0.71324174247425
 6 -4.31903160926093 -0.67397721972197  0.76844486768677
 6 -2.92563156855686 -0.39140856655666  1.12092244644464
 6 -2.99583302170217  1.07127979627963  1.57399813051305
 6 -4.42160915581558  1.50357110591059  1.14656168606861
 6 -2.91554663676368  1.22476476457646  3.14773618251825
 6 -1.91433489448945 -0.56177143854385 -0.12163820552055
 6 -0.45997341994199 -0.43840818801880  0.33576770607061
 6  0.44974611181118 -0.64971848474848 -0.83592897339734
 8  0.19587082718272 -0.99908531613161 -1.95130146184618
 8  1.67773958445845 -0.42580997739774 -0.45312210111011
 7 -7.13602405030503  2.65322091189119  0.34680337583758
 6 -6.10741002000200  3.35538651445145  0.73655718931893
 6 -6.38342559565957  4.80051434083408  0.77703839103910
 6 -7.71930463746375  4.86967759925993  0.44539293059306
 6 -8.15707997959796  3.57248644394439  0.14235678197820
 6 -5.47321527822782  5.87563002890289  1.13533829432943
 6 -8.48780657825782  6.05689672337234  0.16604358975898
 6 -8.34241813311331  7.18553467206721  0.96235248504851
 7 -9.09241151375138  0.65707856895690 -0.48420245394539
 6 -9.85439169886989  1.84404435753575 -0.68281460556056
 6 -11.14646374297430  1.49116745584558 -1.14570629012901
 6 -11.22079448334834  0.18350371447145 -1.22414112811281
 6 -9.94013969466947 -0.36126810111011 -0.70618563466347
 6 -12.23591241494149  2.57162773377338 -1.66988376317632
 6 -12.32006655295530 -0.70494790489049 -1.80816162466247
 6 -12.18678616701670 -1.14815722692269 -3.19693481208121
 7 -7.14980444874487 -1.46123573717372 -0.02152682968297
 6 -8.32714295409541 -2.25089026112611 -0.38098305350535
 6 -7.82478862446245 -3.65716398389839 -0.39172644994499
 6 -6.47217110121012 -3.64565890289029  0.03372164026403
 6 -6.14775737213721 -2.26120440174017  0.20491329552955
 6 -8.57984545194519 -4.84748759115912 -0.76251472987299
 6 -5.32493696399640 -4.37398128162816  0.29462233483348
 8 -5.12418125602560 -5.58329281268127  0.14137116781678
 6 -4.19672325172517 -3.33244903470347  0.64566443174317
 6 -3.58513914481448 -3.64871009230923  2.03201357425743
 8 -3.87289889048905 -3.14555129132913  3.10288296939694
 8 -2.70954214791479 -4.67382210461046  1.79113769466947
 6 -2.15162575047505 -5.30177440654065  2.94878981448145
 6  2.76737924962496 -0.62696049064907 -1.40508170857086
 6  4.06504859385939 -0.48642681898190 -0.70810095909591
 6  5.10877436183618  0.33960022542254 -1.03305307800780
 6  5.03560198319832  1.06005865516552 -2.33748791409141
 6  6.42796712951295  0.38653050325032 -0.38700518571857
 6  7.64643218111811 -0.22467281418142 -1.11509846034603
 6  8.86409828242824 -0.17826295669567 -0.16160797359736
 6  10.15993661816182 -0.50686775847585 -0.91644261476148
 6  10.13143984418442 -1.99555049114911 -1.41102456745675
 6  11.43313619051905 -0.29238301910191  0.03252412101210
 6  12.75571047874787 -0.38219227032703 -0.65616563946395
 6  13.96150561896190 -0.22559376217622  0.14932199969997
 6  15.38659478437844 -0.23336706580658 -0.49319755955596
 6  15.71258292719272 -1.68242587638764 -0.79251886958696
 6  16.39923402930293  0.42598695869587  0.53991849904990
 6  17.81139572897290  0.63801519991999 -0.05780159475948
 6  18.72040240974097  1.33451166816682  0.85498593159316
 6  20.25206387558756  1.39673000650065  0.36571133433343
 6  20.29080043384338  2.08023632083208 -0.96495748844884
 6  21.17405833663366  2.09553248954895  1.34338970237024
 1 -4.04634611911191  3.62047756915692  1.52224681158116
 1 -10.03207360006001  3.95834666966697 -0.61097648914891
 1 -10.29375266466647 -2.57144648544855 -0.96290294249425
 1 -2.44924138103810 -1.17424573847385  1.93397408860886
 1 -2.30343394859486  1.58026160876088  1.05942659305931
 1 -2.00858531603160  0.69519997289729  3.66352006550655
 1 -3.03561862186219  2.25637969546955  3.38798096349635
 1 -3.75389883258326  0.74380906490649  3.47557997079708
 1 -2.00421290619062 -1.70001996239624 -0.38815272447245
 1 -2.01543321582158  0.18326557695770 -0.75178521812181
 1 -0.30830434783478  0.51672628652865  0.63915431453145
 1  0.06548874687469 -1.03294780998100  1.16343029822982
 1 -5.97902667806781  6.69067771187119  0.97413312251225
 1 -5.40445743514351  5.95871923502350  2.15728202530253
 1 -4.32565652165217  5.76169733613361  0.71731490709071
 1 -9.27284933743374  6.07554370247025 -0.63761398959896
 1 -8.79973118901890  8.08617935683568  0.52617223902390
 1 -7.54048351415142  7.22896929642964  1.69208759425943
 1 -12.04071817691769  2.99860018601860 -2.61814481918192
 1 -13.22517218641864  2.08101199239924 -1.51995318681868
 1 -12.45444717581758  3.46048470317032 -1.02336358035804
 1 -12.44226900530053 -1.59141858695870 -1.22462741764176
 1 -13.23954267316732 -0.21854859165917 -1.70956648414841
 1 -13.12165851845185 -1.56184087028703 -3.65287517201720
 1 -12.26287985218522 -0.23057759535954 -3.91860535623562
 1 -11.25735201450145 -1.66849171627163 -3.45026364636464
 1 -8.89732933593359 -4.88419916281628 -1.82114537863786
 1 -8.09315868066807 -5.83483348754875 -0.59378899189919
 1 -9.53981386628663 -4.93437845914591 -0.19706152875288
 1 -3.30034072997300 -3.58028127882788  0.16966169466947
 1 -1.52900106660666 -4.71708814851485  3.65190810611061
 1 -2.94960456905691 -5.76258787638764  3.62869570847085
 1 -1.70474858635864 -6.29878915211521  2.57658161106111
 1  2.96316562066207 -1.78422025792579 -1.59041300630063
 1  2.78381585918592 -0.16112183258326 -2.27364051625163
 1  4.23105401100110 -0.88195041024102  0.32993620962096
 1  3.88581754525453  1.30105881628163 -2.61004937463746
 1  5.41842725442544  2.07060731963196 -1.83682015021502
 1  5.77489479707971  0.79834094159416 -3.29169790079008
 1  6.71832389528953  1.36923092309231 -0.20991834903490
 1  6.20701482088209 -0.17890592799280  0.45868558525853
 1  7.28408579327933 -1.35419465466547 -1.12357368096810
 1  7.64812724862486  0.18294150225022 -2.21276420002000
 1  9.08039009060906  0.76033391839184  0.16107373957396
 1  8.77273576227623 -0.78363386958696  0.84162202590259
 1  10.36383393479348  0.21903444114411 -1.73291818131813
 1  9.29518450395040 -1.97389536603660 -2.30536646144614
 1  11.02586514221422 -2.37222400630063 -1.69639388328833
 1  9.76468935493549 -2.58393033503350 -0.60373981368137
 1  11.46354403530353  0.81734396459646  0.38445993349335
 1  11.60411346474647 -1.08222418371837  0.75328595019502
 1  12.73185650455045 -1.34347250845085 -1.10155782338234
 1  12.83183693619362  0.32179287028703 -1.60033339463946
 1  13.89459089578958  0.74826738273827  0.71449879287929
 1  13.92360511361136 -0.86794639933993  1.06957347384738
 1  15.23111640014001  0.32944242924292 -1.46650100810081
 1  15.66149359225923 -2.07130742284228  0.13901244734473
 1  15.02455550625062 -2.22007438303830 -1.49366678177818
 1  16.77500713011301 -1.64079960486049 -1.25959742924292
 1  16.03558875957596  1.51111894559456  0.88358490279028
 1  16.58105255245524 -0.29983915901590  1.53729649084908
 1  18.21322226092609 -0.50487703510351 -0.42681602200220
 1  17.76055311981198  1.27539485838584 -1.09499307510751
 1  18.30045083768377  2.28246240394039  1.00480848614861
 1  18.76493365366537  0.78248242924292  1.86635663596360
 1  20.49477439013901  0.34797094529453  0.15373243724372
 1  19.75552965956595  3.08162172407241 -0.93071666506651
 1  21.23468772087209  2.36675332813281 -1.28615997929793
 1  19.77074097849785  1.58500031083108 -1.74408137713771
 1  21.06275225042504  1.54443255235524  2.42364198139814
 1  22.13424513081308  2.25766699639964  1.01391635793579
 1  20.88191792169217  3.14506458975898  1.59604004450445
=======
12 -7.14965553855385  0.54554330243024  0.05954364176418
 6 -4.85668028602860 -1.97411859025903  0.46992352505251
 6 -4.73403333223322  2.82268071537154  1.16574293919392
 6 -9.33125786128613  3.09396489198920 -0.40281314101410
 6 -9.54637495119512 -1.72840835183518 -0.99759618871887
 7 -5.14644806940694  0.38080789888989  0.73054347264726
 6 -4.34978468456846 -0.69532935493549  0.84396241944194
 6 -2.89393839923992 -0.46141556725673  1.24775512971297
 6 -3.02507594599460  1.08124079237924  1.62698342904290
 6 -4.38091508640864  1.50588133693369  1.08176520642064
 6 -2.89547462956296  1.35664795289529  3.08030943984398
 6 -1.86495995699570 -0.67748300970097  0.09329328762876
 6 -0.47623504610461 -0.43463781098110  0.50083421272127
 6  0.50341147834783 -0.60568408130813 -0.66697207770777
 8  0.24620586068607 -1.00926633423342 -1.84830116181618
 8  1.74141595209521 -0.49477687408741 -0.18087487638764
 7 -7.08021846974697  2.60526611641164  0.30043873937394
 6 -5.99518879787979  3.35198617441744  0.71032456605661
 6 -6.31127838093809  4.77532182158216  0.65482616981698
 6 -7.68318102510251  4.92823345484548  0.32349074037404
 6 -8.11918619021902  3.46357555285529 -0.04258171187119
 6 -5.51017897459746  5.90782324822482  1.13703846434644
 6 -8.51164896249625  6.01996303000300  0.07315430083008
 6 -8.29794368566857  7.14822094069407  0.85709195899590
 7 -9.15735800840084  0.65302816391639 -0.38492252595260
 6 -9.90689694939494  1.82281223432343 -0.57157348144814
 6 -11.19268836543654  1.50092843194319 -1.08519023852385
 6 -11.26206861076108  0.11825718981898 -1.20487920192019
 6 -9.89680536123612 -0.32131410571057 -0.83386840294029
 6 -12.21956077977798  2.49125969696970 -1.45666244104410
 6 -12.45985053135314 -0.68183559365937 -1.67352816131613
 6 -12.40182767116712 -1.06253866506651 -3.18844396299630
 7 -7.25299476777678 -1.40486009960996 -0.16963164016402
 6 -8.33579381918192 -2.20393556565657 -0.65585054025403
 6 -7.87893403900390 -3.62403067056706 -0.54450172747275
 6 -6.59943382748275 -3.55542987998800 -0.06713844574457
 6 -6.19617221362136 -2.15819410071007  0.02899570377038
 6 -8.61129859725973 -4.74028687108711 -0.90834931333133
 6 -5.46506097639764 -4.41839572307231  0.30147301990199
 8 -5.33864270217022 -5.64136862026203  0.22819985068507
 6 -4.25848942834283 -3.30687647744774  0.64341420672067
 6 -3.58617924882488 -3.80307552885289  1.90101047394739
 8 -3.79971157175718 -3.32946968316832  3.01210389148915
 8 -2.77461865556556 -4.80283500590059  1.75418399929993
 6 -2.26297688558856 -5.38144237333733  3.01470640614061
 6  2.81463397509751 -0.72591038563856 -1.18981018141814
 6  4.14311640064006 -0.42527070337034 -0.45336548554855
 6  5.10403388778878  0.30508677407741 -1.00846061876188
 6  5.08736715971597  1.15320797009701 -2.24236840214021
 6  6.45296962976298  0.33042489268927 -0.16127261246125
 6  7.69344688258826 -0.05771611851185 -0.94453140364036
 6  8.99862173477348 -0.10842597299730 -0.06647846064606
 6  10.18432905740574 -0.47938501020102 -0.83385435593559
 6  10.16334303450345 -1.93687462356236 -1.24845831083108
 6  11.43980685758576 -0.28988276907691  0.09256012461246
 6  12.76589149684968 -0.49099315041504 -0.62168219111911
 6  13.95573504190419 -0.12372357515752  0.32486955445545
 6  15.42102822772277 -0.23333706280628 -0.33264150395040
 6  15.65786745564556 -1.70186782058206 -0.65484510221022
 6  16.43618772467247  0.45988034803480  0.52154666186619
 6  17.84689927932793  0.60908230663066 -0.20177599219922
 6  18.84118448794879  1.45300351735174  0.70578101110111
 6  20.23855252445244  1.50697103060306  0.02578734193419
 6  20.29077043084309  2.26858515571557 -1.22448344104410
 6  21.31343227402740  1.86047898419842  1.02987835123512
 1 -4.07438892339234  3.53557907930793  1.60283487038704
 1 -10.01762215491549  3.97710854585458 -0.54209960146015
 1 -10.40213350275027 -2.50337967876788 -1.30338699089909
 1 -2.74624108100810 -1.02894120802080  2.09045973717372
 1 -2.26972057725773  1.74221780438044  0.92137278767877
 1 -1.91531598909891  1.37198765166517  3.37659137263726
 1 -3.24734979497950  2.43237729522952  3.33874604000400
 1 -3.68491193389339  0.59056374037404  3.65604801760176
 1 -1.99343182808281 -1.77150711111111 -0.40616452565257
 1 -2.21884355685568  0.11363861426143 -0.69848988858886
 1 -0.27960147754775  0.56099071297130  0.84974537363736
 1 -0.28949675167517 -1.11615613081308  1.22401635683568
 1 -5.74404317971797  6.86436508060806  0.56992270147015
 1 -5.54484147354735  5.94744810791079  2.27327362446245
 1 -4.56585054105410  5.65632679907991  0.75034821042104
 1 -9.44246629912991  5.83061921002100 -0.73130335853585
 1 -8.84218543444344  8.04296503540354  0.83785340714071
 1 -7.46830629642964  7.34321072057206  1.70882926842684
 1 -11.87676178127813  3.17970829682968 -2.18498150285028
 1 -13.25958562776278  2.03012690389039 -1.77338853035304
 1 -12.43990572167217  3.13922257695770 -0.55992723672367
 1 -12.50910568896890 -1.56188563366337 -1.09881483638364
 1 -13.44841356025603 -0.17260399719972 -1.66343187068707
 1 -13.24946129872987 -1.80037472367237 -3.39130901540154
 1 -12.56925048924893 -0.07598213581358 -3.57195069076908
 1 -11.40872715201520 -1.53903877097710 -3.61265988598860
 1 -8.92980258325833 -4.96103684658466 -1.91990525462546
 1 -8.05308467326733 -5.53316332053205 -0.25211482448245
 1 -9.66734661956196 -4.65136015731573 -0.36000782338234
 1 -3.43423411931193 -3.49063231393139 -0.28802407390739
 1 -1.87101526802680 -4.65569200890089  3.52988590389039
 1 -3.15378498709871 -5.74211582918292  3.52628546744674
 1 -1.60302841434143 -6.22033130633063  2.58873282618262
 1  2.68346765086509 -1.88182001790179 -1.46745071007101
 1  2.66864434203420 -0.11155687608761 -2.14310746294629
 1  4.42333323892389 -0.84637685288529  0.45803901990199
 1  4.19010797429743  0.99918862926293 -2.92523089278928
 1  5.40072548424842  2.29027928682868 -1.81375784398440
 1  5.97097440504050  0.90200130763076 -2.97345607660766
 1  6.53334539743974  1.41686568656866  0.11706434923492
 1  6.46720083948395 -0.27048508590859  0.66416613331333
 1  7.50567795249525 -1.09403863906391 -1.34734605820582
 1  7.97920035593559  0.47117032513251 -1.88373129672967
 1  8.86909896149615  0.94362224722472  0.44746237843784
 1  8.87551604030403 -0.73178868506851  0.81809967366737
 1  10.21241879327933  0.16065860356036 -1.71648653815382
 1  9.44882986848685 -2.03219119561956 -1.85078100290029
 1  11.14066662236224 -2.27320410431043 -1.83061730563056
 1  10.16970985698570 -2.72426436843684 -0.53519295899590
 1  11.49604728562856  0.74443667386739  0.31311279877988
 1  11.23476653005301 -0.71777773907391  0.98361898349835
 1  12.91000431933193 -1.60891905310531 -0.99165683328333
 1  12.93739749224923  0.19735042604260 -1.48804216551655
 1  13.81128256495650  0.97979053505351  0.49996733973397
 1  13.86441919501950 -0.66978658335834  1.22172868936894
 1  15.38179146764676  0.36069555455546 -1.28620297829783
 1  15.75752319521952 -2.46803709580958  0.16886543264326
 1  14.90772382308231 -2.05005738133813 -1.49590700580058
 1  16.76907653705371 -2.13576910181018 -1.04243571307131
 1  16.11613681438144  1.41077891159116  0.84750129442944
 1  16.61960640784078 -0.14479365446545  1.49252201340134
 1  18.38311925062506 -0.28454500190019 -0.39765310571057
 1  17.79509657415742  1.26200351925193 -1.15362893869387
 1  18.68990978357836  2.54413857155716  1.05371337663766
 1  18.85897305760576  0.94982916391639  1.60622062236224
 1  20.30463537623762  0.29672582078208 -0.19140207620762
 1  19.90815492209221  3.19247280918092 -1.01185477887789
 1  21.19883413551355  2.27909456225623 -1.52738410171017
 1  19.79577348174818  1.88059987078708 -2.04533150215021
 1  21.48530450565056  1.11882999209921  1.91569118631863
 1  22.34098580488049  1.75374660436044  0.69673463976398
 1  21.18205793569357  2.89059914321432  1.46592703320332
>>>>>>> 8e03b5b5abfc0030b3aa597dc0de36371bfbd096

