%nproc=4
%Mem=2GB
# td=(NStates=1) CAM-B3LYP/6-31G(d,p) 

TD

0 1
12 -7.09435000800080  0.55927467556756  0.01609929732973
 6 -4.76357097509751 -1.91781295969597  0.54598113081308
 6 -4.75848577747775  2.78140658795880  1.28286465136514
 6 -9.34121885738574  3.11027652315232 -0.34509736943694
 6 -9.42865317901790 -1.77092260326033 -0.87041347044704
 7 -5.04683810841084  0.46356617471747  0.77167758605861
 6 -4.28100780688069 -0.71424124612461  0.77746576977698
 6 -2.85621462686269 -0.41064048974897  1.22687304150415
 6 -2.92283572197220  1.09857252555256  1.64327505820582
 6 -4.31827882278228  1.42671342014201  1.11479850975098
 6 -2.88270335243524  1.23836612471247  3.06464787368737
 6 -1.90550401140114 -0.65779104050405  0.02704666296630
 6 -0.43841126372637 -0.41348569576958  0.44202833213321
 6  0.51067220442044 -0.72703621652165 -0.69351473197320
 8  0.22209344944494 -1.01313672127213 -1.76991332303230
 8  1.79754156465647 -0.67971536793679 -0.26828361726173
 7 -7.10821126902690  2.59414500430043  0.40828952445245
 6 -6.07661694069407  3.33542451825183  0.80781431503150
 6 -6.38579583268327  4.72400669006901  0.77188787598760
 6 -7.73443615061506  4.82029266076608  0.39626801810181
 6 -8.12968724032403  3.41872106740674  0.09251179747975
 6 -5.39672762946295  5.85313777967797  1.16834159465947
 6 -8.49429722732273  6.02987402110211  0.09071605700570
 6 -8.46569046034604  7.14703082168217  0.73561981178118
 7 -9.06624889748975  0.64613747484748 -0.69703373707371
 6 -9.88104436413641  1.81983193629363 -0.56860318441844
 6 -11.14087318391839  1.44799313841384 -0.95506722622262
 6 -11.19840224412441  0.10482584668467 -1.20040875487549
 6 -9.84248992969297 -0.40350232453245 -0.98276329242924
 6 -12.24319314301430  2.40545111611161 -1.37618439323932
 6 -12.39494404070407 -0.65531294139414 -1.81673248174817
 6 -12.38567605600560 -1.06655906710671 -3.24493961256126
 7 -7.20810027832783 -1.43289290289029 -0.19105378237824
 6 -8.16622686248625 -2.23548872097210 -0.58627358255826
 6 -7.76818296389639 -3.62398066556656 -0.51516879417942
 6 -6.49820370447045 -3.50055439243924 -0.00298203010301
 6 -6.18480107650765 -2.13078135943594  0.11700450465046
 6 -8.60843831123112 -4.85010785318532 -0.77030550895090
 6 -5.34611908220822 -4.27069095259526  0.21590446304630
 8 -5.18041687958796 -5.51629611301130  0.28669570027003
 6 -4.13441702110211 -3.32189797959796  0.63438330363036
 6 -3.58280891179118 -3.59914513581358  2.01770214311431
 8 -3.89629122972297 -3.01576831303130  3.07534021512151
 8 -2.74145533923392 -4.61090581298130  1.92570115101510
 6 -2.18852944084408 -5.22383661276128  3.07087202270227
 6  2.77830034173417 -0.81541933653365 -1.27536873727373
 6  4.10336242524252 -0.45428360466047 -0.67256740574057
 6  5.11126461086109  0.46186245164516 -1.13741351405141
 6  5.05514393739374  1.06780943024302 -2.45909007430743
 6  6.34950928372837  0.55330718091809 -0.27353383858386
 6  7.64119165706571 -0.08496884378438 -1.00296724722472
 6  9.01561343394340 -0.10413554395440 -0.15223703650365
 6  10.14609523402340 -0.47787485918592 -0.96507747824782
 6  10.04799149934993 -1.91930286638664 -1.42783624862486
 6  11.44612748964897 -0.35246902770277 -0.09611874327433
 6  12.75947085478548 -0.42296634773477 -0.78312833573357
 6  13.85741520992099 -0.06217742054205  0.14000106760676
 6  15.23650977587759 -0.08453218231823 -0.51501974177418
 6  15.73149481838184 -1.46589422322232 -1.03485310301030
 6  16.29814392029203  0.45290965096510  0.43167767496750
 6  17.71897648704870  0.52994439283928 -0.12060787538754
 6  18.65825619511951  1.05984420142014  0.87776820982098
 6  20.14693336253625  1.30836116961696  0.41748651185119
 6  20.26866822062206  2.12373067026703 -0.92229322202220
 6  21.01849278007801  1.91130406670667  1.50653601700170
 1 -4.01169265376538  3.44245976737674  1.59833442034203
 1 -10.17928832153215  3.94290512551255 -0.20868626012601
 1 -10.17549083848385 -2.45874521532153 -1.19897654985499
 1 -2.67006346324632 -1.12932124602460  2.21141183238324
 1 -2.13134673987399  1.88529211181118  1.13174382478248
 1 -1.70055451295130  1.17905835873587  3.48879259275928
 1 -3.22671773177318  2.16253031053105  3.42749491489149
 1 -3.48076151885189  0.32363704770477  3.61362377517752
 1 -1.94314679957996 -1.53706366676668 -0.48958286748675
 1 -2.03733540604060 -0.11636438603860 -0.85488552815282
 1 -0.20734425182518  0.78856347024702  0.73928432753275
 1 -0.37921572357236 -1.11667618281828  1.39084303950395
 1 -5.54837361276128  6.61667031113111  0.49780548974898
 1 -5.40510750015001  6.16381974507451  2.17211350845085
 1 -4.38982293829383  5.51037220362036  1.05028820442044
 1 -9.29877192969297  6.12915906400640 -0.50602083028303
 1 -8.94909612551255  7.87123786268627  0.36732635443544
 1 -7.63515298109811  7.10828722822282  1.61098948444844
 1 -11.95586969206921  3.09023934993499 -2.10803380808081
 1 -13.12026169536954  1.80361425262526 -1.61388257975798
 1 -12.33891562266227  3.02269092379238 -0.45475671967197
 1 -12.57233201160116 -1.50948039313931 -1.13706866176618
 1 -13.31775049394939 -0.13085982278228 -1.66725225272527
 1 -13.09599595219522 -1.98090277647765 -3.53410329482948
 1 -12.46987055125513 -0.13403794139414 -3.82889638533853
 1 -11.48713499279928 -1.49646451355135 -3.42246086608661
 1 -8.93551315431543 -4.83817456035604 -1.82942620672067
 1 -8.07140650545054 -5.86300630483048 -0.40940055305531
 1 -9.50394027892789 -4.85442046334634 -0.23321514411441
 1 -3.29765046094609 -3.26706995769577 -0.13727899939994
 1 -1.57353552005201 -4.46035247494749  3.70818373367337
 1 -2.91244085268527 -5.46848846644664  3.78807164606461
 1 -1.64671278277828 -5.98192746594659  2.83601755465547
 1  2.84212351645164 -1.91260309620962 -1.43707767276728
 1  2.57576505410541 -0.14711043144314 -2.27209036123612
 1  4.20590149574957 -0.91292350755076  0.30862407840784
 1  4.08777774127413  1.35649435983598 -2.79043741344134
 1  5.60258567026703  2.00767102600260 -2.56122259045905
 1  5.33539084668467  0.54705581308131 -3.38764749574957
 1  6.80136219911991  1.57489148914891  0.21434407720772
 1  6.07466158555856 -0.20099813721372  0.61818153485349
 1  7.50948833353335 -1.05978521372137 -1.45487681128113
 1  7.72561499739974  0.46392960106011 -1.88162108570857
 1  9.12931498309831  0.82370025502550  0.37940557275728
 1  8.82134062276228 -0.76670217641764  0.73661152485248
 1  10.30690824222422  0.23714625232523 -1.76159104860486
 1  9.17908289378938 -2.12626060256026 -2.09824574937494
 1  10.89800235593559 -2.16164294819482 -2.09966421032103
 1  9.71471435743574 -2.60365230723072 -0.62541198089809
 1  11.48476615751575  0.58664089428943  0.31614310181018
 1  11.39084213761376 -1.14797075837584  0.64445506710671
 1  12.96823014191419 -1.45433359455946 -0.97723539113911
 1  12.84499825232523  0.29484017501750 -1.62574593589359
 1  13.40443187988799  0.96138869486949  0.46420376337634
 1  13.75812856595660 -0.97601720642064  0.90327684418442
 1  15.04530781928193  0.61332081708171 -1.18920327832783
 1  15.88075551845185 -2.12697298939894 -0.22332378627863
 1  14.92769582028203 -1.92258463406341 -1.64930234533453
 1  16.46731636103610 -1.42689821472147 -1.80380184968497
 1  16.09411461216121  1.58289612331233  0.80579712401240
 1  16.36579102630263 -0.20830000510051  1.19770253145315
 1  17.95703664236424 -0.66647319471947 -0.04167750815081
 1  17.63851091559156  0.87374469336934 -1.20425400120012
 1  18.21871266386639  2.04413857155716  1.23594159945995
 1  18.67991515181518  0.49627380838084  1.85417541784178
 1  20.59810472317232  0.22156830503050  0.25468253225323
 1  19.89799390599060  2.99074263616362 -0.87992158555856
 1  21.33490774287429  2.04293094589459 -1.37901926522652
 1  19.64754865926593  1.72754456525653 -1.76815378437844
 1  21.15599157435744  1.19461757085709  2.39338895609561
 1  22.02393409970997  2.07440867056706  1.19723468976898
 1  20.79356908680868  2.96234631793179  1.96966740724072

