%nproc=4
%Mem=2GB
# td=(NStates=1) CAM-B3LYP/6-31G(d,p) 

TD

0 1
12 -7.04220479347935  0.54643339143914  0.16135382278228
 6 -4.84544916291629 -2.00608178657866  0.56049258195820
 6 -4.77081701060106  2.77513596089609  1.29894625952595
 6 -9.31225596109611  3.09526502200220 -0.37912077177718
 6 -9.51121143484349 -1.73046855785579 -0.84447087618762
 7 -5.16796022062206  0.42188200630063  0.77057747604760
 6 -4.37041674777478 -0.78465828782878  0.88715673887389
 6 -2.85225423082308 -0.43556298199820  1.14129448364836
 6 -3.02423586198620  1.12271493979398  1.59424015471547
 6 -4.37433442834283  1.48642939173917  1.18743577347735
 6 -2.77333241534153  1.27187947604760  3.12041345024502
 6 -1.97742120312031 -0.69471473287329 -0.05834187588759
 6 -0.44841226382638 -0.47174152135214  0.37289141844184
 6  0.51967310451045 -0.70895440834083 -0.79928530903090
 8  0.22489372947295 -1.00373578117812 -1.89475580728073
 8  1.81602341284128 -0.50052744914491 -0.41187797669767
 7 -7.08441888978898  2.58068365816582  0.31093978947895
 6 -5.98636791579158  3.37205818161816  0.80049358295830
 6 -6.29535678877888  4.73548783818382  0.84671535873587
 6 -7.59855256225623  4.88414904640464  0.30522891419142
 6 -8.03264753635364  3.51570076537654 -0.05876333003300
 6 -5.45185314201420  5.86379884578458  1.19885464596460
 6 -8.40583838143814  5.98754978867887  0.08572555795580
 6 -8.34695858715872  7.09434555315532  0.79993624342434
 7 -9.15410768336834  0.67920078117812 -0.41878591229123
 6 -9.89502576227623  1.80305025812581 -0.63886021012101
 6 -11.19685878247825  1.41618995809581 -1.03426514601460
 6 -11.24686709060906  0.06024138823882 -1.22855156915692
 6 -9.89014469516952 -0.39690166446645 -0.83209822592259
 6 -12.37395621932193  2.41510208120812 -1.33724049884988
 6 -12.32945749204920 -0.71073848394839 -1.80578138663866
 6 -12.28296578497850 -1.05982839403940 -3.33206832543254
 7 -7.25254472277228 -1.43948356195620 -0.08925360236024
 6 -8.24871511131113 -2.21936710881088 -0.41808676387639
 6 -7.88881502710271 -3.68417668516852 -0.33690096739674
 6 -6.47080096419642 -3.62365670267027 -0.10534226612661
 6 -6.09716231263126 -2.26933521482148  0.06578938313831
 6 -8.61391885928593 -4.88955179757976 -0.79744822322232
 6 -5.25479995029503 -4.35085896939694  0.26155902850285
 8 -5.19773861176118 -5.64158864226423  0.32877990869087
 6 -4.19046262566257 -3.31623741354135  0.56230609590959
 6 -3.60688131903190 -3.67200242154215  2.00053042594259
 8 -3.80430203080308 -3.05653238943894  3.02519520062006
 8 -2.84046524022402 -4.73826854925492  1.84064264516452
 6 -2.29510009790979 -5.25409963906391  3.15054999049905
 6  2.78221073277328 -0.63331112571257 -1.38898009840984
 6  4.12828491749175 -0.29871804810481 -0.62392254125413
 6  5.08342182658266  0.41328759415942 -1.14791456415642
 6  5.05355377837784  1.16745939523952 -2.42637680298030
 6  6.45561989478948  0.65312716291629 -0.32847933313331
 6  7.60775831373137  0.04424407750775 -1.14286123662366
 6  8.89341121372137  0.03623849344934 -0.33157497029703
 6  10.16268689318932 -0.36454352605261 -0.99359032953295
 6  10.06824352455245 -1.95103603970397 -1.30276374137414
 6  11.38339121602160 -0.19058283908391 -0.10381951335134
 6  12.74010891859186 -0.32887693879388 -0.81872189508951
 6  13.96803627202720 -0.00188139093909  0.08220528802880
 6  15.29571569646965 -0.18943267236724 -0.43856209600960
 6  15.55960762966297 -1.71938957275728 -0.66198581628163
 6  16.38107221312131  0.30534489448945  0.46143065026503
 6  17.75399998939894  0.60482188058806 -0.02859867446745
 6  18.70602097159716  1.17626584358436  0.93053348634864
 6  20.15313398259826  1.25214554805481  0.37119188238824
 6  20.29751110491049  1.99593789098910 -0.92381337403740
 6  21.20176110691069  1.82378531483148  1.42004736813681
 1 -3.81578306280628  3.36840236163616  1.41293588048805
 1 -10.03978437113711  3.97317815281528 -0.58260365186519
 1 -10.20933422282228 -2.55531487228723 -1.14403105530553
 1 -2.70861731863186 -1.14447276117612  1.93524421562156
 1 -2.21759536473647  1.73464704730473  1.03229387978798
 1 -1.55118957645765  1.25111556445645  3.37304101760176
 1 -3.25659071907191  2.25754981248125  3.55776794219422
 1 -3.28131157385739  0.39813449744975  3.68097050985098
 1 -2.02853533843384 -1.67561752215222 -0.33006691589159
 1 -2.08466013851385  0.23790104050405 -0.82842288188819
 1 -0.19295281268127  0.57913252715272  0.66984738383838
 1 -0.24804260626063 -1.07132164736474  1.31355531073107
 1 -5.41138991439144  6.75786443054305  0.40510621982198
 1 -5.86420340974097  6.37356071917192  2.14312060916092
 1 -4.33665762176218  5.36736790319032  1.35397857345735
 1 -9.15138719121912  6.26807295539554 -0.82839306750675
 1 -8.82234345024502  8.02025276417642  0.51726134793479
 1 -7.75361482728273  7.11495789528953  1.70850923642364
 1 -11.98922302740274  3.07483780978098 -2.17309031373137
 1 -13.41622129132913  1.87187107830783 -1.42720391189119
 1 -12.52288401950195  2.90381903660366 -0.35743698769877
 1 -12.32155693409341 -1.64427387248725 -1.27342229712971
 1 -13.37964668356836 -0.20771750855086 -1.53997952545255
 1 -13.02424877747775 -1.61388607480748 -3.59108899339934
 1 -12.51512507670767  0.02213767616762 -3.87340083578358
 1 -11.11875815511551 -1.29124399149915 -3.64269288928893
 1 -9.05053465646565 -4.87042778567857 -1.91692495659566
 1 -8.01536090089009 -5.72163216741674 -0.72284189718972
 1 -9.45202508740874 -4.84116913821382 -0.00173199579958
 1 -3.29972066796680 -3.31706495719572 -0.08225349684968
 1 -1.79980814731473 -4.50339677937794  3.59957287258726
 1 -3.20405001360136 -5.54174579217922  3.68817165606561
 1 -1.86031414291429 -6.23415268846885  2.88351230413041
 1  2.71160046414642 -1.62609444534453 -2.04141810681068
 1  2.50218769636964  0.09419369896990 -2.19349250145014
 1  4.17451835743574 -0.86492870807081  0.44016723272327
 1  4.07687665116512  1.22081079147915 -2.89348771847185
 1  5.57268267996800  2.09667992689269 -2.23885035323532
 1  5.52620992859286  0.62957406490649 -3.31223995499550
 1  6.52420448334833  1.66839083908391 -0.17042439963996
 1  6.37647176657666  0.33455541814181  0.55392510921092
 1  7.33669105380538 -0.76111534673467 -1.75259658325832
 1  7.64858729462946  0.72222543064306 -2.02959588318832
 1  8.91779383098310  1.00548843384338  0.01286891909191
 1  8.68127661636164 -0.71948745494549  0.56481434513451
 1  10.38191574297430 -0.04840230253025 -1.94905979547955
 1  9.18279326482648 -2.21292926942694 -1.98189411421142
 1  10.98321087678768 -2.30888767266727 -1.72745698959896
 1  9.78354124012401 -2.48288023002300 -0.28951839153915
 1  11.29866754765477  0.88919114931493  0.22172365986599
 1  11.23720677407741 -0.79951591289129  0.86311693329333
 1  12.99153247214721 -1.43808196939694 -1.23149081668167
 1  12.85306905940594  0.35850654165417 -1.74839820112011
 1  13.64502593929393  1.12228478447845  0.50180752375238
 1  13.80698345144515 -0.73943354805481  1.03225974247425
 1  15.30693398189819  0.26658614361436 -1.48742310031003
 1  15.58874631753175 -2.04681497359736  0.49980852695270
 1  14.70025307600760 -2.07562993859386 -1.29900731583158
 1  16.59047867726773 -2.00425595049505 -0.99437090659066
 1  16.04124932563256  1.25603343704370  0.85458200250025
 1  16.41623607080708 -0.23373254835484  1.44892765396540
 1  18.28695963466347 -0.43347989538954 -0.27261060146015
 1  17.70751781628163  1.29775709460946 -0.97803137893789
 1  18.42688348094810  2.27790194789479  1.19522752805281
 1  19.00958811911191  0.74866904790479  1.84514451475148
 1  20.63583849654966  0.28304445264526  0.16500356435644
 1  19.69473357995799  3.05280884278428 -1.06203979737974
 1  21.36233048514852  2.35683233603360 -1.03993535683568
 1  19.74228813321333  1.56199801060106 -1.78908587758776
 1  21.39047502270227  1.09339744884488  2.32136175337534
 1  22.24923662996299  2.14223545324533  0.93785875217522
 1  20.81911164106411  2.72544262756276  1.85125556605661

