%nproc=4
%Mem=2GB
# td=(NStates=1) CAM-B3LYP/6-31G(d,p) 

TD

0 1
12 -7.10632120512051  0.57411615971597  0.05581326872687
 6 -4.83814843284328 -1.96279745814581  0.51936846954695
 6 -4.73928385728573  2.81359980728073  1.24057042194219
 6 -9.30682541804180  3.05425092059206 -0.42498535823582
 6 -9.51406171987199 -1.77415292629263 -0.95195162426243
 7 -5.10605403000300  0.42932275037504  0.76969738803880
 6 -4.33217292339234 -0.73120294229423  0.86028405160516
 6 -2.85164416981698 -0.39333875957596  1.18195855005501
 6 -2.91113455185519  1.01708437673767  1.68096882758276
 6 -4.33315030993099  1.53953470227023  1.17839486938694
 6 -2.92535761786179  1.11880416851685  3.24340574947495
 6 -1.91027448844884 -0.65150041144114  0.04951891019102
 6 -0.44996241884188 -0.42235658285829  0.53378750805080
 6  0.49484062126213 -0.69466297919792 -0.62463784428443
 8  0.16776801690169 -1.20220562816282 -1.72070840254025
 8  1.66726853735374 -0.29770716711671 -0.23192998189819
 7 -7.05366581448145  2.50889647944794  0.40530922642264
 6 -6.10501978097810  3.33771474727473  0.79470300390039
 6 -6.31471872497250  4.76057034643464  0.72047273447345
 6 -7.60420312731273  4.77684831633163  0.36021441274127
 6 -8.11849612121212  3.44127332263226  0.06252879917992
 6 -5.38164612131213  5.71406387228723  1.12049681018102
 6 -8.47018481608161  5.95963699739974  0.24127111251125
 6 -8.37446133743374  7.08868498709871  0.93439968976898
 7 -9.12110438303830  0.65981884298430 -0.57963199689969
 6 -9.83030929062906  1.75805575867587 -0.68753507760776
 6 -11.19267836443644  1.50638897799780 -1.25625734523452
 6 -11.20637304120412  0.13647901200120 -1.36847556155616
 6 -9.96806248694869 -0.40815278957896 -0.93880889698970
 6 -12.25025384908491  2.56640721172117 -1.63842061686169
 6 -12.24606915321532 -0.67794520462046 -1.86574738323832
 6 -12.20964845324533 -0.99367177837784 -3.36082120072007
 7 -7.18068753705371 -1.42767238083808 -0.19544422142214
 6 -8.34807504730473 -2.18337350945095 -0.52798775397540
 6 -7.90846699229923 -3.63334160166017 -0.42036931423142
 6 -6.57575145924593 -3.56122045904590 -0.08513024492449
 6 -6.26847944434443 -2.21955023632363  0.04648745294529
 6 -8.55177264466447 -4.89246208860886 -0.77613609200920
 6 -5.40113458375838 -4.37079096259626  0.24523739633963
 8 -5.28786762466247 -5.56235071847185  0.35063209390939
 6 -4.27582116151615 -3.32536832663266  0.59887975327533
 6 -3.58984961586159 -3.66029125042504  1.94846521942194
 8 -3.76310791139114 -3.11173790999100  3.04614729582958
 8 -2.81003219691969 -4.72379710211021  1.88332691359136
 6 -2.00388097599760 -4.99863409250925  3.04066900240024
 6  2.78250076177618 -0.40496829142914 -1.25227642804280
 6  4.14073616261626 -0.33416159245925 -0.49286943594359
 6  5.14003748814881  0.45740200560056 -0.96047582028203
 6  5.05900432343234  1.19916256555656 -2.35343950925092
 6  6.47982231503150  0.53714556475648 -0.29378586378638
 6  7.59980751865187  0.01953160626063 -1.02817976847685
 6  8.87071894449445 -0.08081321172117 -0.16131794459446
 6  10.17687831233123 -0.63369044074407 -0.82765373587359
 6  10.00170687088709 -2.09674061016102 -1.31397486248625
 6  11.37671054795480 -0.34134791559156  0.03480434903490
 6  12.72196710441044 -0.50876492759276 -0.60108013091309
 6  13.92488195659566 -0.28196939973997  0.38188525602560
 6  15.25209133403340 -0.25039876897690 -0.40503874367437
 6  15.73733540244024 -1.65049268306831 -0.79050866856686
 6  16.32257636353635  0.48874323432343  0.47806231343134
 6  17.75242983238324  0.52576397479748 -0.20545636023602
 6  18.73891426092609  1.30571878887889  0.55739617261726
 6  20.18981765096510  1.38745907940794  0.04791955515552
 6  20.24462581638164  2.33295159235924 -1.12937393009301
 6  21.12711364216422  1.85206814311431  1.27302266566657
 1 -4.06539802430243  3.65867138853885  1.37762234913491
 1 -9.89720011271127  3.92609344434443 -0.44428982048205
 1 -10.22865615501550 -2.57250659145915 -1.13551020322032
 1 -2.54250070697070 -1.00818913281328  2.10564125532553
 1 -2.05484909010901  1.72561614421442  1.40244089448945
 1 -1.77513197069707  1.02591304420442  3.55491920542054
 1 -3.41675673567357  2.14969902740274  3.60771293669367
 1 -3.51218466116612  0.23411809580958  3.70929334213421
 1 -1.97640012491249 -1.54734469486949 -0.36901081028103
 1 -2.03111478397840 -0.10972372197220 -0.89366940654065
 1 -0.37301081848185  0.50719533343334  1.03777417651765
 1 -0.07936573857386 -1.19526404160416  1.22246620182018
 1 -5.81643041844184  6.64114275837584  0.67282299149915
 1 -5.42364935433543  5.92871623472347  2.26018231533153
 1 -4.34458841484148  5.79796096249625  0.67911108670867
 1 -9.46326837933793  5.82279842794279 -0.34007423562356
 1 -8.97726894279428  7.89230996989699  0.77917753955396
 1 -7.43540300610061  7.15291169066907  1.66450483598360
 1 -12.10977508260826  3.30192051805180 -2.36269927462746
 1 -13.17542721192119  1.90509440064006 -1.81066225772577
 1 -12.54468619971997  3.00537919261926 -0.71406265026503
 1 -12.30194497289729 -1.71497094219422 -1.45992094699470
 1 -13.28263698259826 -0.37014375117512 -1.72841836933693
 1 -13.13914026662666 -1.46914160036004 -3.65867575207521
 1 -12.24411797599760 -0.03594813241324 -3.69960345604560
 1 -11.13175945524552 -1.29236410351035 -3.64404302430243
 1 -9.25030463346335 -4.86500724362436 -1.77387065116512
 1 -7.94969433423342 -5.81470147434744 -0.68815842884288
 1 -9.15652553745375 -5.20190521182118 -0.04222604520452
 1 -3.52111280718072 -3.44481773247325  0.04194892339234
 1 -1.53529169566957 -4.21283772347235  3.46461937723772
 1 -2.71119072767277 -5.14177579517952  3.83101594049405
 1 -1.38193630513051 -5.88603787698770  2.74675862876288
 1  2.55793509760976 -1.32749458535854 -1.57927189218922
 1  2.71665914351435  0.51552583218322 -1.92269542174217
 1  4.41391229682968 -0.87516973217322  0.46914013001300
 1  3.92850181368137  1.29420813121312 -2.60450882058206
 1  5.48946435813581  2.27552781168117 -2.37914438263826
 1  5.70022733033303  0.75346645414541 -3.15401413241324
 1  6.64635669856986  1.56684068406841  0.15109775257526
 1  6.27098121752175  0.11905386798680  0.76451616831683
 1  7.29587697239724 -1.02967220242024 -1.38211953555356
 1  7.99742217811781  0.75701890999100 -1.71708463206321
 1  9.23712576417642  0.83527141214121  0.40398803100310
 1  8.68185667436744 -0.80807631383138  0.60128799249925
 1  10.29135668706871 -0.15438290059006 -1.66900178967897
 1  9.05760074557456 -1.94230220672067 -2.01443736853685
 1  11.00109266496650 -2.28369515341534 -2.09712395629563
 1  9.81236412241224 -2.84160610261026 -0.42793223292329
 1  11.38994667556756  0.73764599479948  0.40736222372237
 1  11.10742379577958 -1.12464842614261  0.85413603520352
 1  12.68587190609061 -1.54963312451245 -0.81740940854085
 1  12.93055680818082  0.09133982498250 -1.64440780208021
 1  13.80422185888589  0.80924348034803  0.90596793979398
 1  13.83845659875988 -0.95611521622162  1.27156367286729
 1  15.15669895839584  0.10195968096810 -1.50659501750175
 1  15.81329877277728 -2.52128242034203 -0.05540699459946
 1  15.08425147584759 -2.22304468006801 -1.56515393049305
 1  16.64109373877388 -1.74928045294529 -1.39786125562556
 1  16.04913011371137  1.58388622232223  0.70704724902490
 1  16.46422086928693 -0.15952512761276  1.38149091029103
 1  18.11085202390239 -0.50146669406941 -0.47291063146315
 1  17.45681274577458  0.92699001790179 -1.28785236103610
 1  18.37849864246425  2.42430658835884  0.81558956425643
 1  18.75251241154115  0.80905508650865  1.41110111041104
 1  20.45708062076208  0.46175232343234 -0.29306224222422
 1  19.89290339693969  3.47411097299730 -0.68566215961596
 1  21.40990524262426  2.63922057485749 -1.54718608190819
 1  19.69389329372937  2.11944375517552 -2.10189715871587
 1  20.98040401560156  1.02811092019202  1.87697731493149
 1  22.21732343864386  1.70294152385239  0.99386435273527
 1  20.81582131203120  2.80760084338434  1.77734817531753

