%nproc=4
%Mem=2GB
# td=(NStates=1) CAM-B3LYP/6-31G(d,p) 

TD

0 1
12 -7.10583115611561  0.61490023812381  0.07191487888789
 6 -4.86771138913891 -2.03949512791279  0.49777631033103
 6 -4.73333326222622  2.85958440574057  1.14493085798580
 6 -9.36683141864186  3.13292878837884 -0.35876873657366
 6 -9.51065137883788 -1.80763627462746 -0.89808623772377
 7 -5.13565699029903  0.37581739983998  0.72989340764076
 6 -4.34104381048105 -0.75604542654265  0.78164618781878
 6 -2.96258526392639 -0.50291971767177  1.26482683688369
 6 -2.97805124352435  1.00496316461646  1.66520725142514
 6 -4.31758875377538  1.49837058585859  1.25421245114511
 6 -2.90480556265627  1.16522881098110  3.23786519541954
 6 -1.82909637063706 -0.71238650005000  0.13754771307131
 6 -0.47349477207721 -0.42205655285529  0.63376750605061
 6  0.46791792899290 -0.62417593049305 -0.58865424592459
 8  0.17418865896590 -1.06978238583858 -1.62503883558356
 8  1.74288609910991 -0.34415181158116 -0.23451023992399
 7 -7.02236268416842  2.58196378617862  0.33662235773577
 6 -5.98319759875988  3.39057003280328  0.72274580818082
 6 -6.27656490959096  4.71807609700970  0.71687237443744
 6 -7.55993870087009  4.77483811531153  0.27306569786979
 6 -8.06021029262926  3.50581977727773 -0.04676212991299
 6 -5.29250720742074  5.81036350225023  1.15953071357136
 6 -8.46907470507051  5.94803583728373 -0.02340535513551
 6 -8.25874976627663  7.12160827942794  0.71521777157716
 7 -9.07184945754575  0.63058591969197 -0.65791982568257
 6 -9.81499775947595  1.80165011811181 -0.76133245734573
 6 -11.09713881048105  1.53324166326633 -1.17667938743874
 6 -11.26657906180618  0.10214557865787 -1.17531624562456
 6 -9.94229991069107 -0.38000997529753 -0.95956097219722
 6 -12.24370319401940  2.44206477747775 -1.38552532733273
 6 -12.41639618591859 -0.73529093919392 -1.62229303780378
 6 -12.36617410581058 -0.86439885108511 -3.22243736233623
 7 -7.20286975527553 -1.39408902250225 -0.13975865286529
 6 -8.28580882068207 -2.29656482858286 -0.54522947814781
 6 -7.80800694629463 -3.64111237873787 -0.55525280258026
 6 -6.45487937203720 -3.69775411241124 -0.17610934283428
 6 -6.14778737513751 -2.30566884818482  0.14572737693769
 6 -8.64623209060906 -4.87433027542754 -1.01843032143214
 6 -5.29506397669767 -4.43955783928393  0.20758363096310
 8 -5.19176801470147 -5.63202768616862  0.23132016271627
 6 -4.20947452685269 -3.37026281608161  0.64981484678468
 6 -3.60312094299430 -3.68392361366137  2.01420179307931
 8 -3.91653325392539 -3.16897363356336  3.08380106120612
 8 -2.74692588628863 -4.69186390879088  1.82741132203220
 6 -2.17978856675668 -5.12989721882188  3.13703863936394
 6  2.75044755645565 -0.55050284488449 -1.21944314471447
 6  3.99111120012001 -0.26378455475548 -0.54062421142114
 6  5.05159864426443  0.40271653705371 -0.97130690339034
 6  5.11536995999600  1.30185283458346 -2.27472163746375
 6  6.39478381118112  0.48180003020302 -0.12767925312531
 6  7.59697723562356 -0.08929927682768 -0.97585453595360
 6  8.83580545314532 -0.04982011241124 -0.06328814161416
 6  10.13188381288129 -0.44498156985699 -0.80764173467347
 6  10.14671137133713 -1.90625156125613 -1.40338380338034
 6  11.45476835373537 -0.22639642044204 -0.03070220162016
 6  12.68995390309031 -0.42317636873687 -0.73497352025203
 6  13.91041050945094 -0.04386558935894  0.15836290379038
 6  15.30278640354035 -0.33572730183018 -0.54698293809381
 6  15.59943161206121 -1.62736036983698 -0.89567918561856
 6  16.39014312021202  0.30753511351135  0.39370387758776
 6  17.83708829822982  0.54373577197720 -0.23959977457746
 6  18.72505287478748  1.22945116211621  0.78760919391939
 6  20.12493116231623  1.36232656615662  0.12905766896690
 6  20.21051240504050  2.28151644884488 -1.06653764646465
 6  21.02313324412441  1.81182411871187  1.31692705610561
 1 -3.95299678417842  3.45434095549555  1.72299688658866
 1 -10.00646103880388  3.93153398839884 -0.79207459895990
 1 -10.25945923532353 -2.44251359215922 -1.05148180038004
 1 -2.69534599149915 -1.12729104300430  2.13730442164216
 1 -2.06647025222522  1.36464004660466  1.19238988938894
 1 -2.07007146464646  0.66147660056006  3.72436615011501
 1 -2.91951701170117  2.33684774227423  3.44957712311231
 1 -3.70984442714271  0.66830151415142  3.67608002080208
 1 -1.85360784568457 -1.78237819821982  0.08235432623262
 1 -2.24035570807081 -0.04526727632763 -0.76839687928793
 1 -0.18089160656066  0.68270288418842  0.91767216631663
 1 -0.14937273927393 -1.12838735393539  1.72009596479648
 1 -5.47290606600660  6.75126377047705  0.58826453565357
 1 -5.23205019441944  5.93536689978998  2.34529082618262
 1 -4.14696865286529  5.75296646304630  0.74284746034603
 1 -9.17696974947495  5.94990113821382 -0.76059628782878
 1 -8.77996921282128  8.02363310221022  0.62831245304531
 1 -7.48010747654765  7.19952635213521  1.33876226172617
 1 -12.18747285238524  3.01429175517552 -2.41669467416742
 1 -13.37788745794579  2.17557144834483 -1.36122731423142
 1 -12.13196492759276  3.22579123382338 -0.59865110911091
 1 -12.48343312171217 -1.65757520262026 -1.32313726862686
 1 -13.19451817071707 -0.08546528332833 -1.45928145564556
 1 -13.22165851845184 -1.34417910411041 -3.41130101460146
 1 -12.48257182138214  0.08206366876688 -3.72781627732773
 1 -11.54329060836084 -1.34825969306931 -3.61621024102410
 1 -8.72839244224422 -4.60584132703270 -2.17500076417642
 1 -8.27022638743874 -5.97022702690269 -0.97946755975598
 1 -9.69149903480348 -4.93773879517952 -0.58206002860286
 1 -3.32444314021402 -3.61967521822182  0.05215994449445
 1 -1.45680384688469 -4.47344378407841  3.42663557885789
 1 -3.05021463006301 -4.98311992959296  4.05948878777878
 1 -1.81079919141914 -6.17844711791179  3.01321527442744
 1  2.63360266436644 -1.55336717261726 -1.31933589858986
 1  2.51602908050805 -0.00232595299530 -2.25406855905591
 1  4.10365127072707 -0.79110132533253  0.36907012301230
 1  4.14726368986899  1.27047575797580 -2.93016138583858
 1  5.22615802750275  2.49353961286129 -2.09240570877088
 1  6.09017632523252  0.92474358185819 -2.98171690269027
 1  6.51485354825483  1.39475347534753  0.28787142994300
 1  6.21871599099910 -0.12678071547155  0.85743546024602
 1  7.25801318601860 -1.10683991919192 -1.33629495309531
 1  7.99465190109011  0.50984419251925 -1.73393631723172
 1  9.06057810941094  1.02903078807881  0.29997762996300
 1  8.85029351805181 -0.75986149234924  0.91575943964396
 1  10.00389794119412  0.39640217791779 -1.66561145064506
 1  9.17391237673767 -2.08765674217422 -1.90149607440744
 1  10.85537809350935 -2.20755753965397 -2.05712995689569
 1  10.26470935693570 -2.82112405440544 -0.74901434113411
 1  11.38428610951095  0.77575980618062  0.48614010151015
 1  11.37952100550055 -0.94573053435344  0.96019664126413
 1  12.72265558445845 -1.50397855905591 -1.15700336793679
 1  12.85286903940394  0.28966965796580 -1.59659302060206
 1  13.80653208990899  0.99387194319432  0.72342968596860
 1  13.69371212431243 -0.80412001670167  0.97728424492449
 1  15.40237352585259  0.32930241524152 -1.40430478847885
 1  15.64082152505251 -2.40012030413041  0.01317986408641
 1  14.97649069976998 -2.01155353095310 -1.79700711581158
 1  16.71505113451345 -1.68743426832683 -1.28555002450245
 1  16.12398759945994  1.18519635333533  1.10129667396740
 1  16.34232868006801 -0.62290146524653  1.20621338253825
 1  18.33825476417642 -0.32464901230123 -0.65330867126713
 1  17.62640970547055  1.32750006890689 -1.32162573837384
 1  18.23980477307731  2.26873103080308  1.09827783308331
 1  18.72547970827083  0.49555373637364  1.53400340064006
 1  20.41522643534353  0.34730087828783 -0.30881381738174
 1  19.60097420402040  3.22531609350935 -0.69377297069707
 1  21.07397164926493  2.35120177297730 -1.56569793309331
 1  19.42832673707371  2.03057486828683 -1.87979494849485
 1  20.99629560476048  1.26003411251125  2.14951456865687
 1  22.15050675697569  1.93656488618862  0.99736470277028
 1  20.79706943684369  2.77299738303830  1.67560800130013

