%nproc=4
%Mem=2GB
# td=(NStates=1) CAM-B3LYP/6-31G(d,p) 

TD

0 1
<<<<<<< HEAD
12 -7.19268984198420  0.58665741384138  0.17918560596060
 6 -4.89973459145915 -1.89969114751475  0.51676820952095
 6 -4.73489341824182  2.82190063736374  1.16149251415141
 6 -9.30840557605761  3.09886538203820 -0.43804666436644
 6 -9.61122143584359 -1.74882039303930 -0.82136856595660
 7 -5.04763818841884  0.47096691479148  0.78986940524052
 6 -4.32460216631663 -0.68447826982698  0.87138516171617
 6 -2.81832083748375 -0.42541196689669  1.26027638183818
 6 -3.01199463786379  1.10128279657966  1.76534726542654
 6 -4.31421841674167  1.51203195199520  1.10552758265827
 6 -3.00811589368937  1.10631291939194  3.25798720762076
 6 -1.83309677067707 -0.60086534793479  0.09532349064907
 6 -0.49538696129613 -0.30992533973397  0.49084321362136
 6  0.48372951015102 -0.69632314521452 -0.59362474297430
 8  0.23938517861786 -0.99806521412141 -1.74267059875988
 8  1.78230004050405 -0.57651504790479 -0.21097788668867
 7 -7.11306175407541  2.62514810461046  0.44470316581658
 6 -6.00592987198720  3.39352032783278  0.81727526112611
 6 -6.33602085518552  4.79410369976998  0.78224891209121
 6 -7.73368607560756  4.79139977147715  0.39964835613561
 6 -8.11419569116912  3.45745494079408  0.17310985728573
 6 -5.54283223992399  5.97658012391239  1.12924768526853
 6 -8.56879467706771  5.91488252195220  0.19966695209521
 6 -8.52853674497450  7.06247236583658  0.73246949674967
 7 -9.03696596919692  0.58301116221622 -0.53788782248225
 6 -9.81402766246625  1.77602755585559 -0.69801612571257
 6 -11.11621071767177  1.40247858695870 -1.17520924042404
 6 -11.16265866976698  0.08501386548655 -1.37982669666967
 6 -9.92416809750975 -0.39774174847485 -0.93947896399640
 6 -12.12687151085109  2.45872644364436 -1.46251302610261
 6 -12.35081962826283 -0.60512792289229 -1.85508631713171
 6 -12.35489297769777 -0.98582099329933 -3.36004112271227
 7 -7.21265073337334 -1.28999861346135 -0.20053473047305
 6 -8.19873011281128 -2.17647281938194 -0.62994794999500
 6 -7.82353849944994 -3.58009627712771 -0.56999427672767
 6 -6.45793967806781 -3.51694603160316 -0.03848558045805
 6 -6.19431202760276 -2.11419970127013  0.09627243144314
 6 -8.55860332773277 -4.80472331473147 -0.76381485988599
 6 -5.33361783208321 -4.31224510801080  0.21810468306831
 8 -5.08997783568357 -5.53284776817682  0.20666769746975
 6 -4.20062364176418 -3.32519830963096  0.62822268756876
 6 -3.53166379727973 -3.62082730403040  1.95955632853285
 8 -3.75282688328833 -3.09009574577458  3.08249093019302
 8 -2.77777897159716 -4.73620834323432  1.83635221612161
 6 -2.17501808970897 -5.30475470457046  2.91228616411641
 6  2.76322883458346 -0.75905369997000 -1.24742594299430
 6  4.15728781778178 -0.58481665796580 -0.61397154615462
 6  5.04509799419942  0.18514477987799 -1.13413318601860
 6  5.02983140614061  0.92437508680868 -2.47578174347435
 6  6.31728606140614  0.44723657385739 -0.45251173637364
 6  7.70586812471247 -0.14086443334333 -1.07966491699170
 6  8.80599247184719 -0.04874000440044 -0.15934774757476
 6  10.17195782028203 -0.55985305700570 -0.79175014551455
 6  10.01212791299130 -2.01353228932893 -1.23681714671467
 6  11.35817869476948 -0.20471425222522  0.00816168476848
 6  12.73640854855486 -0.37227127822782 -0.67831785468547
 6  13.92121158955896 -0.09032023482348  0.20488755625563
 6  15.37628375327533 -0.19239296839684 -0.50646888668867
 6  15.60772244114411 -1.68990662446245 -0.79087870557056
 6  16.38242234813481  0.54513887388739  0.43925843304330
 6  17.67535212461246  0.58369976837684 -0.20521633623362
 6  18.79260963046305  1.20764898189819  0.75327576057606
 6  20.31085975517552  1.27982831633163  0.28870363356336
 6  20.32220357415742  2.08642693989399 -1.04918591129113
 6  21.16063699449945  2.08852178847885  1.27930329372937
 1 -4.09709119361936  3.64272979437944  1.43557814471447
 1 -10.07731812451245  3.90719155415541 -0.53169856135614
 1 -10.21847513691369 -2.52282162296230 -1.08040469266927
 1 -2.55842229912991 -0.95695400930093  2.12306299749975
 1 -2.28115172037204  1.62120570317032  1.35983663406341
 1 -2.21821627912791  0.52757321022102  3.55573928742874
 1 -2.76976203620362  2.13930798829883  3.89963212861286
 1 -3.71037448014801  0.44833951795179  3.81973438623862
 1 -1.99996248114812 -1.60428038843884 -0.48659256845685
 1 -2.16660833333333 -0.05477822742274 -0.77474751435144
 1 -0.61860537793779  0.75906051995199  0.65813621272127
 1 -0.02674047604760 -0.77492200740074  1.45017897309731
 1 -5.45513428882888  7.02668131223122  0.47649335853585
 1 -5.90297728712871  6.31930529362936  2.08268456555656
 1 -4.35450940694069  5.67163833023302  1.46058923452345
 1 -9.25695774827483  5.88094424252425 -0.65779600780078
 1 -9.44620583648365  7.81965270417042  0.60007962976298
 1 -7.97093655945595  7.44670106960696  1.65653403890389
 1 -11.82298640374037  3.20017034303430 -2.33548655335534
 1 -13.14458412761276  2.10883477467747 -1.61754294579458
 1 -12.14723645474548  3.25634428912891 -0.66359760376038
 1 -12.26480125852585 -1.69315876097610 -1.29955491039104
 1 -13.28514723362336 -0.39963670047005 -1.62406793429343
 1 -13.25951230383038 -1.57489217541754 -3.71857174167417
 1 -12.35404896909691  0.03913937633763 -3.84136763246325
 1 -11.43823010231023 -1.37046191329133 -3.68108672867287
 1 -9.15306490949095 -5.00045078797880 -1.74286755085509
 1 -7.97695706050605 -5.77906791099110 -0.67710732373237
 1 -9.34896478137814 -4.91706672797280  0.00401857925793
 1 -3.54091478737874 -3.42423567426743 -0.17247251875188
 1 -1.68444661116112 -4.59936637633763  3.60824373967397
 1 -2.84180378897890 -5.70955257285729  3.65957879677968
 1 -1.39664777627763 -6.04683395659566  2.49535348824882
 1  2.60520982508251 -1.70139197509751 -1.71315528052805
 1  2.66002347994799 -0.11348706910691 -2.16275942814281
 1  4.24872577817782 -1.24026624182418  0.28177139313931
 1  4.02649161266127  1.16425513591359 -2.71036940664066
 1  5.62053746544654  1.86378663756376 -2.61754822302230
 1  5.49906721432143  0.39072017951795 -3.29903863486349
 1  6.32745480838084  1.47111111111111 -0.14800215741574
 1  6.49085320472047 -0.12839087648765  0.54491420812081
 1  7.41792917761776 -1.19065830103010 -1.46189751335133
 1  7.94036647254725  0.55265847394739 -1.82846577017702
 1  9.09351140274027  0.90026791179118  0.19666729892989
 1  8.73274176287629 -0.71913741994199  0.81618948264826
 1  10.15162271367137  0.11147368506851 -1.67966285578558
 1  9.15077006250625 -2.31009898639864 -1.81122704750475
 1  10.86824938063806 -2.32661944584458 -1.88456270017002
 1  9.93195608160816 -2.76873881588159 -0.22571201090109
 1  11.42666034693469  0.79178140834083  0.31543303080308
 1  11.46118917231723 -0.77813377467747  0.95108573017302
 1  12.70918423732373 -1.36024418561856 -1.01660932853285
 1  12.64392814531453  0.42809350035004 -1.50970433173317
 1  13.87456889358936  1.03800635663566  0.57569491249125
 1  13.75073782688269 -0.73959356405641  0.88231474797480
 1  15.29245253375337  0.15783526852685 -1.53366772477248
 1  15.89501694459446 -2.24535482758276  0.16451499759976
 1  14.78764181488149 -1.92091446704670 -1.28675609070907
 1  16.60260989038904 -1.70154567946795 -1.38158962846285
 1  15.96787198789879  1.53838167186719  0.72100864516452
 1  16.58666311351135  0.02961378627863  1.29896265746575
 1  18.04298523722372 -0.60413696109611 -0.48785212561256
 1  17.70022708720872  1.24321164006401 -1.03460703650365
 1  18.52417320992099  2.24820897859786  0.99281728702870
 1  18.84362152245225  0.67141132213221  1.68374837513751
 1  20.95632054475448  0.33926007420742  0.30689775377538
 1  19.93511761836184  3.09051261316132 -0.87272086548655
 1  21.32030628272827  2.21016766956696 -1.46966833013301
 1  19.86730063446345  1.68700051085109 -1.87571454045405
 1  21.18017399259926  1.64552266136614  2.33670328752875
 1  22.19912161846185  2.17418864856486  1.04835980228023
 1  20.74940467036704  3.28462854615462  1.39174961546155
=======
12 -7.08450902390239  0.59592834093409  0.16310399779978
 6 -4.80922554055406 -1.92236341474147  0.50711724442444
 6 -4.75436536543654  2.84313276057606  1.14699106400640
 6 -9.33933866936694  2.99335483098310 -0.30720358005801
 6 -9.60331064476448 -1.76962247324733 -0.87942437153715
 7 -5.11478490309031  0.48728854695470  0.75864628292829
 6 -4.30381008710871 -0.66744656665667  0.75003302650265
 6 -2.94693369876988 -0.37838726442644  1.23735408960896
 6 -2.98606204460446  1.09835250355036  1.62837356805681
 6 -4.36795379027903  1.55904665346535  1.07496452635264
 6 -2.92353743584358  1.38384067216722  3.12679408830883
 6 -1.96286974797480 -0.60722598399840  0.08607256555656
 6 -0.44387180978098 -0.50947529472947  0.54211834113411
 6  0.50081121832183 -0.66544005690569 -0.66938231873187
 8  0.17267850795080 -0.86019142674267 -1.78352468416842
 8  1.77014882538254 -0.27483487988799 -0.28929571847185
 7 -6.99510995889589  2.56796238603860  0.29214791029103
 6 -6.01088036703670  3.33872484828483  0.67001053465347
 6 -6.42151940504050  4.73965825522552  0.78192888008801
 6 -7.68221092809281  4.81907253875388  0.29154754605461
 6 -8.07942221382138  3.39764896019602 -0.04300175387539
 6 -5.53582153885389  5.94669713561356  0.99011377187719
 6 -8.57003480108011  5.98635966966697  0.19996698209821
 6 -8.47556144744475  7.13020913951395  0.83050930073007
 7 -9.11053332593259  0.56763962506251 -0.63018705240524
 6 -9.79703596329633  1.73317327042704 -0.61649797389739
 6 -11.24857395399540  1.43478181728173 -1.10548226772677
 6 -11.22758516241624  0.09422478657866 -1.23422213621362
 6 -9.96875255595559 -0.49204117841784 -0.86036105220522
 6 -12.31385020872087  2.47207777877788 -1.36102287708771
 6 -12.36992153845384 -0.81321873197320 -1.63045385388539
 6 -12.32527001540154 -1.10091250245025 -3.08771388998900
 7 -7.24025349364936 -1.40123973757376 -0.03670834783478
 6 -8.32861310111011 -2.25842101420142 -0.39660461566157
 6 -7.81470761636164 -3.54408267576758 -0.43746102340234
 6 -6.49430331443144 -3.62806714371437 -0.04099583148315
 6 -6.13505610201020 -2.18013629492949  0.09257206140614
 6 -8.48400586798680 -4.86342918531853 -0.91889036743674
 6 -5.34918938923892 -4.35658954245424  0.13793666626663
 8 -5.11496033393339 -5.59337382078208  0.11108813951395
 6 -4.13340692009201 -3.27565335513551  0.50362022732273
 6 -3.49811044194419 -3.61528674997500  1.86843721662166
 8 -3.82203380398040 -2.89632636883688  2.87234991609161
 8 -2.71165235893589 -4.66812153455346  1.74326290719072
 6 -2.21351193909391 -5.24826905600560  2.91175611111111
 6  2.87445995769577 -0.61388918351835 -1.26829803020302
 6  4.16742883188319 -0.40699887618762 -0.56415656465647
 6  5.13156664106411  0.45209147454745 -0.93688346104610
 6  5.21147957095710  1.23146579587959 -2.22617678297830
 6  6.35430976377638  0.31954380458046 -0.11620810601060
 6  7.60761829972997 -0.17694804170417 -1.00948789928993
 6  8.86298817141714 -0.05048017841784 -0.17632944574457
 6  10.20176080058006 -0.59490656235624 -0.86891786228623
 6  10.05027172737274 -2.08326926302630 -1.13986745174517
 6  11.43384626152615 -0.33513729452945  0.12193306190619
 6  12.75833074077408 -0.55889994109411 -0.65963598649865
 6  13.88469793819382 -0.11272247504750  0.18568563606361
 6  15.30111623652365 -0.21287501660166 -0.46459469926993
 6  15.70166183508351 -1.67984561836184 -0.97932755045505
 6  16.43966807270727  0.30901526152615  0.46297080428043
 6  17.82597718711871  0.48834023242324 -0.15544135873587
 6  18.78425879537954  1.17523574057406  0.76631706470647
 6  20.18823749294929  1.34393472697270  0.25367013021302
 6  20.14008536233623  2.31267956515652 -1.06983797649765
 6  21.17561849264927  1.93179611591159  1.23193855725573
 1 -3.91671315581558  3.61260678207821  1.36511109800980
 1 -9.88600899359936  3.86166700170017 -0.43594898639864
 1 -10.31347463686368 -2.43118245904590 -1.07148380058006
 1 -2.59149560646065 -0.99935824972497  1.97044773597360
 1 -2.15890949614962  1.81756533913391  1.11710236063606
 1 -2.01546600410041  1.24755520842084  3.73423713721372
 1 -3.29379443944394  2.55372943044304  3.51552371777178
 1 -3.60038348104810  0.77202188618862  3.85549796259626
 1 -2.13853633853385 -1.46288624902490 -0.53173708290829
 1 -2.07281895439544  0.27493474387439 -0.59985002460246
 1 -0.21951546894690  0.39596421032103  1.13260365946595
 1 -0.21331913391339 -1.26007052225223  1.21259521472147
 1 -6.09479825522552  6.82533117721772  0.69466517571757
 1 -5.48664565396540  6.14861822492249  2.03934023112311
 1 -4.52952690869087  5.90482164856486  0.55958913451345
 1 -9.49991204370437  5.83188933703370 -0.59961018921892
 1 -9.15044626052605  7.94302504140414  0.65586520832083
 1 -7.84451391719172  7.23627002650265  1.85482386788679
 1 -11.83723782888289  3.21781210721072 -2.10187319201920
 1 -13.18275794499450  1.98478236943694 -1.75058625012501
 1 -12.77585931703170  3.00272892759276 -0.47355859985999
 1 -12.50227500590059 -1.68011745684568 -1.01161611651165
 1 -13.30391911081108 -0.33370010681068 -1.39216474397440
 1 -13.21711806440644 -1.78516320252025 -3.34510439493949
 1 -12.35495906010601 -0.19656419401940 -3.77850134583458
 1 -11.62797907720772 -1.80212507960796 -3.27674629462946
 1 -8.83399300230023 -4.67557830073007 -2.08435169926993
 1 -7.75764512931293 -5.71364136833683 -0.87058667166717
 1 -9.29484936983698 -5.25080010131013 -0.29322114471447
 1 -3.27654835073507 -3.32460571127113 -0.34667993949395
 1 -1.65814398089809 -4.41768820852085  3.44111702700270
 1 -3.06549615821582 -5.43193481108111  3.59107194609461
 1 -1.59673778527853 -6.21004027722772  2.79872382528253
 1  2.61688099219922 -1.76245808170817 -1.63184714971497
 1  2.82258973657366 -0.07753347374737 -2.26807996019602
 1  4.25007591319132 -1.00585280048005  0.27060027602760
 1  4.05984494799480  1.36525523592359 -2.36119448914891
 1  5.70582599429943  2.38042830173017 -2.18506497469747
 1  5.72628993659366  0.51574268176818 -3.02605133613361
 1  6.64465652855286  1.24108810881088  0.34778742154215
 1  6.28085220462046 -0.35510354775478  0.59852956965697
 1  7.39525691039104 -1.28930816601660 -1.33065438903890
 1  7.70334277017702  0.37647085518552 -1.79244216781678
 1  9.10168221982198  0.97230511551155  0.30803843604360
 1  8.81318980768077 -0.63497900410041  0.83395125882588
 1  10.30199775117512 -0.04977243954395 -1.67743263276328
 1  9.26767175267527 -2.35604358085809 -1.98412433723372
 1  11.04211676737674 -2.39872665656566 -1.59615385928593
 1  9.59551243724373 -2.59475141714171 -0.24002344204420
 1  11.53071075197520  0.54707693789379  0.66433792129213
 1  11.22606565996600 -1.09436539783978  0.86692731433143
 1  12.79552287118712 -1.55381354255426 -0.98790645824583
 1  12.65077883038304  0.07135782678268 -1.42821618291829
 1  13.74127556425643  0.97739029502950  0.48499584258426
 1  13.82569532263226 -0.88978858355836  1.19495601210121
 1  15.23608689718972  0.41895138013801 -1.37992235023502
 1  15.58138558145814 -2.10847113921392 -0.10300175407541
 1  14.91742479317932 -2.13843621922192 -1.46666408150815
 1  16.84611424082409 -1.68850437533753 -1.44034550405040
 1  16.11982718341834  1.10241807550755  1.07322386668667
 1  16.78943339053905 -0.70961013611361  1.19250201140114
 1  17.97406834553455 -0.60611715911591 -0.13157649804980
 1  17.73310037453746  0.94015133403340 -1.02668624442444
 1  18.35083587618762  2.13153731143114  1.00779878517852
 1  18.77385454575458  0.81344552555256  1.71740174047405
 1  20.50521543424342  0.41586773497350 -0.08526146214621
 1  19.70255436203620  3.46507006890689 -0.82497609100910
 1  21.15351960406041  2.43531018381838 -1.63882524582458
 1  19.69509341374138  1.77600941174117 -1.74623159215922
 1  21.24005998119812  1.45604371347135  2.13389300650065
 1  22.17503921022102  1.99620084978498  0.71620658695870
 1  20.76155588548855  2.99613969726973  1.40320076057606
>>>>>>> 8e03b5b5abfc0030b3aa597dc0de36371bfbd096

