%nproc=4
%Mem=3GB
# td=(NStates=1) iop(3/107=0140000000,3/108=0140000000) CAM-B3LYP/6-31G(d,p) 

TD

0 1
12 -7.18403309500950  0.67567595109511  0.03362973297330
 6 -4.91418023452345 -1.99429666026603  0.55519092149215
 6 -4.73070910151015  2.84813353125313  1.17941804700470
 6 -9.27781454595460  3.08471602460246 -0.49700217551755
 6 -9.54782088008801 -1.71844361006101 -0.80729753465347
 7 -5.11916894809481  0.44964105470547  0.76583440744074
 6 -4.39873212051205 -0.68934007720772  0.78175607030703
 6 -2.96607282788279 -0.47976637463746  1.33413908300830
 6 -3.10944417131713  1.05050375197520  1.83172945224522
 6 -4.38252848754875  1.49549420052005  1.07749214311431
 6 -3.04461064186419  0.98119093839384  3.37996331093109
 6 -2.00800653035304 -0.60348633783378  0.08015182548255
 6 -0.53885959515952 -0.52471571957196  0.60266364866487
 6  0.53090501370137 -0.64079070097010 -0.58263805390539
 8  0.25894611141114 -0.77384116181618 -1.76539393249325
 8  1.81853045144514 -0.53441337973797 -0.00293568116812
 7 -7.08313595699570  2.65201841174117  0.38697962206221
 6 -5.95430557435744  3.36252001940194  0.71295717181718
 6 -6.23337824622462  4.81027789138914  0.68336659535954
 6 -7.60177496279628  4.91193299849985  0.22451857825783
 6 -8.05424495199520  3.57130406920692  0.06236423502350
 6 -5.43068510241024  5.90274974867487  1.27898805400540
 6 -8.44984499249925  6.03406367596760  0.05859647214721
 6 -8.13922233223322  7.27344649434944  0.64622868216822
 7 -9.03897293839384  0.73562055645565 -0.57225379927993
 6 -9.78718620492049  1.79370269456946 -0.74194700820082
 6 -11.12190614331433  1.46331577607761 -1.18007286698670
 6 -11.26106559375938  0.13011055685569 -1.23273330163016
 6 -9.85428303190319 -0.34203439683968 -0.90039224052405
 6 -12.22993393109311  2.50652589398940 -1.43740319301930
 6 -12.34655844874487 -0.72448857265727 -1.72028135873587
 6 -12.10533244214422 -1.12752294459446 -3.28000865206521
 7 -7.22550551295129 -1.40621545724572 -0.25185786088609
 6 -8.26979130543054 -2.26682522802280 -0.45944752465246
 6 -7.87837987778778 -3.61775232663266 -0.51778207800780
 6 -6.53349113961396 -3.56874985708571 -0.07571965366537
 6 -6.16139987168717 -2.22054000980098  0.05193702910291
 6 -8.85469780928093 -4.84407050545054 -0.97880126322632
 6 -5.36362182508251 -4.41286484988499  0.16810178427843
 8 -5.30553154545455 -5.57626448344835  0.23349929852985
 6 -4.25093959655966 -3.42810025742574  0.59929825142514
 6 -3.55658983578358 -3.83489143184318  1.88357432593259
 8 -3.74335711911191 -3.27222458035804  2.95351871007101
 8 -2.68924427722772 -4.83751236973697  1.67389642714271
 6 -2.01269022602260 -5.27009221512151  2.92034943534353
 6  2.75919223962396 -0.67084537343734 -1.09689320652065
 6  4.09912079727973 -0.49897516541654 -0.50406296909691
 6  5.03896938823882  0.41588811681168 -0.91115399239924
 6  5.04778850445044  1.17266494179418 -2.08962309730973
 6  6.37373365206521  0.49634025002500 -0.12034255865587
 6  7.57125857845785 -0.12202075007501 -0.98431876057606
 6  8.85636334793479 -0.08916073217322 -0.20195629802980
 6  10.12648810941094 -0.54390605380538 -0.86174189418942
 6  10.16332960956096 -2.13345122502250 -1.31247821382138
 6  11.33622828662866 -0.18370326142614  0.07208924642464
 6  12.69657739323933 -0.49646968046805 -0.63887139223922
 6  13.90071134293429 -0.15584129842984  0.20359677127713
 6  15.27905389638964 -0.19400848444844 -0.42569822232223
 6  15.63087935893589 -1.62335072337234 -0.94117594389439
 6  16.38939593229323  0.50161667896790  0.52111684638464
 6  17.78824641234123  0.59717344694469 -0.07127365436544
 6  18.80091050965096  1.27681576007601  0.71668492519252
 6  20.13873667806781  1.30839027152715  0.03130983698370
 6  20.28779162496250  2.16685399049905 -1.27208190409041
 6  21.19795486248625  1.87813951385139  1.19617355735574
 1 -3.94964532803280  3.60396364776478  1.40691678747875
 1 -10.04179630293029  3.85344761926193 -0.43030755695570
 1 -10.48475289938994 -2.12924845994599 -1.14037185658566
 1 -2.61412870007001 -1.12913311601160  2.01810830153015
 1 -2.17847131343134  1.50959302040204  1.29127277627763
 1 -2.10865395179518  0.53485259165917  3.50514085148515
 1 -2.90957806690669  1.94492371517152  3.69976799899990
 1 -4.03140594109411  0.42217737203720  3.70859254445444
 1 -2.26596171517152 -1.54492516331633 -0.47174518161816
 1 -2.12048841784178  0.19667728752875 -0.65916265086509
 1 -0.36598202690269  0.39776936423642  1.08838270127013
 1 -0.16790521082108 -1.25222598919892  1.41953541184118
 1 -5.64516869456946  6.84580209220922  0.61982181348135
 1 -5.79401087238724  6.13489637103710  2.44491650415041
 1 -4.28076292089209  5.79266353435344  1.32978371097110
 1 -9.51252151195120  6.08772215421542 -0.46213756645665
 1 -8.72786184988499  8.12104182518252  0.56471624732473
 1 -7.04001193329333  7.59622645904590  0.96640560086009
 1 -12.24722519551955  2.80114926202620 -2.65720155165517
 1 -13.28004530223022  2.02943168556856 -1.40180590879088
 1 -12.00517154985499  3.37979531363136 -0.59444988448845
 1 -12.26916888178818 -1.59260018281828 -1.14901840274027
 1 -13.44658695779578 -0.29947265776578 -1.62008776317632
 1 -12.92522772197220 -1.83107676977698 -3.50828178627863
 1 -11.94621502720272 -0.18648712001200 -3.68676765516552
 1 -11.16325116451645 -1.77169819701970 -3.19756803500350
 1 -9.05294991359136 -4.66402290309031 -2.00931699469947
 1 -8.40675506070607 -5.76643259655966 -0.83025298039804
 1 -9.74092827182718 -4.67098554695470 -0.60436270497050
 1 -3.58118563706371 -3.60346695229523 -0.12995073317332
 1 -1.30684407200720 -4.34898711211121  3.41105282288229
 1 -2.75350178747875 -5.75711523642364  3.79139017671767
 1 -1.21113163366337 -6.04891567636764  2.82616597769777
 1  2.63887194199420 -1.56306292909291 -1.53964541324132
 1  2.36955339663966  0.16276436123612 -1.73145420292029
 1  4.33808429512951 -1.07856627042704  0.42570397059706
 1  3.83876918841884  1.37463300600060 -2.18013849954996
 1  5.50069700190019  2.01481190509051 -2.04320175857586
 1  5.31311087958796  0.67027821872187 -3.06073233013301
 1  6.61142932683268  1.49110909150915  0.08584819871987
 1  6.34105197729773 -0.15038237493749  0.72993918941894
 1  7.32778490129013 -1.08487916091609 -1.38046280348035
 1  7.60078263676368  0.42197130013001 -1.94360518341834
 1  8.90264630893089  0.84118361586159  0.25883831193119
 1  8.72175529632963 -0.58553690639064  0.71335745914591
 1  10.23891852365237  0.15673182098210 -1.83435859385939
 1  9.40711032013201 -2.11234951845184 -1.98068645054505
 1  10.98326746734674 -2.23350674997500 -1.97703306140614
 1  10.20725292239224 -2.80130424512451 -0.37685507920792
 1  11.37999964156416  1.12040847424742  0.18274604540454
 1  11.27687528302830 -0.74173547114711  0.91514783488349
 1  12.91894984748475 -1.56997441674167 -0.90425269676968
 1  12.83993982388239  0.11613654965497 -1.57474180788079
 1  13.76526794709471  0.85083044634463  0.47902273097310
 1  13.75325363596360 -0.85489186808681  0.98800117411741
 1  15.33111351275128  0.36310970797080 -1.31761303010301
 1  15.82461625842584 -2.16104544574457  0.06393825832583
 1  14.84501614601460 -2.02874739473947 -1.53853522702270
 1  16.54693297289729 -1.37789868686869 -1.44513102640264
 1  15.94097737123712  1.50797913161316  0.84653056935694
 1  16.32119619741974 -0.15924220902090  1.54640313501350
 1  18.15140187788779 -0.41993850785079 -0.31634182978298
 1  17.58327563716372  1.14689358345835 -1.03919966356636
 1  18.48404746164616  2.24316558455846  1.05327727452745
 1  18.75141110361036  0.69716455595560  1.65302854835484
 1  20.59216904920492  0.28603960156016 -0.09134324212421
 1  20.14394121262126  3.29946072257226 -1.15577776247625
 1  21.36471027182718  1.72977411951195 -1.59113709490949
 1  19.54697309490949  1.77595788598860 -2.15140352475248
 1  21.32965681918192  1.23974961586159  2.04304797359736
 1  22.24654254705471  1.84223469416942  0.54246089968997
 1  21.04141421992199  3.01563768096810  1.39522665936594

