%nproc=4
%Mem=2GB
# td=(NStates=1) CAM-B3LYP/6-31G(d,p) 

TD

0 1
12 -7.16229680268027  0.57954670277028  0.04501218861886
 6 -4.90078469646965 -2.00993217161716  0.62522905560556
 6 -4.80069999889989  2.83579202650265  1.07210357525753
 6 -9.42029676517652  3.06107160266027 -0.32565542524252
 6 -9.47512782648265 -1.68892440344034 -1.02484891399140
 7 -5.13674709930993  0.38538835693569  0.78887930623062
 6 -4.33634334043404 -0.74123394539454  0.90948897209721
 6 -2.98529753515352 -0.38202762846285  1.33379373357336
 6 -3.02699613801380  1.16434910321032  1.67720845154515
 6 -4.39228622352235  1.54429517831783  1.11404843474347
 6 -2.90724580668067  1.43320560866087  3.21262267116712
 6 -1.84261772277228 -0.71027628902890  0.23781774007401
 6 -0.42581000360036 -0.43091743894389  0.65992012131213
 6  0.48046918411841 -0.80637415031503 -0.47796317681768
 8  0.20086132623262 -0.95567097469747 -1.62916924862486
 8  1.78265007550755 -0.54969236563656 -0.08281507040704
 7 -7.12456290419042  2.57609319911991  0.33246194169417
 6 -6.09127840684068  3.32375335113511  0.70116364996500
 6 -6.34068132123212  4.74913920332033  0.61718240544054
 6 -7.74193690069007  4.82142277377738  0.35384377567757
 6 -8.18942321392139  3.43515271057106  0.11397394369437
 6 -5.45475343204320  5.84396686258626  1.03143790429043
 6 -8.57631542914291  5.95242627632763  0.07790477587759
 6 -8.45190908220822  7.08883500210021  0.67960421022102
 7 -9.17163943654365  0.62916577767777 -0.47300133383338
 6 -9.89521578127813  1.77037699079908 -0.58790511461146
 6 -11.18282737933793  1.47104544364436 -1.09401112061206
 6 -11.24026643054305  0.07943330743074 -1.25284399839984
 6 -9.96922260296030 -0.33780575487549 -0.92363737983798
 6 -12.42891171487149  2.41831240224022 -1.12540931573157
 6 -12.39315386168617 -0.72981039113911 -1.86282709120912
 6 -12.30554804320432 -0.92628503970397 -3.38887400600060
 7 -7.22275174347435 -1.43879349294929 -0.22180685768577
 6 -8.32954319411941 -2.15305047714771 -0.61616657185719
 6 -7.86257240284028 -3.60173844134413 -0.62368964626463
 6 -6.55260914501450 -3.60287462446245 -0.20077180908091
 6 -6.18147074347435 -2.21125940724072  0.09335213941394
 6 -8.65386285368537 -4.71572441484148 -0.93953243164316
 6 -5.33918838913891 -4.32605648914891  0.13274614721472
 8 -5.23656249414941 -5.57054153755375  0.21518854955496
 6 -4.12713629302930 -3.34281007080708  0.56818668396840
 6 -3.61361199209921 -3.75910113141314  1.89482985588559
 8 -3.76850845144514 -3.06002273847385  2.90070275137514
 8 -2.72158335203520 -4.78615333773377  1.82191077197720
 6 -2.10265085298530 -5.16550077917792  3.06199113461346
 6  2.82050456215622 -0.63281107570757 -1.02017321772177
 6  4.13509559855986 -0.44735291159116 -0.44341449044905
 6  5.15069855425542  0.31859812521252 -0.83737351005101
 6  5.08807723072307  1.26028867816782 -2.03876804210421
 6  6.46067039983998  0.44617646784678 -0.22829931513151
 6  7.61390892879288 -0.13918426532653 -1.05863281378138
 6  8.89384125672567 -0.14064919531953 -0.24845665846585
 6  10.26749737423742 -0.60582765446545 -0.91835280578058
 6  10.15597229742974 -2.02565350145014 -1.36177964296430
 6  11.43558643554355 -0.36084986578658  0.01270213881388
 6  12.74119902760276 -0.52194624572457 -0.71002102500250
 6  13.99406887528753 -0.07026822962296  0.12590965846585
 6  15.33267939283928 -0.29369309840984 -0.53100133993399
 6  15.67837950685069 -1.75426306010601 -0.86211582928293
 6  16.49271337723772  0.37872223222322  0.42366687388739
 6  17.83549813921392  0.60400179857986 -0.23627944254425
 6  18.86477684718472  1.30273849084908  0.72887332033203
 6  20.34925359455945  1.39029936343634  0.21519628282828
 6  20.36940829462946  2.23026132333233 -1.14388538123812
 6  21.22633356415642  2.01773470977098  1.28550391379138
 1 -3.93586507100710  3.73893941534153  1.31217580448045
 1 -9.98783917661766  3.81254208920892 -0.60708610011001
 1 -10.09875316471647 -2.31005034583458 -1.55782243444345
 1 -2.70348680558056 -0.99339765366537  2.00695138633863
 1 -2.18513211841184  1.77360094269427  1.14891554195420
 1 -2.04823928142814  1.10418087098710  3.82340605410541
 1 -3.05490055005501  2.55256931443144  3.41182334773477
 1 -3.76798024072407  1.07791247524753  3.92028444124412
 1 -1.92333481838184 -1.83301326172617 -0.04555846504650
 1 -2.12084375687569 -0.00253300290029 -0.72366240584058
 1 -0.05660917831783  0.61704631853185  0.87752815191519
 1 -0.16515431743174 -0.86613112831283  1.66369032423242
 1 -6.03791256665667  6.68250689478948  0.67243295249525
 1 -5.35479246864687  6.02143550665067  2.07776407350735
 1 -4.34430838683868  5.62888405480548  0.41534471007101
 1 -9.39587163966397  5.78190433853385 -0.71067129532953
 1 -9.10607182308231  8.04092483138314  0.37179680148015
 1 -7.70884034983498  7.35130152965297  1.51910029552955
 1 -12.26664076917692  3.04163448944894 -2.05142814751475
 1 -13.26486615581558  1.75498939013901 -1.28854004550455
 1 -12.50348207930793  3.28478713341334 -0.41455269926993
 1 -12.45293007140714 -1.73619306440644 -1.38085304020402
 1 -13.39523824272427 -0.37035377217722 -1.67391291879188
 1 -13.04539089168917 -1.74826951315132 -3.88850873537354
 1 -12.69622318651865  0.09073453585359 -3.88488198389839
 1 -11.20057633693369 -1.29901476857686 -3.68535715571557
 1 -9.07269687268727 -4.58511925482548 -2.18695195929593
 1 -8.07135650045004 -5.58446845104510 -0.80083969696970
 1 -9.65765565046505 -4.94779980128013 -0.35718754135414
 1 -3.41816251215122 -3.41008425912591 -0.07024229572957
 1 -1.47115528202820 -4.36773321302130  3.47806072137214
 1 -2.75736534513451 -5.33691530913091  3.97739057795780
 1 -1.71993010451045 -6.14571384458446  2.84970892379238
 1  2.93187249134914 -1.58843067896790 -1.69681364636464
 1  2.62796027362736  0.15199947954795 -1.64643779597960
 1  4.40734163976398 -1.10327254245425  0.41035425142514
 1  4.05846480998100  1.53613232363236 -2.24033240294029
 1  5.44242965466547  2.12102236113611 -1.72556902510251
 1  5.54493180078008  0.75926703420342 -2.91132986398640
 1  6.65889795269527  1.52029602960296 -0.04942229942994
 1  6.54908902830283  0.23166512911291  0.79781949864986
 1  7.40552793749375 -1.19437867306731 -1.53917524112411
 1  7.73273570947095  0.56621983008301 -1.85886881048105
 1  8.97745979757976  0.96777466246625 -0.07073944174417
 1  8.83938242694270 -0.57447295349535  0.66230409410941
 1  10.28422597399740  0.06164870257026 -1.83228811831183
 1  9.40618560406041 -2.40904888138814 -2.09891581638164
 1  11.09904245994599 -2.32267905180518 -1.98689293319332
 1  10.23026591259126 -2.71624356635664 -0.46364580428043
 1  11.45253293419342  0.67647987818782  0.41708319581958
 1  11.14307736113611 -1.06682264356436  0.81149177077708
 1  12.74805812471247 -1.70592875407541 -1.04893256085609
 1  12.72619637213721  0.15798648964896 -1.55811917321732
 1  13.94100553725372  1.03021557755776  0.26490383338334
 1  13.68386113921392 -0.58994859955996  0.95917243374337
 1  15.35524881338134  0.30808029302930 -1.40506486448645
 1  15.67539498239824 -2.40694098619862 -0.10189164306431
 1  15.06035908660866 -2.11045342094209 -1.64696211131113
 1  16.65707533693369 -1.90852637753775 -1.40453192269227
 1  16.31770697139714  1.33753158685869  0.79015555985599
 1  16.85664011121112 -0.41275045014501  1.22421518271827
 1  18.11346228492849 -0.39585613301330 -0.62665600600060
 1  17.69629669416942  1.32823014191419 -1.04675825162516
 1  18.50955174777478  2.20067422512251  0.87457546284628
 1  18.81087824812481  0.79676385738574  1.62852285258526
 1  20.62388730143014  0.52000814901490 -0.05765870187019
 1  19.75507961456146  3.24048761066107 -1.08571216461646
 1  21.47178143024302  2.53935058785879 -1.38163952725273
 1  19.83775768016802  1.61427323812381 -1.94608157715772
 1  21.16523249844985  1.41046915601560  2.20014963216322
 1  22.39663136943694  2.12037326702670  1.04635960226023
 1  21.17016674657466  3.19886997029703  1.51720216071607

