%nproc=4
%Mem=2GB
# td=(NStates=1) CAM-B3LYP/6-31G(d,p) 

TD

0 1
12 -7.07846841984198  0.65062381048105  0.16175386278628
 6 -4.77398201620162 -1.99044022242224  0.46876340904090
 6 -4.82309223812381  2.80217866516652  1.29780614551455
 6 -9.32282701820182  3.09348484398440 -0.30693355305531
 6 -9.49826013971397 -1.68921443244324 -0.92745917501750
 7 -5.07423084768477  0.39865968406841  0.86532695099510
 6 -4.28884859095910 -0.77592741474147  0.90273829702970
 6 -2.85916492189219 -0.43347277297730  1.30657101130113
 6 -3.01619505790579  1.07089975827583  1.80048077877788
 6 -4.37086408130813  1.56484723352335  1.24318134803480
 6 -3.07921300340034  1.11286357445745  3.30078148704871
 6 -1.94129759075908 -0.58356361776178  0.03405736403640
 6 -0.42313973657366 -0.36878122532253  0.52395652495250
 6  0.48467960516052 -0.68069158205821 -0.68946432693269
 8  0.22672391249125 -1.11824723232323 -1.74878120982098
 8  1.76169798029803 -0.49287668406841 -0.27812460136014
 7 -7.11582203010301  2.67222281208121  0.41029972547255
 6 -6.01965124412441  3.29066004180418  0.95818935253525
 6 -6.31939919301930  4.77229151855185  0.84915560276028
 6 -7.66004871187119  4.83312394389439  0.41383977527753
 6 -8.04484875647565  3.49348854415442  0.08667121342134
 6 -5.45877383408341  5.85991845774578  1.15885064556456
 6 -8.39074687228723  5.96888792249225  0.06171315671567
 6 -8.31411530283028  7.23107922652265  0.58684493429343
 7 -9.02291456405641  0.69509237033703 -0.60824485818582
 6 -9.76410266996700  1.87654760786079 -0.58696502060206
 6 -11.14988408500850  1.52433077217722 -1.08840055955596
 6 -11.16492889678968  0.22767813191319 -1.31007972197220
 6 -9.88337401810181 -0.33930590489049 -1.02265728182818
 6 -12.16022484618462  2.57464803580358 -1.36659343414341
 6 -12.34143869016902 -0.64080149024902 -1.75414622312231
 6 -12.12137962636264 -1.28010042124212 -3.17174229282928
 7 -7.20268973727373 -1.38621823542354 -0.14036871387139
 6 -8.29498973877388 -2.21499667176718 -0.52751770697070
 6 -7.82444859045905 -3.59800806830683 -0.55649292659266
 6 -6.48191207530753 -3.51245558255826 -0.15080681258126
 6 -6.12717531393139 -2.17343562486249  0.03115591979198
 6 -8.74553202060206 -4.82606544894489 -0.84775325372537
 6 -5.34314878517852 -4.35610949444944  0.11947482008201
 8 -5.24356319421942 -5.49665414881488  0.30217724842484
 6 -4.26412999239924 -3.39537532733273  0.62328219351935
 6 -3.57923855475548 -3.68440366166617  1.96860723362336
 8 -3.97706930753075 -3.18498523472347  3.07775045614561
 8 -2.58939013271327 -4.55887060946095  1.77846642754275
 6 -2.15503609150915 -5.18206243534353  3.02390732623262
 6  2.76057856955696 -0.69428722332233 -1.34477567796780
 6  4.17900998999900 -0.51397957425743 -0.73107325632563
 6  5.11224470887089  0.28013427882788 -1.19066883958396
 6  5.07635605860586  0.99770241954195 -2.47348151345135
 6  6.41861619441944  0.36909876007601 -0.39265575077508
 6  7.57799533743374 -0.34429477637764 -1.25214216471647
 6  8.90432230483048 -0.16236136653665 -0.43902571537154
 6  10.18037866236624 -0.73783085478548 -0.99950092059206
 6  10.21479818001800 -2.22057299339934 -1.31876534153415
 6  11.36850972787279 -0.42829661046105 -0.08610774217422
 6  12.75582048974897 -0.47670172127213 -0.86952697559756
 6  13.86346581498150 -0.13754495729573  0.12007907540754
 6  15.30376650155016 -0.26669039813981 -0.46774501430143
 6  15.64153582248225 -1.80031766556656 -0.71095071277128
 6  16.27432153805380  0.46934129412941  0.38546305350535
 6  17.81701629102910  0.57150854925493 -0.05076089068907
 6  18.68229859935994  1.52545076207621  0.87260769376938
 6  20.05605427462746  1.64891522502250  0.34789955315532
 6  20.23741509530953  2.42687098429843 -0.85629662236224
 6  20.99960089088909  2.14706764306431  1.41485684908491
 1 -3.87404888938894  3.60681620302030  1.39795438233823
 1 -10.04738513121312  3.93798463346335 -0.21898729022902
 1 -10.12206549594960 -2.61534087488749 -1.29658631083108
 1 -2.50179663656366 -1.10292860676068  2.15333602480248
 1 -2.07898150335033  1.69044262686269  1.68918956935694
 1 -2.02286674417442  1.18348880178018  3.83286700020002
 1 -3.51554661466147  1.97854191169117  3.70011217661766
 1 -3.76013945664566  0.34335901990199  3.62810522332233
 1 -2.01639412431243 -1.67554751515151 -0.28920282948295
 1 -2.34295596809681  0.08981623202320 -0.74920496009601
 1 -0.23528704610461  0.79219383328333  0.48758915801580
 1 -0.17680548254826 -0.89931444664466  1.47916187138714
 1 -5.93606238163816  6.76868551265127  0.49234494369437
 1 -5.41070806020602  6.13536689978998  2.10567686478648
 1 -4.64506846284629  5.44800596699670  0.77565074067407
 1 -9.15583763626363  5.92171831993199 -0.63853408160816
 1 -9.09001021692169  8.06712745164516  0.34275389718972
 1 -7.66393585938594  7.38300469997000  1.47392577807781
 1 -12.15566967206721  2.99584991099110 -2.42704570927093
 1 -13.17621729092909  2.09261315251525 -1.14236542804280
 1 -11.99861159225923  3.52061071577158 -0.60378162216222
 1 -12.39963474187419 -1.39827927302730 -0.86696165106511
 1 -13.35512423132313 -0.14692142894289 -1.75334086158616
 1 -13.01447780038004 -1.95814050025002 -3.22230211471147
 1 -11.86714027822782 -0.42645718331833 -3.92531602730273
 1 -11.22475875517552 -2.07790265736574 -3.14711333133313
 1 -9.48685828882888 -4.63756449934993 -1.64163742784278
 1 -7.84978434323432 -5.76917692189219 -1.09721933493349
 1 -9.51486137103710 -5.29458447974798 -0.05237706030603
 1 -3.36762745864586 -3.42848609930993 -0.03872914441444
 1 -1.44119228572857 -4.35783222292229  3.42584549984999
 1 -3.17324693329333 -5.61023264086409  3.65858869776978
 1 -1.57220533203320 -5.95121439463946  2.68764271717172
 1  2.63934323842384 -1.68587042294229 -1.58638260326033
 1  2.73036051365137  0.07053133273327 -2.15614876707671
 1  4.46697760336034 -0.97370958615862  0.25988920492049
 1  4.19237820132013  0.94583329372937 -2.98000637033703
 1  5.30842625432543  2.15038529742974 -2.60886735493549
 1  5.89677698529853  0.66517762526253 -3.10176890789079
 1  6.86690875377538  1.43807780778078 -0.40303766096610
 1  6.31783590299030 -0.07394543194319  0.64794451115111
 1  7.41220860556056 -1.46032526772677 -1.29729105270527
 1  7.75564800070007  0.17091029912991 -2.17553047664766
 1  9.06940899249925  1.04247213221322 -0.09108147594759
 1  8.62535102380238 -0.64544005020502  0.51307917161716
 1  10.47581513291329 -0.35553301560156 -2.19325421492149
 1  9.41145613111311 -2.33488146464646 -2.04622054685469
 1  11.27330988668867 -2.67529431333133 -1.65337958185819
 1  9.81074396039604 -2.58287022902290 -0.10845028472847
 1  11.24327200810081  0.51506373657366  0.26862835033503
 1  11.31140419381938 -1.25780174147415  0.62913353495349
 1  12.86736005490549 -1.43376153735374 -1.13668133573357
 1  12.54508826132613  0.18316900790079 -1.68201156245625
 1  13.55386682338234  0.83757631363136  0.83358070107011
 1  13.68678143124312 -0.97380698539854  0.90650716721672
 1  15.35937922642264  0.28771825682568 -1.48261261926193
 1  15.59866730963096 -2.33378367046705  0.10507905400540
 1  14.90634368506851 -2.26807918351835 -1.42132954805481
 1  16.50489011841184 -1.79786531143114 -1.23160462996300
 1  15.95880108080808  1.65076290999100  0.58160470477048
 1  16.40732517971797  0.03551437633763  1.44778753995400
 1  18.30035097379738 -0.42786933433343 -0.22645598599860
 1  17.82463952845285  1.04092141104110 -1.01255483128313
 1  18.24476526912691  2.45197935563556  1.00561856715672
 1  18.70002716301630  0.81549573057306  1.85660566086609
 1  20.44534944764477  0.67363351155115  0.06608367236724
 1  19.75239934653465  3.37244080598060 -0.54401799519952
 1  21.22288654075408  2.47770442324232 -1.10302166546655
 1  19.71298520292029  2.00280209100910 -1.74655162416242
 1  20.88716469166917  1.63436154525453  2.27623724092409
 1  22.08838054435444  1.96448767846785  1.32620758705871
 1  20.64291402130213  3.19449953325333  1.48092853335334

