%nproc=4
%Mem=2GB
# td=(NStates=1) CAM-B3LYP/6-31G(d,p) 

TD

0 1
<<<<<<< HEAD
12 -7.12770334333433  0.65699444754475  0.15773346074607
 6 -4.85911052905290 -1.97815899429943  0.45748228092809
 6 -4.83167309620962  2.77169561686169  1.24268063296330
 6 -9.40388512401240  3.10360585608561 -0.41704456415642
 6 -9.52757307100710 -1.79678518951895 -0.93651008010801
 7 -5.08833225782578  0.36626644474447  0.70092051035104
 6 -4.30207991409141 -0.69651947394739  0.84481250445044
 6 -2.81798080348035 -0.47335676137614  1.24924527872787
 6 -3.01611504990499  1.00444311261126  1.75826655735574
 6 -4.38239523442344  1.50569131793179  1.11228825872587
 6 -2.96342142424242  1.28177046514651  3.17638904780478
 6 -1.84203766476648 -0.63177843924392  0.15398935723572
 6 -0.47319474207421 -0.45152950015002  0.48245237453745
 6  0.52053319051905 -0.65030854375438 -0.57334271477148
 8  0.31047228732873 -1.01871727932793 -1.71013734543454
 8  1.85178698919892 -0.29547694409441 -0.24019080798080
 7 -7.13794424232423  2.58921451125113  0.32587128262826
 6 -6.12329160816082  3.30498147394739  0.86188972257226
 6 -6.41457871097110  4.67013130253025  0.95550623782378
 6 -7.63091579857986  4.82590322182218  0.30893928522852
 6 -8.11808608020802  3.57977717301730  0.00457300360036
 6 -5.54023197989799  5.89108157405741  1.44679944044404
 6 -8.53360115771577  6.03063409710971  0.06544352975298
 6 -8.49287317861786  7.10157627622762  0.82102835263526
 7 -9.07462973557356  0.67099996109611 -0.57364139783978
 6 -9.80381664136414  1.85582553565357 -0.69598592269227
 6 -11.10230932753275  1.50265860496050 -1.19929164866487
 6 -11.21708411231123  0.11672703680368 -1.26582529652965
 6 -9.93108878957896 -0.38068004230423 -0.94695971207121
 6 -12.27500632433243  2.36954752575258 -1.39239601440144
 6 -12.35776032233223 -0.82931034113411 -1.78145895439544
 6 -12.20231772017202 -1.20155256645665 -3.33580869946995
 7 -7.23410287858786 -1.30700031363136 -0.29523420042004
 6 -8.25317555735574 -2.19680485258526 -0.61867682288229
 6 -7.83945009060906 -3.60959922742274 -0.45152242954295
 6 -6.49779366346635 -3.59810414741474 -0.16664839673967
 6 -6.11506410281028 -2.12949123042304 -0.06739393519352
 6 -8.75872333973397 -4.78495133753375 -0.69088756715672
 6 -5.35663013331333 -4.35786967046705  0.27029990259026
 8 -5.18423726162616 -5.57835231863186  0.17471450215022
 6 -4.26851043044304 -3.35188097789779  0.67277714301430
 6 -3.64239487038704 -3.67464268556856  1.96461683458346
 8 -3.83070467106711 -3.03012974917492  2.94693737483748
 8 -2.84037523122312 -4.67587230963096  1.85189377027703
 6 -2.19062965086509 -5.16113034213421  3.08200313581358
 6  2.72380489218922 -0.64064185878588 -1.33092429282928
 6  4.11625371437144 -0.55973414971497 -0.70348049704971
 6  5.08500198459846  0.32109837523752 -1.05329510221022
 6  5.04318274127413  1.16141879117912 -2.24228839413941
 6  6.39863419621962  0.35132698289829 -0.25083156835684
 6  7.65775331323132 -0.07700804770477 -1.13485043554355
 6  8.92757463006301 -0.03197832823282 -0.21071288408841
 6  10.21925254975497 -0.64420149184918 -0.89909087958796
 6  10.19163586378638 -2.17291822792279 -1.09620308530853
 6  11.41962483938394 -0.26129991079108 -0.03404253565357
 6  12.81944685238524 -0.47961201230123 -0.72485250815082
 6  13.97211668006801 -0.02596379917992  0.13295036253625
 6  15.30157628252825 -0.02420614971497 -0.52140037983798
 6  15.66387805670567 -1.60909854365437 -0.76002562026203
 6  16.27662176807681  0.57589194919492  0.42955746294629
 6  17.80618520792079  0.59957135553555 -0.16904271887189
 6  18.88284865436544  1.30814903190319  0.77632806580658
 6  20.29599826902690  1.33405373887389  0.24596936013601
 6  20.36218757255726  1.97261555875588 -1.10463145584558
 6  21.22441337213721  1.87957089338934  1.28970433383338
 1 -4.13424490899090  3.42531805320532  1.74219880678068
 1 -10.20246063876388  3.99870070507051 -0.51402679417942
 1 -10.45108839823982 -2.46225556635664 -1.29831648384838
 1 -2.45618207510751 -1.12323063696370  2.26554724592459
 1 -2.12825643084308  1.53424700730073  1.25216586698670
 1 -1.93739819731973  0.74241469436944  3.44967868136814
 1 -3.00610567056706  2.38629268676868  3.52122428782878
 1 -3.76668011071107  0.67489217321732  3.58217062986299
 1 -1.99024150905090 -1.75503546394639 -0.20277418661866
 1 -2.19474114661466 -0.02528527812781 -0.77523756335634
 1 -0.41878539593959  0.49750436433643  1.09045944504450
 1 -0.34241204320432 -0.95226974217422  1.30930488568857
 1 -5.79973874927493  6.76937558165817  0.83463917311731
 1 -5.83933092249225  5.84593795689569  2.55194149124913
 1 -4.42493644964496  5.82504367076708  1.02936611221122
 1 -9.03631568406841  6.27406355445545 -0.90327055525553
 1 -9.23143435933593  8.10906164506451  0.54883450525052
 1 -7.77294676047605  7.24604100360036  1.55532391789179
 1 -12.14810891599160  3.13195352135214 -2.25000800550055
 1 -13.20809047824782  1.82623651485149 -1.57199839133913
 1 -12.18927065816582  3.10421907660766 -0.43259450345035
 1 -12.23182796119612 -1.81365081018102 -1.29798475337534
 1 -13.27678639753975 -0.51903864066407 -1.45036056355636
 1 -13.10887724032403 -1.64946963316332 -3.61178106260626
 1 -12.20371393559356 -0.48209274687469 -3.91429492519252
 1 -11.36463274257426 -1.87236210331033 -3.35589420942094
 1 -9.03254285728573 -4.77482822572257 -1.69097236133613
 1 -8.06011537633763 -5.73474347854785 -0.77984759775978
 1 -9.66966685158516 -4.80835585688569 -0.09355117771777
 1 -3.50375107100710 -3.46668991969197 -0.20454572607261
 1 -1.60913908040804 -4.32708914861486  3.48950186548655
 1 -3.06023563216322 -5.57290890849085  3.71655449434943
 1 -1.63318142964296 -5.99179845304531  2.89649360226023
 1  2.57707701180118 -1.56698853475348 -1.85663962896290
 1  2.48610608820882  0.21568584818482 -2.15378853105311
 1  4.08334924052405 -1.21267348254826  0.05768898489849
 1  3.95445440894089  1.28286699709971 -2.91773014271427
 1  5.53594900660066  2.26883714261426 -2.20298676687669
 1  5.54772207980798  0.68389949744975 -3.04119285028503
 1  6.64864692759276  1.35595959595960  0.13152579537954
 1  6.28626274567457 -0.47815585298530  0.56042575927593
 1  7.38121550625062 -1.06093532873287 -1.56967829142914
 1  7.55319775567557  0.51085429352935 -1.92602552615262
 1  9.14714676627663  1.03616150115011  0.10729836203620
 1  8.73375186388639 -0.76454196039604  0.72695055875588
 1  10.37495504690469 -0.34881234353435 -1.91436632613261
 1  9.27616260176018 -2.58760673717372 -1.71745767056706
 1  11.17380993669367 -2.56659344324432 -1.50342458635864
 1  10.00192307830783 -2.62000394239424 -0.18388782848285
 1  11.36429411031103  0.81857408760876  0.26369785728573
 1  11.15478853225323 -0.81725768706871  0.94007462906291
 1  12.70771409030903 -1.58673683488349 -0.97137480508051
 1  12.92682643514351 -0.00771008000800 -1.72532589388939
 1  13.83459489618962  1.01771432743274  0.34708205120512
 1  14.14537729082908 -0.59969957465747  1.22059857635764
 1  15.40122341084108  0.27338682368237 -1.50816517451745
 1  15.69257670057006 -2.19907019911991  0.22162070817082
 1  14.92704575527553 -1.93513588918892 -1.40204761986199
 1  16.72097172657266 -1.55882140704070 -1.32830429992999
 1  16.06143134383438  1.67258509220922  0.53068961326133
 1  16.04971941914191  0.21877270217022  1.37150991219122
 1  18.03855479417942 -0.49585613301330 -0.24091743214321
 1  17.57901496599660  1.01673899279928 -1.21241481728173
 1  18.72496328892889  2.54251840954095  1.16358436373637
 1  19.03926108640864  0.73813799479948  1.83411341164116
 1  20.44649956265627  0.18114426262626  0.11188825282528
 1  19.82613672027203  2.99344290619062 -1.06794038743874
 1  21.48050230233023  2.12177883068307 -1.63043440674067
 1  19.85178908330833  1.37645945674567 -2.04227119611961
 1  21.07509348454845  1.35341345044505  2.20534015121512
 1  22.26087779407941  1.75825705540554  0.95989095539554
 1  21.04903463336334  3.03600368366837  1.42944338483848
=======
12 -7.11814238723872  0.67395614371437  0.12302999039904
 6 -4.86115073307331 -1.99156033443344  0.32383891659166
 6 -4.82333226212621  2.87357580488049  1.02642900780078
 6 -9.46201093659366  3.17785328082808 -0.35661852155216
 6 -9.60612092579258 -1.74226973797380 -0.76289271837184
 7 -5.18700212481248  0.44174399249925  0.63108352665267
 6 -4.43332303840384 -0.71430125212521  0.66729475267527
 6 -2.94542354775478 -0.40815024072407  1.20847120132013
 6 -3.10645408380838  1.12211487978798  1.70252098279828
 6 -4.48466546144614  1.52906365516552  1.17332436233623
 6 -2.90258534063406  1.20435272337234  3.17309871877188
 6 -1.95644910591059 -0.69470473187319  0.04128808710871
 6 -0.50152757535754 -0.41262560976098  0.57645177447745
 6  0.48578971617162 -0.72074558745875 -0.50023540404040
 8  0.10120136023602 -1.02137754535454 -1.61307763946395
 8  1.70970278077808 -0.63584098049805 -0.04047083598360
 7 -7.05519596749675  2.68093368316832  0.29453814931493
 6 -6.09042832183218  3.37826880268027  0.69351288488849
 6 -6.48927618071807  4.74962925232523  0.76402708990899
 6 -7.79698240524052  4.81429206070607  0.37038542984298
 6 -8.19459373097310  3.50554975027503  0.02637518381838
 6 -5.56458441514151  5.93470593649365  0.99349410991099
 6 -8.59044684228423  5.97582861656166  0.23556054145415
 6 -8.50180407170717  7.21952807140714  0.84986123592359
 7 -9.10495276787679  0.67994085518552 -0.39341337503750
 6 -9.89376563626363  1.79001895499550 -0.65789211331133
 6 -11.15545464206421  1.54828316741674 -1.19217093659366
 6 -11.27574997889789  0.17787315141514 -1.17962667666767
 6 -9.95146082678268 -0.41028300260026 -0.75161017711771
 6 -12.23381220492049  2.55311588258826 -1.53967074187419
 6 -12.35822036833683 -0.71723913401340 -1.65525633413341
 6 -12.25196268466847 -1.07838024922492 -3.08214333293329
 7 -7.23038250655066 -1.36492610621062 -0.20542521952195
 6 -8.28013825362536 -2.26875204730473 -0.57318227342734
 6 -7.87971411701170 -3.60292856035604 -0.56765404270427
 6 -6.56535041914191 -3.52094643164316 -0.17555928782878
 6 -6.27503009940994 -2.17676595789579 -0.03051024682468
 6 -8.67827529492949 -4.83470631303130 -0.74662314071407
 6 -5.36459092939294 -4.24444832833283  0.11021389398940
 8 -5.10445928382838 -5.51155563896390  0.15487251795180
 6 -4.27891147054705 -3.31661745154515  0.43143300860086
 6 -3.57259789068907 -3.62140736203620  1.72553292619262
 8 -3.78204980558056 -3.04711144734473  2.85728840994099
 8 -2.66253744744474 -4.69498422082208  1.64510309120912
 6 -2.10928151605160 -5.11068529762976  2.90901583708371
 6  2.71214372607261 -0.69144693929393 -1.10212141254125
 6  4.05279736873687 -0.63022119841984 -0.39911006000600
 6  5.07350083448345  0.04901116651665 -0.91880165286529
 6  5.02877130013001  0.89279192849285 -2.24164833013301
 6  6.41904623742374  0.19228107830783 -0.14879136433643
 6  7.66072361026103 -0.27170751765177 -0.83611056155616
 6  8.91347321992199 -0.26540167056706 -0.04757657045705
 6  10.21439206370637 -0.70266733843384 -0.72138310881088
 6  10.15798249844984 -2.20634157025703 -1.09362282728273
 6  11.47225010191019 -0.30419420022002  0.03950481908191
 6  12.83720862856286 -0.57942199329933 -0.63631365426543
 6  14.12053152155215 -0.25663686648665  0.25444251175118
 6  15.52566869176918 -0.08944267336734 -0.52244048384838
 6  15.92182385128513 -1.56744437823782 -0.90020963866387
 6  16.46096020192019  0.50521488148815  0.44121862906291
 6  17.85634022342234  0.66096749514951 -0.20472628722872
 6  18.98392876237624  1.45511372837284  0.66125655865587
 6  20.30424909410941  1.58386872037204  0.03311807500750
 6  20.42381373517352  2.53853215041504 -1.11507249995000
 6  21.35002593339334  1.89902283858386  1.14854021742174
 1 -4.12616410091009  3.49186470787079  1.61772635953595
 1 -10.06449684238424  3.95230606560656 -0.66784217571757
 1 -10.33248653805381 -2.34939428022802 -1.11829848204820
 1 -2.66729318621862 -1.03293160706071  2.17985867706771
 1 -2.36712031723172  1.78540212281228  1.39951060146015
 1 -1.88429288678868  0.87327778067807  3.47066077957796
 1 -3.21862692269227  2.26999105660566  3.23975614101410
 1 -3.59830327302730  0.75112979697970  3.64566697949795
 1 -1.98115059996000 -1.76161612201220 -0.21678558775878
 1 -1.90661233373337  0.02208945934593 -0.79791983158316
 1 -0.49137265466547  0.66739135303530  0.60834123322332
 1 -0.22594039603960 -1.03130764596460  1.67386134133413
 1 -6.09896867226723  6.82521116521652  0.26745245444544
 1 -5.36172316171617  5.99021238433843  2.17246354345435
 1 -4.60165412141214  5.61860302670267  0.58994216981698
 1 -9.38688074057406  5.97736388448845 -0.65642587078708
 1 -9.21832304820482  7.78848958785879  0.64291391319132
 1 -7.87314678047805  7.22159855935594  1.87269565506551
 1 -11.94001810691069  3.16135646164616 -2.39488249294930
 1 -13.18720839003900  2.05068896009601 -1.82410360186019
 1 -12.37747947904791  3.14857351205120 -0.77406865086509
 1 -12.47045182358236 -1.59379882498250 -0.97787274217422
 1 -13.40397911681168 -0.18586532333233 -1.54135966346635
 1 -12.98535488808881 -1.82522720892089 -3.63240312481248
 1 -12.03393695789579 -0.19964450205021 -3.71085458115812
 1 -11.16212249154916 -1.67566243334333 -3.28053667366737
 1 -9.08372797579758 -4.99889063196320 -1.81268453255326
 1 -8.17506687148715 -5.76149615381538 -0.54564417741774
 1 -9.62587247214721 -4.65080010131013 -0.25715753835384
 1 -3.51143183908391 -3.68539178987899 -0.40063533503350
 1 -1.70215838233823 -4.31838827852785  3.12401531683168
 1 -2.89987959655966 -5.47366898449845  3.69267210611061
 1 -1.61728984048405 -5.98699797299730  2.82870682358236
 1  2.56764606870687 -1.90023185908591 -1.50204416941694
 1  2.72646012361236  0.15567984758476 -1.91397454965497
 1  4.32586349194920 -1.23504571977198  0.41367458345835
 1  3.86997596109611  1.16527523792379 -2.39020739043904
 1  5.59616502820282  1.87025728462846 -2.15766223442344
 1  5.38097540514051  0.36706781428143 -3.04362309330933
 1  6.36639870277028  1.07821182118212  0.24629727252725
 1  6.30787490689069 -0.46408444584458  0.75575529222922
 1  7.43674105880588 -1.21465070027003 -1.38399972357236
 1  7.87085952185219  0.43891709980998 -1.60923384698470
 1  8.98294034563456  0.58907679267927  0.38269590179018
 1  8.89991848054806 -1.03226873307331  0.85707357105711
 1  10.05915346674667 -0.15228269056906 -1.85206009550955
 1  9.19270425592559 -2.50525850235023 -1.72592851765176
 1  11.19519207490749 -2.54126090999100 -1.71757600150015
 1  10.08384127012701 -2.78436037803780 -0.10519995969597
 1  11.41103878477848  0.77540977117712  0.25371685918592
 1  11.59506255965597 -0.70882684398440  1.13461408300830
 1  13.03213653255326 -1.49473763496350 -1.04561222882288
 1  12.76404015651565  0.03297398839884 -1.54224758605861
 1  13.85160659735974  0.50839339533953  0.64356169916992
 1  14.25298805190519 -1.01717132183218  0.91630814731473
 1  15.59632292079208  0.42748223322332 -1.40465482348235
 1  15.60735817871787 -2.09500979307931  0.02265081118112
 1  15.18412146284629 -1.92449482508251 -1.48030544564456
 1  16.93648327772777 -1.82704822972297 -1.37924939443944
 1  15.99419462016202  1.49047688138814  0.63251979627963
 1  16.31222566976697 -0.00057923302330  1.48495125632563
 1  18.37070800950095 -0.34875142254225 -0.34099744014402
 1  17.79052611711171  1.14585190409041 -1.22365594139414
 1  18.46489728232823  2.49086324402440  0.60580858615862
 1  18.97260442074208  1.03981816281628  1.62629262956296
 1  20.59855476817682  0.63308945714571 -0.41828476447645
 1  20.29668377497750  3.61885544744474 -0.53891748514852
 1  21.33618787088709  2.56354300710071 -1.54640600390039
 1  19.61607551195119  2.55812762356235 -1.94486145514551
 1  21.45026100130013  0.91783989308931  1.88561817901790
 1  22.33715542184218  2.07861909160916  0.62605757205721
 1  20.94010374027403  2.85964604790479  1.77116755725573
>>>>>>> 8e03b5b5abfc0030b3aa597dc0de36371bfbd096

