%nproc=4
%Mem=2GB
# td=(NStates=1) CAM-B3LYP/6-31G(d,p) 

TD

0 1
12 -7.09770034303430  0.56438518661866  0.08052573997400
 6 -4.89451406940694 -1.91575275367537  0.59000553325333
 6 -4.82214214311431  2.78375682298230  1.13068943384338
 6 -9.34882961846185  3.12764826032603 -0.46255911561156
 6 -9.52414272797280 -1.63985949694970 -0.88771520062006
 7 -5.08227165176518  0.34896471457146  0.76028644694469
 6 -4.30082978907891 -0.73690351235124  0.79164718791879
 6 -2.88403740914091 -0.44908433413341  1.35826618081808
 6 -3.02199563796380  1.01119378767877  1.61954268496850
 6 -4.44743173807381  1.45255600440044  1.15619264916492
 6 -2.85241032313231  1.25419770787079  3.15719712861286
 6 -1.86706016701670 -0.73301856325633  0.14630858915892
 6 -0.38589601220122 -0.34623897109711  0.52191632093209
 6  0.60846198339834 -0.52711622452245 -0.67797317781778
 8  0.23957519761976 -0.89613502110211 -1.72672900460046
 8  1.89557136763676 -0.49259665606561 -0.24288107700770
 7 -7.12747319521952  2.56941253105311  0.30861955745575
 6 -5.96835611461146  3.33787476327633  0.67467100070007
 6 -6.40391764486449  4.74950924032403  0.66601728892889
 6 -7.77276998399840  4.86689732123212  0.31220961226123
 6 -8.12045631723172  3.49615881118112  0.11153369966997
 6 -5.44232218891889  5.80116258215822  1.14806956745675
 6 -8.61350914851485  6.05213624732473  0.15879286468647
 6 -8.36907079837984  7.17523364196420  0.76373262306231
 7 -9.13602587518752  0.70581344244424 -0.48870290399040
 6 -9.95173143284328  1.79351930503050 -0.71971829592959
 6 -11.24263335993599  1.43429176827683 -1.18454017351735
 6 -11.27410981488149  0.16776214031403 -1.39398811281128
 6 -9.93000868156816 -0.35666764106411 -0.90261527762776
 6 -12.32593141684168  2.50754132513251 -1.33285005980598
 6 -12.38060260656066 -0.76521393149315 -1.89029983848385
 6 -12.30036752515251 -1.15725813701370 -3.33237835643564
 7 -7.23234270257026 -1.40654026762676 -0.12339701670167
 6 -8.25123536333633 -2.20042521462146 -0.55901085628563
 6 -7.83313945954595 -3.54165243274327 -0.57555483278328
 6 -6.44350823492349 -3.51774611161116 -0.14975670757076
 6 -6.18991158755876 -2.19131741304130  0.12730553475348
 6 -8.61881934933493 -4.78007084948495 -0.82217069546955
 6 -5.36702117241724 -4.36730061356136  0.24651752435244
 8 -5.21682051995200 -5.56904138753875  0.22235926662666
 6 -4.20194377377738 -3.38734452425243  0.66603646894689
 6 -3.62917354825483 -3.77142236353635  2.01869224212421
 8 -3.76135773637364 -3.12699943614361  3.05297797889789
 8 -2.81763295699570 -4.80922564496450  1.85479406030603
 6 -1.99378996689669 -5.08281251035103  2.97199213471347
 6  2.88706121782178 -0.82356015061506 -1.16018721912191
 6  4.12766485548555 -0.52190036633663 -0.62927307630763
 6  5.11096458085809  0.32652891829183 -0.88172794549455
 6  5.04054247724772  1.35061771107111 -1.96048021332133
 6  6.43281761456146  0.40193204340434 -0.07341382658266
 6  7.60537807570757 -0.10337068396840 -0.90746769726973
 6  8.97091896449645 -0.07223235363536 -0.11300311311131
 6  10.17160778527853 -0.56324339603960 -0.89269023952395
 6  10.05653235343534 -1.98304924102410 -1.26379984498450
 6  11.51843472037204 -0.15723950475048 -0.00827995939594
 6  12.74839974767477 -0.55181923302330 -0.69353937683768
 6  13.94169363776378 -0.03855505830583  0.02590965846585
 6  15.35623174807481 -0.23933766286629 -0.53655189498950
 6  15.56431810071007 -1.68535616941694 -0.94544416211621
 6  16.48517262316232  0.32564692469247  0.42127663486349
 6  17.79082367176717  0.41331272967297 -0.23700951555156
 6  18.72159252875288  1.21743996099610  0.77251768476848
 6  20.20618928812881  1.41367170067007  0.18239300250025
 6  20.14472582638264  2.29008730593059 -1.02348334103410
 6  21.22078300910091  1.92830576687669  1.28333369676968
 1 -4.20817230173017  3.51552707410741  1.41249583648365
 1 -9.92565295799580  3.86556739173917 -0.81435682718272
 1 -10.19333262266227 -2.57878721952195 -0.81858851105111
 1 -2.54603106000600 -1.03494180808081  2.24178486968697
 1 -2.17985159035904  1.57599118171817  0.98428907930793
 1 -1.86235069256926  1.01070152305231  3.49677339083908
 1 -3.15370043004300  2.26740079757976  3.62307447284728
 1 -3.68139158185819  0.60817550155016  3.59865227802780
 1 -1.83853633853385 -1.75858581898190 -0.19082299149915
 1 -1.95701737423742  0.05479272967297 -0.68584862446245
 1 -0.34626814421442  0.72688730263026  0.75993639273927
 1 -0.06840464246425 -0.98455297049705  1.22623657885789
 1 -5.67673644904490  6.82375101920192  0.67679338853885
 1 -5.58976596599660  5.90280364346435  2.06062235933593
 1 -4.42487644364437  5.68132929932993  0.91523469906991
 1 -9.70087213971397  5.78675482358236 -0.38345857405741
 1 -8.91065228112811  8.21656239513951  0.66593621542154
 1 -7.54808427422742  7.17086348584859  1.38261664716472
 1 -12.15357946304630  3.32786311231123 -2.08716172087209
 1 -13.20798046724672  2.14529842104210 -1.85168636013601
 1 -12.59285101620162  2.65958461316132 -0.31995323932393
 1 -12.56084086248625 -1.59575902100210 -1.09307426232623
 1 -13.35502422132213 -0.35724246104611 -1.72729825732573
 1 -12.97157350995099 -1.96280096629663 -3.46526641114111
 1 -12.58092165636564 -0.27330186778678 -4.08812230793079
 1 -11.30027630693069 -1.46415128222822 -3.59577819781978
 1 -8.90757036003600 -4.96723746664666 -1.91650491459146
 1 -7.95649501430143 -5.58326833103310 -0.78619823282328
 1 -9.64227411231123 -4.83018804010401 -0.44321614421442
 1 -3.34878557445745 -3.32568581928193  0.00935566406641
 1 -1.18720688718872 -4.27133357305731  3.28047096239624
 1 -2.74204381298130 -5.25653727132713  3.93742658155816
 1 -1.59521763326333 -6.27936720992099  2.79734368726873
 1  2.60179948404840 -1.67745958185819 -1.64219818481848
 1  2.70703818141814 -0.22012773317332 -2.04508766096610
 1  4.19381028662866 -1.14092630783078  0.32812602860286
 1  4.01235019851985  1.38036674707471 -2.50772914261426
 1  5.20708612031203  2.32346260516052 -1.51926839503950
 1  5.92414972257226  1.24362547004701 -2.75199393039304
 1  6.63777584048405  1.29036303630363  0.35255789858986
 1  6.39613373277328 -0.37688572597260  0.85180489718972
 1  7.59749713441344 -1.18193742894289 -1.08344966856686
 1  7.90189262516252  0.56401961006101 -1.73313623722372
 1  9.21643369496950  1.06792467746775  0.13485111731173
 1  8.97185567426743 -0.74105961216122  0.69019688338834
 1  10.36024357575757 -0.00176763906391 -1.86615150465047
 1  9.20797578307831 -2.32826080258026 -1.82320824562456
 1  10.90659321502150 -2.19755653955396 -2.01831607550755
 1  10.04505739173917 -2.84890683268327 -0.45946538623862
 1  11.40287796869687  0.84643687388739  0.05656714421442
 1  11.18854190759076 -0.57080304160416  1.03926454805481
 1  12.86275959485948 -1.61974013521352 -0.66576424402440
 1  12.78352210471047 -0.19245855485549 -1.77777113841384
 1  13.76900833753375  0.94624718071807  0.23223056605661
 1  13.72325507860786 -0.55231483618362  0.97482399889989
 1  15.42280556905691  0.37868735373537 -1.56671102910291
 1  15.51043848674868 -2.31017130923092 -0.14801625552555
 1  14.86751980268027 -1.98865124072407 -1.74849226432643
 1  16.48271790119012 -1.60861638653865 -1.50955242474247
 1  16.08018321902190  1.31610944464446  0.57423396769677
 1  16.58156260346034 -0.17002617771777  1.30355311651165
 1  18.00786172487249 -0.58396494389439 -0.32283562396240
 1  17.43784084858486  0.77040435933593 -1.30482405820582
 1  18.34052484508451  2.29980413811381  0.72042004730473
 1  18.60388754905491  0.83654783578358  1.73191319161916
 1  20.38219313201320  0.48554470267027 -0.08556149214921
 1  19.63991809840984  3.38105166706671 -0.95615920932093
 1  21.14269852195219  2.41652830563056 -1.60330169346935
 1  19.41402530693069  1.70312212301230 -1.81347831683168
 1  21.21808778397840  1.25409351845185  2.19175879307931
 1  22.29557126342634  1.83080431013101  0.98831379767977
 1  20.92635236513652  2.83119320262026  1.60568100860086

