%nproc=4
%Mem=2GB
# td=(NStates=1) CAM-B3LYP/6-31G(d,p) 

TD

0 1
<<<<<<< HEAD
12 -7.17505807880788  0.59700844894489 -0.00990330293029
 6 -4.81754637263726 -1.95729690809081  0.47198373107311
 6 -4.92025195409541  2.88743719101910  1.17662402730273
 6 -9.50864560006001  3.05081057655766 -0.19846270597060
 6 -9.54701501520152 -1.78013352435244 -0.88902533163316
 7 -5.14163758835884  0.52771258935894  0.61827224552455
 6 -4.34225393149315 -0.69346916891689  0.68282630583058
 6 -2.91763076847685 -0.31748117381738  1.07245759996000
 6 -2.97035047344734  1.23573624192419  1.59617034773477
 6 -4.43681067596760  1.56566731553155  1.08371540144014
 6 -2.94249933203320  1.38113040114011  3.07210861976198
 6 -1.84020748174817 -0.49743500490049 -0.01874791649165
 6 -0.40514793739374 -0.30606495369537  0.47243137243724
 6  0.57546868406841 -0.64069758265827 -0.53469885038504
 8  0.29222046214621 -0.99175458305831 -1.73184951665167
 8  1.81088289878988 -0.34797219361936 -0.17502429132913
 7 -7.11870231813181  2.55103069286929  0.16644534003400
 6 -6.20697997699770  3.35025600140014  0.76008954255426
 6 -6.61216846994699  4.78366265566557  0.81649233643364
 6 -7.92824553155315  4.82933356485649  0.38123651495150
 6 -8.24274854645465  3.43083227852785  0.07497004330433
 6 -5.68036599329933  5.86302876877688  1.26951171167117
 6 -8.84060185778578  5.99266029972997  0.34004098949895
 6 -8.82770666196620  7.03332945154515  1.09026527632763
 7 -9.13422569516952  0.61996485758576 -0.54936897059706
 6 -9.89555581528153  1.70679063216322 -0.63371969606961
 6 -11.21396049264926  1.41301964106411 -1.02958467796780
 6 -11.30336274017402  0.01909727382738 -1.24067278127813
 6 -9.94204988568857 -0.43178515281528 -0.94554957105711
 6 -12.26137496119612  2.37391796279628 -1.35160193499350
 6 -12.40026457275728 -0.82898030813081 -1.83287409590959
 6 -12.33078056645665 -1.03008541974197 -3.36701181978198
 7 -7.27352682098210 -1.36787640124012 -0.16062073907391
 6 -8.30581082088209 -2.29904507660766 -0.57135209040904
 6 -7.82174832043204 -3.62273054055406 -0.51357863516352
 6 -6.48029191329133 -3.55741007800780 -0.15028676057606
 6 -6.25155775217522 -2.17109539083908  0.11539434363436
 6 -8.61269873727373 -4.83989683208321 -0.82109058745875
 6 -5.26057052735274 -4.31736562006201  0.23165603820382
 8 -5.07121595949595 -5.52391687508751  0.23180021072107
 6 -4.18104168356836 -3.29904569436944  0.56877674297430
 6 -3.49481011191119 -3.57477269856986  1.84949532243224
 8 -3.77710931153115 -2.94988172437244  2.88028070917092
 8 -2.64219541324132 -4.58364308670867  1.87706628752875
 6 -2.08358894679468 -4.99186341544154  3.05696063156316
 6  2.90351286298630 -0.62364015861586 -1.18369957035704
 6  4.21898398739874 -0.33671184748475 -0.47907805680568
 6  5.25461894629463  0.37572383778378 -0.95997577027703
 6  5.17358578157816  1.15888853815382 -2.26351051635163
 6  6.56018035083508  0.35563741394139 -0.09095558075808
 6  7.70941847974798 -0.15895624252425 -0.90530748124812
 6  9.01119299189919 -0.21584671507151 -0.12541435423542
 6  10.25229585408541 -0.68402547424742 -0.82800377087709
 6  10.20815751595159 -2.20767170327033 -0.99154261926193
 6  11.50789366626663 -0.30086386718672 -0.07916704810481
 6  12.80322523022302 -0.43187723882388 -0.71426144904490
 6  13.97775724412441 -0.25765696849685  0.15509257675768
 6  15.47259338423842 -0.35447917701770 -0.45759399919992
 6  15.71052272117212 -1.85116275007501 -0.84406402410241
 6  16.44321842774277  0.21864622462246  0.31342584978498
 6  17.91597618701870  0.50348174657466 -0.29954576917692
 6  18.83293366286629  1.27364558155816  0.75207564056406
 6  20.27389605880588  1.31868220172017  0.18737350055006
 6  20.27581893569357  2.11742003920392 -1.13880487318732
 6  21.16486741754176  2.07472040834083  1.29888525192519
 1 -4.21567305180518  3.47672319371937  1.68038262516252
 1 -10.32759315201520  3.83157399239924 -0.45944133563356
 1 -10.30116340574057 -2.67793713451345 -1.29306595879588
 1 -2.80705716261626 -0.85651396529653  1.93529422062206
 1 -2.37731133633363  1.86390997359736  0.91795244564456
 1 -1.94648910641064  1.11465191809181  3.38996270977098
 1 -2.92057711771177  2.58983304080408  3.28277044244424
 1 -3.68375181788179  0.71854653865387  3.53841625442544
 1 -1.82376486138614 -1.61780174057406 -0.20641455065507
 1 -2.01365303780378 -0.02451520112011 -0.86685672527253
 1 -0.42471598899890  0.65509012291229  0.87485788488849
 1 -0.17499530153015 -0.88330284548455  1.40582453765377
 1 -6.00854963036304  6.70555920002000  0.77306301550155
 1 -5.70784777417742  6.03546690979098  2.42148844594459
 1 -4.71404536053605  5.67705887228723  0.87202037763776
 1 -9.63188524102410  5.86114226232623 -0.43716394459446
 1 -9.35471668756876  7.78022876177618  0.73811343314331
 1 -8.05154462026203  7.30853725322532  1.86727511301130
 1 -11.99431353645365  3.29791011701170 -2.10384338903890
 1 -13.29562923212321  1.87412130333033 -1.74877606910691
 1 -12.93968569966997  3.06944559925993 -0.50430167416742
 1 -12.37127190559056 -1.77959740484048 -1.42303725862586
 1 -13.38447716661666 -0.36724346114611 -1.70927645514551
 1 -13.40409676227623 -1.48571325752575 -3.73126301080108
 1 -12.21840540474047 -0.12663720132013 -3.97715121082108
 1 -11.42746902620262 -1.70016488358836 -3.60235885588559
 1 -9.08860846384638 -4.90442118501850 -1.75747901200120
 1 -7.87815718051805 -5.75814581878188 -0.74428404140414
 1 -9.20846073097310 -4.74437945924593  0.20314849224923
 1 -3.22546324222422 -3.15269852055206 -0.16278154965497
 1 -1.55283344984498 -4.41451789148915  3.56920983628363
 1 -2.71409101770177 -5.56182780038004  3.81630446934694
 1 -1.37012512401240 -5.81679095229523  2.84177813071307
 1  2.95591489558956 -1.60930276617662 -1.58897286228623
 1  2.59233671127113 -0.03047876827683 -2.09944309650965
 1  4.34538544414441 -0.85934815001500  0.51133434943494
 1  4.21673063656366  1.48629734013401 -2.73707207690769
 1  5.74205961766177  2.12407266616662 -2.08995546374637
 1  5.75954326192619  0.66319742724272 -3.03342207320732
 1  6.81172323522352  1.38094209420942  0.24428707150715
 1  6.50762488188819 -0.24200223762376  0.81823153985399
 1  7.35078246294629 -1.15057429262926 -1.29467079067907
 1  7.80625306120612  0.34563777187719 -1.80711363496350
 1  8.99549160076007  0.79429731473147  0.46961459365937
 1  8.80223871257126 -1.01098660486049  0.69103696739674
 1  10.34016156755676 -0.27190465276528 -1.78576346584658
 1  9.33488847434744 -2.65735371187119 -1.58704462926293
 1  11.03966652235223 -2.34575135903590 -1.47810205410541
 1  10.36365925192519 -2.77769971197120 -0.03941338103810
 1  11.51760944184418  0.73972620282028  0.50430191769177
 1  11.48781183458346 -0.94511047234723  0.82888350995100
 1  12.93683700260026 -1.64215237643764 -1.29370703830383
 1  12.88972272477248  0.17955864686469 -1.61805516681668
 1  14.13692512921292  0.93626618261826  0.33893123612361
 1  13.89844259735974 -0.82800240494049  0.97902441894189
 1  15.37820110861086  0.15296478147815 -1.44463882188219
 1  16.14950239313931 -2.42776306840684  0.11141968806881
 1  14.65861891259126 -2.59061143674368 -0.97997541264126
 1  16.55193482288229 -1.83458898379838 -1.76291776127613
 1  16.16722192289229  1.28836667036704  0.64853139743974
 1  16.54830927812781 -0.36455563066307  1.23081584278428
 1  18.34592553125313 -0.56355290269027 -0.40724406480648
 1  17.74071113561356  1.00687800670067 -1.18175175097510
 1  18.53632442504250  2.08942310001000  0.93779178447845
 1  18.90827798809881  0.95145932693269  1.81121112141214
 1  20.75351026372637  0.40624677287729  0.19339640364036
 1  20.16405051165116  3.14412797469747 -0.84832842624262
 1  21.27699195129513  1.84444109690969 -1.69355071837184
 1  19.53342724712471  1.78861067186719 -1.96827379637964
 1  21.30408638383838  1.39424753385339  2.17761737893789
 1  22.17106881318132  2.35652688238824  0.86385135143514
 1  20.85247497739774  3.11577166046605  1.52034247474748
=======
12 -7.19440001300130  0.67054580268027  0.08398608600860
 6 -4.85403002100210 -1.90972215061506  0.47176370907091
 6 -4.72970289918992  2.89277772507251  0.98110447534753
 6 -9.37029176467647  3.13309880538054 -0.31890475017502
 6 -9.54927524122412 -1.74787029802980 -0.79025545464546
 7 -5.06746017061706  0.44987480558056  0.60083050135014
 6 -4.31906161226123 -0.69335915791579  0.82100012321232
 6 -2.91148015341534 -0.39560898659866  1.27613796799680
 6 -2.94459789818982  1.12087475577558  1.48391912261226
 6 -4.38674566946695  1.50387113591359  1.15940297019702
 6 -2.60357543964396  1.45519780788079  2.98379978887889
 6 -1.92425588658866 -0.77368262966297  0.03474743304330
 6 -0.45830325292529 -0.44546889408941  0.45278940824082
 6  0.45921705890589 -0.63199671257126 -0.63355873637364
 8  0.10240148024802 -1.04068947654765 -1.74316064776478
 8  1.73263507400740 -0.30941833823382 -0.28682547144714
 7 -7.08622907080708  2.65685127492749  0.28104680018002
 6 -6.02531181018102  3.39491046684668  0.67940147374737
 6 -6.36602385548555  4.77188147754775  0.80872155935594
 6 -7.68343105010501  4.85911654315432  0.39749814111411
 6 -8.21912618421842  3.49468866416642  0.14617716401640
 6 -5.38985694239424  5.81074354025403  1.12822758325833
 6 -8.60385818341834  6.02628366206621  0.16559354475448
 6 -8.47195108640864  7.13696981558156  0.83034928472847
 7 -9.09382165476548  0.65852871397140 -0.57885191889189
 6 -9.84759101880188  1.78702865596560 -0.67875419951995
 6 -11.16609570617062  1.42647098619862 -1.06636835633563
 6 -11.19546195009501  0.03964932903290 -1.25766448044804
 6 -9.90760644134413 -0.42218419271927 -0.88659367546755
 6 -12.35177400110011  2.32577314831483 -1.27719449424943
 6 -12.36204075037504 -0.81010842094209 -1.68743955245525
 6 -12.33238072647265 -1.08786119731973 -3.26145126372637
 7 -7.21398086638664 -1.31426103970397 -0.08466314331433
 6 -8.26894713451345 -2.17376254835484 -0.52787774297430
 6 -7.80686683228323 -3.58567683518352 -0.46998427572757
 6 -6.46951083518352 -3.63776811381138 -0.04220595249525
 6 -6.20669326572657 -2.15622390369037  0.13188599279928
 6 -8.74203167056706 -4.81372421482148 -0.66400487888789
 6 -5.27095156545655 -4.43851773527353  0.21247412001200
 8 -5.25922476037604 -5.66878136153615  0.28062509320932
 6 -4.19894347374737 -3.29925571537154  0.54502436773677
 6 -3.55425605650565 -3.76475169646965  1.89351972487249
 8 -3.63358495909591 -3.15334207040704  2.94822750385038
 8 -2.83601479517952 -4.89775449784978  1.65288386928693
 6 -2.15336592449245 -5.35587981708171  2.89326426192619
 6  2.82251476317632 -0.55557335193519 -1.23737493789379
 6  4.09483157215722 -0.38473664996500 -0.60433058205821
 6  5.09254273867387  0.30556682208221 -1.00666043874387
 6  5.01557998099810  1.38144079337934 -2.11752591789179
 6  6.38462279507951  0.42867471767177 -0.22192867806781
 6  7.59017655555556 -0.20523086998700 -1.02307925842584
 6  8.91483335593559 -0.16130126052605 -0.18338015081508
 6  10.12047267176718 -0.60395746744674 -0.90523149364936
 6  10.17277397759776 -2.02810374647465 -1.31973543854385
 6  11.49126200310031 -0.38046182698270  0.06448731733173
 6  12.80233514121412 -0.46084013511351 -0.87612763566357
 6  13.96488595699570 -0.06492769556956  0.15746281378138
 6  15.31985811071107 -0.16528025712571 -0.44383262306231
 6  15.63885555445544 -1.65079271307131 -0.67393701140114
 6  16.38620272617262  0.40207456745675  0.46814132133213
 6  17.79849443884388  0.55135653405341 -0.06077189178918
 6  18.79615998549855  1.30578879587959  0.79317975097510
 6  20.22233090229023  1.32745307880788  0.32145690889089
 6  20.48405975977598  1.95813411061106 -1.20650164286429
 6  21.23786471727173  2.13031596789679  1.42925828922892
 1 -3.93975546004600  3.52952847424743  1.34469905680568
 1 -10.09707009970997  3.82913374837484 -0.52947833933393
 1 -10.32924621402140 -2.44451379217922 -1.11058771097110
 1 -3.12057851475148 -1.12649096299630  2.12769346054605
 1 -2.36703030823082  1.75104868746875  0.98370902130213
 1 -1.52511696919692  0.97775822872287  3.36124983848385
 1 -2.50747580758076  2.44686874437444  3.11482364776478
 1 -3.43948739143914  0.96768145214521  3.64138655145515
 1 -2.07277976287629 -1.75832579297930 -0.16612052125213
 1 -2.41242291479148 -0.26944969456946 -0.97204724432443
 1 -0.82011552895289  0.58146276017602  1.15236563566357
 1 -0.25721352335233 -1.11939645484548  1.39754370957096
 1 -5.75778455385539  6.77295593969397  0.70228593779378
 1 -5.41133812321232  6.21361472457246  2.13090938803880
 1 -4.37002095809581  5.61722288868887  0.93747692329233
 1 -9.52288434093409  6.09214536263626 -0.71598182638264
 1 -9.07978919481948  8.06041678057806  0.61788140994099
 1 -7.80509997579758  7.43728012751275  1.57404579007901
 1 -12.25288939403941  2.86338666466647 -2.27119012371237
 1 -13.23526319551955  1.75593948514851 -1.62135332683268
 1 -12.56088781988199  2.94870352505251 -0.32853409740974
 1 -12.49696447484749 -1.73787323242324 -1.18587354225423
 1 -13.28672739163916 -0.46861359815982 -1.44775030253025
 1 -13.06552290489049 -1.90994568076808 -3.48999888438844
 1 -12.42343590779078 -0.21184572217222 -3.85825932163216
 1 -11.39622590189019 -1.39024389148915 -3.46846546654665
 1 -9.10558016101610 -4.62914365726573 -1.62259552365237
 1 -8.27789715451545 -5.67812781698170 -0.73563317631763
 1 -9.60468035293529 -5.00757577887789  0.03215139253925
 1 -3.33694439033903 -3.47374062476248 -0.18114338583858
 1 -1.68441660816082 -4.39726616631663  3.38880179547955
 1 -2.94339394799480 -5.67700931853185  3.68907174607461
 1 -1.45418352985299 -6.12967224042404  2.74532848574857
 1  3.05889519361936 -1.57048888478848 -1.55198916391639
 1  2.58437591519152 -0.04383010341034 -2.21467461966197
 1  4.31058196379638 -1.09113132833283  0.14813802980298
 1  4.15866482998300  1.83663237363736 -2.36646501620162
 1  5.49151456315631  2.35623588248825 -1.68330479867987
 1  5.48009531713171  1.00166127362736 -2.82780151115112
 1  6.69537160006001  1.40803480348035  0.06057870067007
 1  6.16855097449745 -0.21045908330833  0.77065678237824
 1  7.27203458815882 -1.19686892209221 -1.33389471307131
 1  7.76187862376238  0.41304451255126 -1.98247117071707
 1  8.89828187978798  0.96922480748075  0.28781641384138
 1  8.93794228292829 -0.60719622582258  0.66911477517752
 1  10.21816936833683  0.18691122882288 -1.69348423792379
 1  9.36025101060106 -2.15785376187619 -1.87763368816882
 1  10.96908946464646 -2.13610039393939 -2.02333657755776
 1  10.26794968096810 -2.60097203920392 -0.51988142784278
 1  11.41787946884688  0.65258748894889  0.40603209070907
 1  11.33706676007601 -1.13635959725973  0.90607122872287
 1  12.86295961486149 -1.41430959215922 -1.06461412901290
 1  12.72079583208321  0.11349204020402 -1.86971033233323
 1  13.66654809150915  0.85078763476348  0.53994133713371
 1  13.75952870597060 -0.74328393309331  1.06679319581958
 1  15.17298058655865  0.13349283428343 -1.45563992199220
 1  15.78375581848185 -2.15993628572857  0.39677822392239
 1  14.91302435313531 -2.24767714331433 -1.14443185828583
 1  16.51513114251425 -1.92681820672067 -1.34806627612761
 1  16.17989319001900  1.36695452915292  0.80849739403940
 1  16.18258270547054 -0.28874804990499  1.47263002420242
 1  18.27234817351735 -0.35537208460846 -0.42320566096610
 1  17.76145320982098  1.31180849974998 -0.91303487928793
 1  18.18623941654165  2.34966912461246  1.07807581288129
 1  18.85527268756876  0.88116229722972  1.74217421772177
 1  20.62002691539154  0.35662181038104  0.36816388038804
 1  20.13780788738874  3.05776933883388 -1.12371596499650
 1  21.48298255035504  1.71708836163616 -1.60880224352435
 1  19.60224412881288  1.38505031583158 -1.84789175817582
 1  21.07328330353035  1.71891000010001  2.35186480368037
 1  22.26286799309931  2.04184541424142  0.89808477477748
 1  20.99624935483548  3.06185626892689  1.46886732723272
>>>>>>> 8e03b5b5abfc0030b3aa597dc0de36371bfbd096

