%nproc=4
%Mem=3GB
# td=(NStates=1) iop(3/107=0140000000,3/108=0140000000) CAM-B3LYP/6-31G(d,p) 

TD

0 1
12 -7.11920661236124  0.63346172967297 -0.05608923892389
 6 -4.87416623312331 -1.97694492509251  0.39990539293929
 6 -4.81289732033203  2.80654937283728  1.07496760196020
 6 -9.43782054655466  3.14348190119012 -0.34657713301330
 6 -9.43004910291029 -1.79368113381338 -0.91216802170217
 7 -5.10604763596360  0.42455854645465  0.72478030203020
 6 -4.36214846214621 -0.78418956215622  0.74818271297130
 6 -2.94672089268927 -0.43482188018802  1.14987065616562
 6 -3.04066729362936  1.03223192479248  1.61235751505151
 6 -4.40447068176818  1.50513516461646  1.07592198609861
 6 -2.85972215301530  1.14064688398840  3.14456977157716
 6 -1.87392312201220 -0.58926491569157  0.02766657695770
 6 -0.45583129232923 -0.53607685568557  0.52945632793279
 6  0.55811773497350 -0.67198382028203 -0.61530132023202
 8  0.23736395319532 -1.06476025372537 -1.75867326042604
 8  1.78849744814481 -0.49600953935394 -0.34292968056806
 7 -7.11943958735874  2.62211542144214  0.20793171727173
 6 -6.00023016681668  3.43732750015001  0.67180305640564
 6 -6.35294020242024  4.81436830043004  0.69667792649265
 6 -7.72734752005200  4.90361216641664  0.38720484688469
 6 -8.15149467696770  3.48671561036104  0.03107110571057
 6 -5.39034106800680  5.91239071277128  1.08576873207321
 6 -8.49132914091409  6.09124939453945  0.19620023252325
 6 -8.33990240024002  7.30717986768677  0.80848490779078
 7 -9.02926196729673  0.69794678907891 -0.66479305320532
 6 -9.94647213351335  1.84196752105211 -0.60906371987199
 6 -11.25372932563256  1.49799924442444 -1.02675753545355
 6 -11.25754524172417  0.13894143994399 -1.07370739903990
 6 -9.84542214581458 -0.40558075147515 -0.88081028232823
 6 -12.29081001870187  2.49510475187519 -1.14412386508651
 6 -12.46004979787979 -0.73487961176118 -1.50681001160116
 6 -12.37757966686669 -1.07928812111211 -3.05692634383438
 7 -7.16825978837884 -1.37498233393339 -0.32797547264726
 6 -8.21270559685969 -2.19776832233223 -0.63351493139314
 6 -7.87432947274727 -3.59509006040604 -0.50128042784278
 6 -6.56670446094610 -3.54131711381138 -0.12483456515652
 6 -6.30161389308931 -2.23780173597360  0.00065190059006
 6 -8.65713805330533 -4.85517161556156 -0.72589597269727
 6 -5.44467993089309 -4.39769333273327  0.37355232933293
 8 -5.39212020432043 -5.57071392839284  0.46522247084708
 6 -4.28669317191719 -3.41351879927993  0.53177149874988
 6 -3.53706788358836 -3.63144108680868  1.84134010251025
 8 -3.81888467186719 -3.09131648954895  2.90944430263026
 8 -2.76974232703270 -4.69079769826983  1.70635967346735
 6 -2.30782973997400 -5.22365757165717  2.86092349274927
 6  2.82555887628763 -0.73351164006401 -1.23929744694469
 6  4.20870175537554 -0.50426569446945 -0.51110367316732
 6  5.13624911621162  0.32921944994499 -0.89099197619762
 6  5.13083680928093  1.12327000230023 -2.12490662566257
 6  6.45669194789479  0.36634725072507 -0.16240676507651
 6  7.62381383398340 -0.03640218821882 -1.03205353405341
 6  8.85268297989799 -0.17392920902090 -0.21023712611261
 6  10.17358281888189 -0.53397506070607 -0.89484520452045
 6  10.16180945754575 -1.98398627852785 -1.52159912591259
 6  11.45070973477348 -0.35608049914992 -0.06059402190219
 6  12.77586532203220 -0.62539257275728 -0.80022752785279
 6  13.97610888268827 -0.25198091239124  0.11016742834283
 6  15.39446543754375 -0.22402148574857 -0.51489714221422
 6  15.85522179317932 -1.63367175547555 -0.83787561386139
 6  16.41297829052905  0.43502001930193  0.42551728642864
 6  17.81459904760476  0.49102283188319 -0.12205873287329
 6  18.78186860546055  1.36050412891289  0.82085534223422
 6  20.20912371677168  1.43728316081608  0.38436514251425
 6  20.34767761356136  2.24210151525152 -0.93866856275628
 6  21.10928599559956  2.02319401930193  1.48148208820882
 1 -4.10527089058906  3.43858711011101  1.71156725252525
 1 -10.28282040534053  3.99998227272727 -0.33337786398640
 1 -10.23805822992299 -2.35986152125213 -1.16111393079308
 1 -2.59891717891789 -1.04943514621462  2.00292678337834
 1 -2.09336280258026  1.57658972007201  1.18661231023102
 1 -1.83090617701770  0.77008611501150  3.53982431983198
 1 -2.88880598969897  2.21470069286929  3.45240326252625
 1 -3.50512331283128  0.58560371467147  3.89079076427643
 1 -1.98929404840484 -1.53286395719572 -0.52919092619262
 1 -1.86464283328333  0.27799541934193 -0.60156689128913
 1 -0.24670009870987  0.19958954625463  1.28991285428543
 1 -0.13393181348135 -1.34078484508451  1.16489994829483
 1 -5.82138631633163  6.97137464946495  0.73121295259526
 1 -5.31749322062206  6.08301118251825  2.33808582108211
 1 -4.28734357895790  5.73693796179618  0.92841357395740
 1 -9.35452571237124  6.08132151415142 -0.54664601730173
 1 -8.83499256295629  8.04805452645265  0.59047882358236
 1 -7.65024295639564  7.27661449784978  1.73757271757176
 1 -11.80865133813381  3.53265241234123 -1.81606743824382
 1 -13.19808710641064  2.25838458085809 -1.51217694589459
 1 -12.46924795749575  2.84041137523752  0.01696125662566
 1 -12.50187215211521 -1.63606452925293 -0.94478797969797
 1 -13.42733503260326 -0.24179689018902 -1.15607136153615
 1 -13.34500970017002 -1.48969263136314 -3.43732469056906
 1 -12.34834524022402  0.01549307800780 -3.51221019941994
 1 -11.41581642104210 -1.71263229042904 -3.17180545874587
 1 -8.98384300290029 -4.79206570737074 -1.83911997499750
 1 -7.94216860206021 -5.56637259055906 -0.57594754985499
 1 -9.65947012601260 -4.95983443184318 -0.00677294599460
 1 -3.51417893639364 -3.50901750735073 -0.38612635073507
 1 -1.89843323092309 -4.44360657405741  3.42917463506351
 1 -3.05675211251125 -5.68157768266827  3.58537957565757
 1 -1.76573709420942 -6.13102388718872  2.88490185128513
 1  2.75374342914291 -1.82812943574357 -1.60991243994399
 1  2.70970741204120 -0.36867878307831 -2.12020307780778
 1  4.12393287998800 -1.01463987778778  0.40129152935294
 1  4.30527583908391  1.17903344604460 -3.04286477217722
 1  5.47763469566957  2.23943436733673 -1.87801523992399
 1  6.16253582208221  0.75848703960396 -2.57984424132413
 1  6.51783996789679  1.30977095769577  0.32263187708771
 1  6.50285815791579 -0.37002433913391  0.81492768826883
 1  7.38143026582658 -1.04409508250825 -1.38862361956196
 1  7.77820037853785  0.66233533653365 -1.67307813071307
 1  9.16836288058806  0.81090058755876  0.42633506160616
 1  8.46976009680968 -0.98776712941294  0.49146526992699
 1  10.30791542334233  0.03043919171917 -1.78671382938294
 1  9.17529713881388 -1.90503878737874 -2.23363174507451
 1  11.03343248384838 -2.27004040334033 -2.05087044514451
 1  10.13349554665466 -2.66348046274627 -0.75798319201920
 1  11.54533617521752  0.79110554395440  0.37246501730173
 1  11.33940153565357 -0.96962826042604  0.74465078517852
 1  12.84695264776478 -1.63218063736374 -1.09159143064306
 1  12.84741057095709 -0.13011807580758 -1.89820415411541
 1  14.04092551285128  0.79255461876188  0.53607843654365
 1  13.98115642624262 -0.86092247114711  0.86681905590559
 1  15.27654805620562  0.35356875387539 -1.41529279807981
 1  16.08006180298030 -2.20020936213621  0.07262912741274
 1  15.04619626402640 -2.30627514751475 -1.52706407990799
 1  16.80420870047005 -1.53000389738974 -1.41304781808181
 1  16.13726700020002  1.38870720442044  0.58434435073507
 1  16.15275935373537  0.09478319351935  1.28721721642164
 1  18.27022376007601 -0.54379089308931 -0.28594879047905
 1  17.72962027162716  1.06321521562156 -1.14640038363836
 1  18.09231828872887  2.25221648964897  1.21872381918192
 1  18.69634559705971  0.92104694419442  1.76072931843184
 1  20.65909574187419  0.43308430603060  0.22262815501550
 1  20.20769758825883  3.38047882438244 -0.70746293099310
 1  21.27455125592559  2.40838198029803 -1.36839482068207
 1  19.98089648724872  1.85279556975698 -1.80268865326533
 1  21.18032188568857  1.45989163006301  2.43854752355236
 1  22.17760565336534  2.30362083278328  0.96983363696370
 1  20.66921700020002  2.97873399059906  1.75898303500350

