%nproc=4
%Mem=2GB
# td=(NStates=1) CAM-B3LYP/6-31G(d,p) 

TD

0 1
<<<<<<< HEAD
12 -7.13045361836184  0.62711145924592  0.02465015241524
 6 -4.82834745274527 -1.87773895229523  0.51037757045705
 6 -4.80137006590659  2.88925737303730  1.11464782968297
 6 -9.43977871337134  3.04175967146715 -0.37098995869587
 6 -9.53975428912891 -1.79716522752275 -0.85838226732673
 7 -5.08330175477548  0.49738955705571  0.61627204550455
 6 -4.39612931903190 -0.59262908490849  0.69850787398740
 6 -2.94841384678468 -0.41040046574657  1.15067542174217
 6 -2.97282072047205  1.17537020532053  1.56889762046205
 6 -4.36894388928893  1.57872862166217  1.06567359725973
 6 -2.86799188128813  1.37155944404440  3.06531794069407
 6 -1.80770423142314 -0.64807006840684  0.07375133343334
 6 -0.36413383598360 -0.57934228142814  0.48994312361236
 6  0.55960709790979 -0.74212772567257 -0.67984336483648
 8  0.20875211531153 -1.14841024862486 -1.73140947264726
 8  1.87268907940794 -0.50266766316632 -0.29375616451645
 7 -7.07282773067307  2.66096168596860  0.30393908940894
 6 -6.08272755175518  3.38658963476348  0.81393492709271
 6 -6.40517777087709  4.74401869126913  0.82471315851585
 6 -7.75700840784078  4.82403303480348  0.31759015031503
 6 -8.14163843544354  3.45100429572957  0.04486703300330
 6 -5.58140609730973  5.86647911381138  1.31597635813581
 6 -8.61023882148215  6.01227226092609  0.21999898529853
 6 -8.53671756305631  7.04751086968697  1.03257950775078
 7 -9.09304157675768  0.65149801090109 -0.62736677037704
 6 -9.85309156885689  1.68143809690969 -0.68177450155015
 6 -11.25670476707671  1.42037037613761 -1.13974569406941
 6 -11.28915131903190  0.05917128122812 -1.17139585358536
 6 -9.95226090679068 -0.43791576587659 -0.88214323042304
 6 -12.34442326602660  2.35784635563556 -1.35449222402240
 6 -12.44140868716872 -0.78724613471347 -1.60862167066707
 6 -12.42976046444645 -1.26652906410641 -3.01516663526353
 7 -7.29023849214922 -1.35581519511951 -0.18166284328433
 6 -8.27344758455846 -2.29287445954595 -0.56178113331333
 6 -7.77963410901090 -3.55752401990199 -0.58042531983198
 6 -6.43704758885889 -3.56988132513251 -0.18078981088109
 6 -6.17161975837584 -2.16458473977398  0.06558936313631
 6 -8.66001346874687 -4.77249009140914 -0.93086156455646
 6 -5.27025149544954 -4.37272115561556  0.21440431303130
 8 -5.07167600550055 -5.56535101850185  0.10698772947295
 6 -4.21635521492149 -3.26008179797980  0.57350721602160
 6 -3.62576320722072 -3.59817503880388  1.89699007190719
 8 -3.79902150275028 -3.10601733793379  2.97185986708671
 8 -2.84365555925593 -4.70816553895390  1.77451603250325
 6 -2.25041562946295 -5.12932716181618  3.08405334083408
 6  2.81974448614861 -0.65589338393839 -1.41095229562956
 6  4.14759684868487 -0.34494267056706 -0.65961611061106
 6  5.11077456185618  0.55002126752675 -1.07195696839684
 6  5.12215063806381  1.30980362966297 -2.29632379767977
 6  6.42883721652165  0.62420427062706 -0.30992747794779
 6  7.65509304720472 -0.13466381328133 -1.01214816531653
 6  8.87342921552155 -0.08802393279328 -0.04854666746675
 6  10.20521114561456 -0.56299337103710 -0.69057002750275
 6  9.99517621782178 -2.06702763886389 -1.02111557655766
 6  11.47741061796180 -0.24093787458746  0.12039290789079
 6  12.80385529322932 -0.46311036213621 -0.59431945484548
 6  13.99360882928293 -0.01832303510351  0.20495756325633
 6  15.36491261616162 -0.15980971007101 -0.41959019881988
 6  15.68560022892289 -1.71675930973097 -0.63864348204820
 6  16.46756086198620  0.55236959695970  0.45732023922392
 6  17.84737932733273  0.49405080348035 -0.17801361596160
 6  18.86468683818382  1.18405662266227  0.78590902390239
 6  20.26542521172117  1.15139547304730  0.15240000320032
 6  20.36412776657666  1.85880417761776 -1.17090808350835
 6  21.32795372617262  1.98071100740074  1.10788615201520
 1 -4.07246873137314  3.70593611501150  1.38642322922292
 1 -10.21400179287929  3.75399623462346 -0.58259365086509
 1 -10.14456774617462 -2.65733507430743 -0.99925657785779
 1 -2.50503696059606 -1.04392270617062  2.08749944114411
 1 -2.25117872307231  1.77930151275128  0.84523517391739
 1 -1.95988044554455  0.98633908680868  3.58015172867287
 1 -2.93698875887589  2.39197325482548  3.54281644704470
 1 -3.69920336303630  0.92941762576258  3.71872428522852
 1 -2.06402888778878 -1.71621158155816 -0.60760466966697
 1 -2.12058373087309 -0.00415316491649 -0.73493353295329
 1 -0.09102261966197  0.34208882278228  0.99810020912091
 1 -0.14826262826283 -1.34477899309931  1.25153910911091
 1 -6.13777255265527  6.73580222432243  0.81136684588459
 1 -5.87140412981298  6.21030439353935  2.32072836993699
 1 -4.45193914991499  5.73312447884788  1.03640681628163
 1 -9.23033508600860  6.14044019211921 -0.63471369956996
 1 -9.19758097399740  7.90414115301530  0.67127674947495
 1 -8.02836230203020  7.06792319181918  1.91046943244324
 1 -12.28247235233524  2.95789611561156 -2.34695770047005
 1 -13.25734540374037  1.75933982518252 -1.18444963646365
 1 -12.33680541164117  3.08774742944294 -0.40792203620362
 1 -12.59867464586459 -1.70488993409341 -0.99449440434043
 1 -13.50905962486249 -0.24580131693169 -1.73232876037604
 1 -13.24220057265727 -1.85544023022302 -3.29585947044705
 1 -12.03377694189419 -0.34820935853585 -3.64845834153415
 1 -11.43878015731573 -1.79106397349735 -3.12300092009201
 1 -8.84848445144515 -4.67220796369637 -1.95430869496950
 1 -8.17924728952895 -5.79665967016702 -0.94833444644464
 1 -9.59466935183518 -4.95050007130713 -0.26915873847385
 1 -3.63271396729673 -3.54345759645965 -0.37095236673667
 1 -1.96346451295129 -4.18238467816782  3.82723563886389
 1 -3.06134574317432 -5.48624024162416  3.79553239213921
 1 -1.40896900840084 -5.93889316251625  2.77377133003300
 1  2.73133243734373 -1.68577041294129 -1.80014397939794
 1  2.62851032863286  0.28934321392139 -2.06989014121412
 1  4.19308021362136 -0.76061827702770  0.32323553955396
 1  4.22229119261926  1.37423613401340 -2.66368473817382
 1  5.74451986368637  2.29297955685569 -1.97919438763876
 1  5.92078938653865  0.88839994749475 -3.01388011901190
 1  6.78506056895689  1.65332933293329 -0.17040439763976
 1  6.25686980638064  0.30314227682768  0.73357307400740
 1  7.34525190989099 -1.15741497669767 -1.28346967056706
 1  7.96537897379738  0.41872508060806 -1.97354027762776
 1  9.11257330893089  1.21463934893489 -0.07388975677568
 1  8.70343883258326 -0.69208471467147  0.85387325102510
 1  10.06745429682968  0.09431196889689 -1.54039892939294
 1  9.03473845934593 -2.31166914341434 -1.73598952375238
 1  10.95541809750975 -2.17936472037204 -1.71498574247425
 1  10.07252013801380 -2.66133807580758 -0.21788122782278
 1  11.43683136403640  0.74287651785179  0.66305779327933
 1  11.81023407680768 -0.92695865716572  0.86452707430743
 1  12.88323164206421 -1.57645580678068 -0.79748741634163
 1  12.71209496199620  0.00811150215022 -1.59636299759976
 1  13.71802323902390  0.91498405440544  0.76591393439344
 1  13.95198795189519 -0.64279388408841  1.10194671117112
 1  15.11152444094409  0.34572405740574 -1.47393175117512
 1  15.77391483438344 -2.33570386248625  0.15542408850885
 1  14.80903395409541 -2.13375575117512 -1.25160257535754
 1  16.51612124152415 -1.73131865676568 -1.18567003650365
 1  16.23835903660366  1.66951478517852  0.61575812011201
 1  16.50593504070407  0.14854567946795  1.53053581478148
 1  18.18584952365237 -0.55311185858586 -0.23269661006101
 1  17.91033809830983  1.12704002290229 -1.16460003580358
 1  18.63519431203120  2.19098325602560  0.92109011431143
 1  18.82205936623663  0.66188036903690  1.73441344164416
 1  20.53973888658866  0.13798994719472 -0.16669960596060
 1  19.87880198679868  2.84147770967097 -0.95274886828683
 1  21.49074332643264  1.94308096089609 -1.67857922122212
 1  19.97088099249925  1.41336314711471 -1.99549651865187
 1  21.47264323952395  1.27688579767977  2.21833145034504
 1  22.28729043534353  2.01507273697370  0.64483945024502
 1  20.81721145104510  3.01466154945495  1.28841928242824
=======
12 -7.23960453345335  0.60450919901990  0.22416010341034
 6 -4.97044166216622 -1.91765294369437  0.71188772147215
 6 -4.82400232913291  2.83409185648565  1.22823918881888
 6 -9.37468220372037  3.04894038953895 -0.41376423612361
 6 -9.47120743444344 -1.73207871887189 -0.92952938203820
 7 -5.14591801640164  0.43676349444944  0.97121754005401
 6 -4.42592229832983 -0.68705852785279  1.05396341954195
 6 -2.96670567596760 -0.34555398109811  1.35849620382038
 6 -2.94320775917592  1.13165583388339  1.68416914761476
 6 -4.37191418631863  1.55823657245725  1.11469849974998
 6 -2.88403348544854  1.42006429452945  3.20615202410241
 6 -2.03272673367337 -0.63009827122712  0.17547150545055
 6 -0.48105552815282 -0.46033038023802  0.62695682498250
 6  0.50514165136514 -0.67173068596860 -0.52267764826483
 8  0.10821206130613 -1.13403881148115 -1.55931226292629
 8  1.81248305880588 -0.42880027642764 -0.25962275117512
 7 -7.17197764566457  2.56969255905591  0.25384407990799
 6 -6.08026730573057  3.29795077087709  0.80353388698870
 6 -6.36938419151915  4.74548883828383  0.81439212641264
 6 -7.71376408340834  4.85886651815181  0.32140053135314
 6 -8.10527479907991  3.49973916921692  0.07837038333833
 6 -5.43757171387139  5.89223168906891  1.31303606410641
 6 -8.55741353895390  5.97537857155716  0.17969495489549
 6 -8.45858975027503  7.14987110571057  0.83572982278228
 7 -9.07969024162416  0.67221008210821 -0.58511254495450
 6 -9.83069932963296  1.78780873397340 -0.73162948704870
 6 -11.17393649024902  1.40480881998200 -1.22093381288129
 6 -11.14232663656366  0.12133749784978 -1.41354006800680
 6 -9.85161084178418 -0.41779375367537 -0.88426344244424
 6 -12.23243206690669  2.30454102510251 -1.52332910771077
 6 -12.27060160646065 -0.77288469856986 -1.85475628412841
 6 -12.06391387978798 -1.14109652085209 -3.42883800240024
 7 -7.21357082538254 -1.35960557415742 -0.11829650665067
 6 -8.20937117691769 -2.24666983908391 -0.58710366556656
 6 -7.84234037963796 -3.63830209770977 -0.46837411471147
 6 -6.53622750685069 -3.56627096409641 -0.00774250615062
 6 -6.23925652205221 -2.15089337063706  0.27199000320032
 6 -8.41596906430643 -4.95893873627363 -0.92273075147515
 6 -5.29404387468747 -4.36128001150115  0.21492436503650
 8 -5.10849968786879 -5.59113359675968  0.17728475917592
 6 -4.21220479987999 -3.30429621942194  0.65645551085109
 6 -3.56593722462246 -3.60395561686169  1.99113948684869
 8 -3.79805140574057 -3.07498423462346  3.04011669276928
 8 -2.63886508020802 -4.55431015341534  1.84339292019202
 6 -2.00784137203720 -5.16233046214621  3.03136807230723
 6  2.83614612631263 -0.68962675727573 -1.26641784218422
 6  4.18824091309131 -0.44454263056306 -0.80661081008101
 6  5.09296278067807  0.42453871927193 -1.33962373507351
 6  4.95860428342834  1.36138878817882 -2.49040320562056
 6  6.33535786858686  0.46483833403340 -0.42650913611361
 6  7.54639217711771 -0.33074342124212 -1.06313326382638
 6  8.75942781538154 -0.16004113451345 -0.12938475127513
 6  10.11595221972197 -0.47275434713471 -0.88890986148615
 6  10.19182588278828 -1.87702863896390 -1.46614007900790
 6  11.34060693759376 -0.25220900170017  0.00091095969597
 6  12.73208811651165 -0.31257530863086 -0.80528055095510
 6  13.94350381878188 -0.02358356115612  0.05062212971297
 6  15.31893801870187 -0.11074480358036 -0.59133737353735
 6  15.54320598949895 -1.61463909770977 -0.91920153785379
 6  16.40171427732773  0.35839019901990  0.26188069526953
 6  17.76794138353835  0.40948234663466 -0.12064787938794
 6  18.80737110661066  1.07941615861586  0.79146957995800
 6  20.31518018721872  1.27137747124712  0.41929669286929
 6  20.57903925772577  2.05195349254925 -0.87071806450645
 6  21.14282521332133  1.78413134943494  1.46096145954595
 1 -4.02402388688869  3.57867338873887  1.40136472337234
 1 -10.09576996969697  3.66751758675868 -0.69577496899690
 1 -10.38468175757576 -2.32070141094109 -1.28888554075407
 1 -2.55320177707771 -0.86427474137414  1.98699939113911
 1 -2.37103070827083  1.82267585018502  1.09292994339434
 1 -2.05820027752775  0.91239169206921  3.70343405690569
 1 -2.85904096409641  2.36386044354435  3.52316448184818
 1 -3.51359480218022  0.79709439343934  3.84645705850585
 1 -2.10400288518852 -1.80982094249425 -0.14283819301930
 1 -2.18920059255926 -0.02540529012901 -0.64340438003800
 1 -0.54981849924992  0.55277989188919  0.97220761986199
 1 -0.21846964896490 -1.15963047824783  1.53160711591159
 1 -5.90314909030903  6.69116776087609  0.44206991619162
 1 -5.54878186758676  6.28168153125312  2.30883718081808
 1 -4.35892984898490  5.69782094849485  0.79770294589459
 1 -9.16609866236624  6.14847099519952 -0.57189741794179
 1 -9.06007722362236  7.95215595449545  0.59458908070807
 1 -7.83827329312931  7.34167056655666  1.67598598409841
 1 -12.03411751685169  2.75142546854685 -2.54481748644865
 1 -13.22381205040504  1.89567345854585 -1.89737092859286
 1 -12.65730746184619  3.08567722242224 -0.85613685768577
 1 -12.54849962836284 -1.73274271937194 -1.12836779167917
 1 -13.07894661356135 -0.16103284008401 -1.81693722122212
 1 -12.85016136873687 -1.86103078927893 -3.75608549304931
 1 -12.16433999819982 -0.34184872247225 -4.13417691339134
 1 -11.23334961426143 -1.49628449554955 -3.61706032603260
 1 -8.83638324132413 -4.97756849974998 -1.93866713081308
 1 -7.88655802060206 -5.77872787698770 -0.75130474347435
 1 -9.24852473737374 -5.18403342464246 -0.34429625222522
 1 -3.53200389628963 -3.15111836253625 -0.30185545704570
 1 -1.32188035453545 -4.58495493519352  3.46052896819682
 1 -2.75005461406141 -5.61657327492749  3.59062190109011
 1 -1.35967407890789 -5.85571484468447  2.57231118401840
 1  2.58328763286329 -1.74870670657066 -1.57212117711771
 1  2.63639111671167 -0.03991971237124 -2.00430358255826
 1  4.63690459605961 -1.01852406760676  0.06909012501250
 1  3.96119508300830  1.40531924232423 -3.01836020572057
 1  5.07820323202320  2.45168542744274 -2.23501997019702
 1  5.85203251085108  1.46562767026703 -3.26430516151615
 1  6.71414347724772  1.41325532553255 -0.34052140934093
 1  6.16087020642064  0.05913787638764  0.40937065376538
 1  7.07572495719572 -1.21984121932193 -1.36741806540654
 1  7.59851228712871  0.10720392849285 -2.01264418801880
 1  8.56434848644864  1.02456034103410  0.12659029122912
 1  8.58902739143914 -0.90168567476748  0.69924778847885
 1  10.20548810021002  0.20655319301930 -1.70039492899290
 1  9.42272725822582 -2.37667564406441 -2.04654057885789
 1  11.09599215491549 -2.10331711561156 -2.14798904280428
 1  10.27059994599460 -2.68086002800280 -0.67641708140814
 1  11.22316999789979  0.77537976817682  0.56201768926893
 1  11.19727278067807 -0.87771373267327  0.90232085368537
 1  12.67673099199920 -1.19425758695870 -1.19280694829483
 1  12.52389614211421  0.48190888188819 -1.43171653295330
 1  13.73793523022302  1.13997655365537  0.49224656765677
 1  14.09208196129613 -0.66300590529053  0.95322183868387
 1  15.33989727822782  0.37480696569657 -1.56612097009701
 1  15.48970641354135 -2.20771106320632 -0.09370082398240
 1  14.91546459715972 -1.88863123872387 -1.85052246734673
 1  16.46031566096610 -1.64885040994099 -1.33835530503050
 1  16.00535573627363  1.46654448814881  0.60261680598060
 1  16.27703215041504 -0.06915609070907  1.39752251345134
 1  18.20413135183518 -0.58374492189219 -0.45829917031703
 1  17.79409647414742  0.98559587848785 -1.18134170997100
 1  18.38232902550255  2.17715187288729  1.07148515381538
 1  18.53140030033003  0.71029521052105  1.90092009230923
 1  20.34970988368837  0.16850299849985  0.08871593559356
 1  20.16044015061506  2.99214277617762 -0.81590518391839
 1  21.58389264136414  2.32491914471447 -1.43344470777078
 1  19.81077498189819  1.62592440324032 -1.76863383238324
 1  20.98072404760476  1.35431354045404  2.54967458465847
 1  22.13936564286428  1.69954118381838  1.12795776207621
 1  21.05166489638964  2.94976505980598  1.61922236273627
>>>>>>> 8e03b5b5abfc0030b3aa597dc0de36371bfbd096

