%nproc=4
%Mem=3GB
# td=(NStates=1) iop(3/107=0140000000,3/108=0140000000) CAM-B3LYP/6-31G(d,p) 

TD

0 1
12 -7.11460615231523  0.63277166066607  0.04330070007001
 6 -4.95726454295430 -1.90523775437544  0.51035643804380
 6 -4.76362239283928  2.94415313321332  1.13922402760276
 6 -9.36358312281228  3.06611416441644 -0.37195967126713
 6 -9.52477857585759 -1.73850561626163 -0.99562636753675
 7 -5.15766279747975  0.39436552715272  0.72687051105111
 6 -4.42751499879988 -0.72867401060106  0.87599549424943
 6 -2.96988320892089 -0.41267966596660  1.25752142124212
 6 -3.10012323922392  1.02911161276128  1.66527280658066
 6 -4.38199843454345  1.50566521762176  1.21527592149215
 6 -3.06675285608561  1.21356417571757  3.16476179077908
 6 -1.95511124082408 -0.58696468566857  0.05145895619562
 6 -0.51893760296030 -0.59285253325333  0.42769615191519
 6  0.50719264246425 -0.79179580148015 -0.66136592669267
 8  0.25150536733673 -0.97245102280228 -1.89694708780878
 8  1.72730132853285 -0.56489642804280 -0.22743813141314
 7 -7.05161280468047  2.66468967886789  0.25970689478948
 6 -5.98627877167717  3.35760952835284  0.79866574267427
 6 -6.38999390779078  4.78095495909591  0.81322958165817
 6 -7.68216300160016  4.84310611581158  0.33832995939594
 6 -8.08449797729773  3.43304024282428  0.05380337893789
 6 -5.34876691059106  5.89520899459946  1.31656181138114
 6 -8.45427543554355  6.09270954055406  0.14992560506051
 6 -8.34921333133313  7.26966611631163  0.87952201150115
 7 -9.06602564366437  0.68597559195920 -0.53997057095710
 6 -9.81803929022902  1.81517484178418 -0.61657447094709
 6 -11.21074502720272  1.45409485398540 -1.22475733543354
 6 -11.20092958015802  0.06450399619962 -1.27995802410241
 6 -9.87744534813481 -0.36519671307131 -0.88892109340934
 6 -12.36546748444844  2.42524776617662 -1.33759321202120
 6 -12.41593538643864 -0.71229735353535 -1.80225955655566
 6 -12.33231514041404 -0.91042123442344 -3.33405405660566
 7 -7.26821978437844 -1.33924876057606 -0.25150782588259
 6 -8.23736806310631 -2.16071461696170 -0.64573615351535
 6 -7.88384042384238 -3.65868642004200 -0.60141044084408
 6 -6.63915170567057 -3.55172815491549 -0.01464354605461
 6 -6.26826055775577 -2.19488744454445  0.14872670807081
 6 -8.72306464596460 -4.86522262066207 -0.94064744784478
 6 -5.44420988388839 -4.26304986838684  0.29197417151715
 8 -5.20035102740274 -5.51010786778678  0.44538048664866
 6 -4.26070057265727 -3.24374182158216  0.60589891149115
 6 -3.61595577237724 -3.63760170287029  1.85344131263126
 8 -3.70711349474948 -3.18006536443644  2.98612197039704
 8 -2.70361571437144 -4.76731535003500  1.73743278077808
 6 -2.12640159715972 -5.24066927282728  2.94381178157816
 6  2.76501282168217 -0.67761605050505 -1.28814233143314
 6  4.09323020822082 -0.51892716061606 -0.65257782058206
 6  5.09730522182218  0.28010453845385 -0.96524940194019
 6  5.08392211781178  1.09701737703770 -2.17825196019602
 6  6.35477175587559  0.23262387838784 -0.08535906030603
 6  7.61319277187719 -0.28022657065707 -0.76252658135814
 6  8.87660537213721 -0.19947176327633 -0.02042814521452
 6  10.15614107470747 -0.50114177737774 -0.76156187618762
 6  10.10065334193419 -1.93111099099910 -1.28902586858686
 6  11.43784844864486 -0.24163905500550  0.08005004250425
 6  12.78008574407441 -0.46170620412041 -0.57268477357736
 6  13.93635490729073 -0.09889560386039  0.12207861946195
 6  15.31395738673867 -0.26027511111111 -0.43035868836884
 6  15.75486175717572 -1.67539592789279 -0.84911673797380
 6  16.58445543824383  0.40051656895690  0.30400513521352
 6  17.89372696039604  0.56315004460446 -0.32241876887689
 6  18.86644706330633  1.31086916541654  0.60805406210621
 6  20.30381318571857  1.40564999749975  0.19380608660866
 6  20.56598944474447  2.13621092619262 -1.16768146404640
 6  21.16141120812081  2.12448414831483  1.33413735373537
 1 -3.97827819131913  3.44509776117612  1.60868696449645
 1 -9.92918504180418  4.01118339283928 -0.63632815901590
 1 -10.10195461956196 -2.48429396449645 -1.31998981838184
 1 -2.64924221142114 -1.06589679237924  2.07461395209521
 1 -2.41069453575358  1.52011407250725  1.14383803280328
 1 -2.01555464186419  0.90493960036004  3.51455179257926
 1 -3.21744885398540  2.30436965976598  3.35985400760076
 1 -3.82799560006001  0.55076023032303  3.66229791499150
 1 -2.26005112411241 -1.56129680048005 -0.19569757685769
 1 -2.23592996199620  0.01971959175918 -0.76381311591159
 1 -0.10321575027503  0.34834442174217  1.05516937993799
 1 -0.42956137643764 -1.36309707630763  1.11201465976598
 1 -5.85659983768377  6.96387389938994  1.08221805310531
 1 -5.36216768806881  5.81757463886389  2.56350836333633
 1 -4.19645449004901  5.79751401940194  0.90294102670267
 1 -9.30029028882888  6.00501388338834 -0.75632698539854
 1 -8.85096416011601  8.16791651265127  0.43765354105411
 1 -7.78624655675568  7.45798263466347  1.70209917021702
 1 -12.35408588158816  3.16333548064806 -2.21577740924092
 1 -13.31025832353235  1.82553129552955 -1.32276800500050
 1 -12.26469750245024  3.06540387448745 -0.49782022152215
 1 -12.40718268316832 -1.70381130393039 -1.29517301820182
 1 -13.06771907100710 -0.09004171467147 -1.37522327672767
 1 -12.92399759895990 -1.57073073517352 -3.68521948004800
 1 -12.44370477617762 -0.03727219851985 -4.02482146054605
 1 -11.33340818021802 -1.41915294249425 -3.62595087328733
 1 -8.93523814241424 -4.85055155595559 -2.09543560656066
 1 -8.33431781698170 -5.84497045034504 -0.62588254335434
 1 -9.75372955195520 -4.98273672207221 -0.51560382908291
 1 -3.56685420392039 -3.52578918451845 -0.12098983708371
 1 -1.40324371197120 -4.49203141654165  3.35726744434443
 1 -2.74516095339534 -5.43944346924693  3.92779381708171
 1 -1.42021254175418 -6.20404118891889  2.73239660076008
 1  2.54796285108511 -1.68136475927593 -1.81366281498150
 1  2.56845328662866  0.16483456825683 -1.93713477097710
 1  4.30326081278128 -1.27616603040304  0.09664106430643
 1  4.08821413291329  1.42097764046405 -2.46054654035403
 1  5.51766869906991  2.05250567446745 -2.05520295869587
 1  5.61958152665267  0.47770896179618 -2.96543280018002
 1  6.61802998689869  1.30596057665767  0.50094970887089
 1  6.10999887198720 -0.40693803050305  0.85077127262726
 1  7.53469559235924 -1.42403307630763 -1.11554631183118
 1  7.81428398689869  0.28836793979398 -1.77519834273427
 1  8.82916896119612  0.85790528802880  0.36657908600860
 1  8.80241336213622 -0.67387574027403  0.92828895229523
 1  10.21513614541454  0.07161330913091 -1.56282144014401
 1  9.21549115821582 -2.20989927342734 -1.98271665356536
 1  11.01610075067507 -1.99068246754675 -2.00136549464947
 1  10.19084128122812 -2.78508262296230 -0.53710110381038
 1  11.22338397999800  0.79750618401840  0.63038080888089
 1  11.37745534103410 -0.98047934553455  0.78479479957996
 1  12.82639059155916 -1.56495391469147 -0.92558482998300
 1  12.52074790469047  0.09285422142214 -1.46348068176818
 1  14.10304172447245  0.86677204050405  0.56609143784378
 1  14.04438274887489 -0.78486486538654  1.13223559755976
 1  15.41478187958796  0.06498989598960 -1.60269153795380
 1  15.94114791159116 -2.27238657985799 -0.03317145264526
 1  14.94384602900290 -1.94637915791579 -1.59088046154615
 1  16.63429170877088 -1.78953985098510 -1.32633914721472
 1  16.20784405790579  1.36069440314031  0.81387730403040
 1  16.75493957175718 -0.18104438923892  1.20175867056706
 1  18.27736447414742 -0.44393090709071 -0.58829902550255
 1  17.66177348694869  1.13689258335834 -1.47482322592259
 1  18.39368842574257  2.31363263126313  0.76872881968197
 1  18.70051601410141  0.77571241074107  1.62938618411841
 1  20.72990282258226  0.45447644524452  0.11638753095310
 1  20.06497331583158  3.24423520002000 -1.14853703840384
 1  21.69756355715572  2.16835797789779 -1.28219620082008
 1  20.02937133473347  1.76710700090009 -2.18454683908391
 1  20.90160401390139  1.68075371627163  2.52838650745075
 1  22.32130002280228  2.14233470417042  1.30437709130913
 1  20.95334541304130  3.22566868406841  1.28181531823182

