%nproc=4
%Mem=2GB
# td=(NStates=1) CAM-B3LYP/6-31G(d,p) 

TD

0 1
12 -7.13433400640064  0.65481422952295  0.05338302570257
 6 -4.78100271827183 -1.93785496389639  0.59032556525653
 6 -4.90457038593859  2.82961140844084  1.14389075397540
 6 -9.45721045654565  3.14369986548655 -0.43821668136814
 6 -9.42322263596360 -1.69179469046905 -0.87050347944794
 7 -5.06358978357836  0.49788960706071  0.71936235453545
 6 -4.34471417751775 -0.64251407340734  0.83877190039004
 6 -2.94171317671767 -0.33720314601460  1.24316467066707
 6 -3.08451188958896  1.07418008630863  1.79963069376938
 6 -4.39784677957796  1.52996374517452  1.15755278517852
 6 -2.94141922402240  1.24466675477548  3.29577098599860
 6 -1.99196265726573 -0.48264352575258  0.04955891419142
 6 -0.50022744534453 -0.37091143834383  0.30723485278528
 6  0.47291842904290 -0.75550906380638 -0.73520890139014
 8  0.19012025212521 -1.15208061566157 -1.86933326502650
 8  1.71539334983498 -0.29600699709971 -0.35739252815282
 7 -7.09061950985099  2.68344393419342  0.33514220972097
 6 -6.18216749574958  3.42632360816082  0.80692422602260
 6 -6.50690794389439  4.73981827122712  0.82394308150815
 6 -7.86975968296830  4.79630026152615  0.48349674097410
 6 -8.21029530113011  3.56776597189719  0.04659720602060
 6 -5.55698365506551  5.74970743664367  1.31814657515752
 6 -8.61918971657166  6.08419945364536  0.08723570897090
 6 -8.63979787108711  7.21489760836084  0.91223747354735
 7 -9.07605987858786  0.71748460956096 -0.47830186388639
 6 -9.86847310701070  1.76591654475448 -0.71528785288529
 6 -11.21998109470947  1.37027536663666 -1.13901562106211
 6 -11.18272067596760 -0.01627626352635 -1.23564227822782
 6 -9.78876455715572 -0.35895787008701 -0.92327734383438
 6 -12.44211303500350  2.24813538453845 -1.38140491529153
 6 -12.40059460576058 -0.86054346444644 -1.65123593209321
 6 -12.35638312671267 -1.25420783198320 -3.19573469206921
 7 -7.13979344764476 -1.30506011961196 -0.17866254325433
 6 -8.11330156995700 -2.10325549764976 -0.58709366456646
 6 -7.75601174677468 -3.47735600310031 -0.53604088138814
 6 -6.47593147724772 -3.50741507850785 -0.10919265116512
 6 -6.18437103350335 -2.19658794009401  0.20906371057106
 6 -8.61864933233323 -4.78557139953995 -0.77366584498450
 6 -5.38175264556456 -4.38139202270227  0.20295316791679
 8 -5.20044888278828 -5.58780326372637  0.13761079177918
 6 -4.19549312871287 -3.27332312211221  0.63667353265327
 6 -3.49216984788479 -3.56070129142914  1.89947031993199
 8 -3.67327892849285 -3.01679841604160  3.03262594369437
 8 -2.66655784948495 -4.67014173657366  1.79000758165817
 6 -2.02014260216022 -5.10137436653665  2.99576451195120
 6  2.84337684938494 -0.63783157775778 -1.30002120252025
 6  4.08952104110411 -0.47916609290929 -0.68326847584758
 6  5.04624810921092  0.27724398979898 -1.14592436513651
 6  5.05744416741674  1.11437408670867 -2.35689985528553
 6  6.43636796959696  0.36713856405641 -0.34561104630463
 6  7.65529306720672 -0.05357570447045 -1.12655960646065
 6  8.87403927652765 -0.17928305870587 -0.23390520332033
 6  10.23150377487749 -0.64518158985899 -0.94919589008901
 6  10.21500820102010 -2.11760269636964 -1.39745321032103
 6  11.46670954785479 -0.38189196999700 -0.09202833423342
 6  12.88659356705671 -0.47669172027203 -0.70831085398540
 6  14.02198166656666 -0.13110431323132  0.17756482398240
 6  15.47251337623762 -0.33386711581158 -0.46144438423842
 6  15.84604627352735 -1.75120275407541 -0.81197081478148
 6  16.45235934183418  0.31459581958196  0.51941644884488
 6  17.93338792819282  0.46052745114511  0.00570475587559
 6  18.75041541104110  1.28557677467747  0.88121855485549
 6  20.23584225342534  1.38889922342234  0.37381214441444
 6  20.26380773457346  2.01546984418442 -1.01310230293029
 6  21.04587551835183  2.13116605290529  1.35472083548355
 1 -4.10053153765377  3.31979750115012  1.60097468436844
 1 -10.22407279998000  3.84919575457546 -0.48761415291529
 1 -10.20487377677768 -2.24380372117212 -1.19146579877988
 1 -2.68861531843184 -1.09056737063706  2.01163185438544
 1 -2.40060366556656  1.67825140774077  1.21714236463646
 1 -1.97191164866487  1.07653810671067  3.64901861536154
 1 -3.33042810281028  2.41237529502950  3.59579174457446
 1 -3.62824626732673  0.66014069806981  3.80020243304330
 1 -2.16363884878488 -1.44501446184618 -0.29369327852785
 1 -2.37549922242224  0.26564381478148 -0.67071711131113
 1 -0.14600811821182  0.65920053395340  0.53103350245025
 1 -0.31001880388039 -1.12693720892089  1.29961391659166
 1 -5.84744351975197  6.69236788088809  0.96075178437844
 1 -5.38509549894990  5.75135849894990  2.37451374847485
 1 -4.59916387238724  5.58063923032303  0.71852502810281
 1 -9.27543959645965  6.00209635773577 -0.89422965116512
 1 -9.24644586048605  7.96178691759176  0.48746836863686
 1 -7.93982344814481  7.23050945044504  1.61581996749675
 1 -12.24215832093209  2.78160848684868 -2.44295730043004
 1 -13.44208387758776  1.62851674287429 -1.22916410791079
 1 -12.38567029812981  2.92510116481648 -0.50328157215722
 1 -12.42089686808681 -1.71709115421542 -1.17132208710871
 1 -13.33577229612961 -0.42242897969797 -1.38382390989099
 1 -13.28596494909491 -1.82573725992599 -3.42391227572757
 1 -12.30638420262026 -0.34530906850685 -3.79326282198220
 1 -11.54592087138714 -1.85955082218222 -3.36774539453945
 1 -9.17745734873487 -4.52000274317432 -1.54209747384739
 1 -7.94348371317132 -5.76093609780978 -0.83039265226523
 1 -9.32545243014301 -5.18362338363836  0.24909308670867
 1 -3.39238993489349 -3.40841409210921 -0.26225149664967
 1 -1.33756192269227 -4.19045548524852  3.49811272657266
 1 -2.61112072067207 -5.52390400800080  3.79335217411741
 1 -1.18752686418642 -5.87397667086709  2.48645259815982
 1  2.46688599269927 -1.62287412331233 -1.47817178217822
 1  2.93856133373337 -0.15571129152915 -2.38801195339534
 1  4.15058596419642 -1.06234845004500  0.25777899389939
 1  4.01882084558456  1.29322803320332 -2.51477984768477
 1  5.69712512421242  2.03275353425343 -1.81320778897890
 1  5.70791809940994  0.50958206570657 -3.07264599559956
 1  6.55044710761076  1.40652465246525 -0.13111046824682
 1  6.52774689408941 -0.16254429182918  0.58195791249125
 1  7.41906929162916 -1.05981521672167 -1.55222654625463
 1  7.81653408930893  0.37854106220622 -2.17828075167517
 1  8.93781583318332  0.88246613161316  0.12713034523452
 1  8.84828331703170 -1.03608911511151  0.59615747944795
 1  10.38595614701470 -0.04909237153715 -1.86451134063406
 1  9.52608759425943 -2.36926490299030 -2.05468139293929
 1  11.28238079377938 -2.48040482438244 -1.92473671757176
 1  10.00197308330833 -2.67779972197220 -0.60292973267327
 1  11.40510819171917  0.69722195239524  0.53378486598660
 1  11.46718977237724 -1.03637959925993  0.75567618921892
 1  13.16065938483848 -1.44625278647865 -1.35004267186719
 1  13.01642539503950  0.08352904390439 -1.53153651495150
 1  13.86641807850785  0.91444400040004  0.37999534253425
 1  14.02422517561756 -0.75080468516852  1.07422393889389
 1  15.30543383188319  0.31390087508751 -1.37648200620062
 1  16.57200464336434 -2.21478177027703  0.16356490259026
 1  15.02403545424542 -2.44478685428543 -1.05845326042604
 1  16.58232786218622 -1.53490901580158 -1.68441991149115
 1  16.03843904460446  1.20822865656566  0.76902344664466
 1  16.63888833603360 -0.25881505660566  1.38605136633663
 1  18.36286722542254 -0.50901744914491 -0.21990533093309
 1  17.81596866136614  0.99707702660266 -0.89326290209021
 1  18.27815860846085  2.40860501820182  1.05139314461446
 1  18.89597675797580  0.94609879087909  1.86680668096810
 1  20.49284419711971  0.35286143434343  0.38518558255826
 1  19.98031213781378  3.07970153205320 -1.24219781318132
 1  21.30106435853585  1.95611226402640 -1.16348771207121
 1  19.74785869026903  1.25737754855486 -1.61509847884788
 1  20.91895787098710  1.71013912301230  2.39647926512651
 1  22.06536824312431  2.52082331203120  0.84712967926793
 1  20.58505823572357  3.15142522582258  1.52523296379638

