%nproc=4
%Mem=2GB
# td=(NStates=1) CAM-B3LYP/6-31G(d,p) 

TD

0 1
<<<<<<< HEAD
12 -7.08648922192219  0.70563931203120  0.01456914431443
 6 -4.84480909890989 -1.95590676907691  0.43346987968797
 6 -4.80658058695870  2.79408785608561  1.30016638153815
 6 -9.44073880938094  3.05127062256226 -0.45852871257126
 6 -9.43924423812381 -1.67648315931593 -0.87378380748075
 7 -5.10631405600560  0.42243206130613  0.73552397069707
 6 -4.37189689578958 -0.70271009300930  0.77118514171417
 6 -2.94832383778378 -0.36181560726073  1.25426578077808
 6 -3.10721415981598  1.07412008030803  1.72052278297830
 6 -4.44241123602360  1.45259600840084  1.19962699259926
 6 -2.98514359645965  1.22270455855586  3.28149955885589
 6 -1.91789525052505 -0.51615687708771  0.17308126642664
 6 -0.41115853845385 -0.58036238343834  0.64354848414841
 6  0.59824096129613 -0.72582609550955 -0.52116749724972
 8  0.35428666876688 -1.07690309790979 -1.62465879757976
 8  1.78548035853585 -0.53555095149515 -0.09402619151915
 7 -7.11211165906591  2.61349693949395  0.28654735023502
 6 -6.12226150515052  3.30701167696770  0.92478601220122
 6 -6.42559981308131  4.75845013441344  0.82074276147615
 6 -7.67460016701670  4.81105173667367  0.29021741304130
 6 -8.21557582918292  3.46743593889389 -0.02298975267527
 6 -5.55193315001500  5.84174664056406  1.22234699519952
 6 -8.56673447104710  6.03188422212221  0.12720970637064
 6 -8.54870876217622  7.20944706330633  0.75524177397740
 7 -9.08304057665767  0.66794965606561 -0.64103813751375
 6 -9.84900115981598  1.72823277637764 -0.71792811691169
 6 -11.16617571417142  1.39848818791879 -1.12311403090309
 6 -11.20490289418942  0.00952631673167 -1.29207792179218
 6 -9.88596427712771 -0.38362033633363 -0.95042005810581
 6 -12.25508433213321  2.32793336433643 -1.37168394319432
 6 -12.36701124742474 -0.88648605870587 -1.71519232773277
 6 -12.49498698709871 -1.08256066726673 -3.18812393099310
 7 -7.15623509180918 -1.32935254885489 -0.24695937293729
 6 -8.22908314811481 -2.22701787388739 -0.55724067926793
 6 -7.77082322792279 -3.63705197269727 -0.52461973927393
 6 -6.45784966906691 -3.54366870387039 -0.18893062496250
 6 -6.11142373877388 -2.16510479177918  0.01961476567657
 6 -8.59749721712171 -4.78179102150215 -0.76325480388039
 6 -5.30098456875688 -4.37934181768177  0.21531440404040
 8 -5.19590842874287 -5.62747723112311  0.24361139183918
 6 -4.14134771417142 -3.27643343314331  0.64166403170317
 6 -3.64198482938294 -3.60043526482648  2.01120149304931
 8 -3.85244684528453 -3.03614035023502  3.01342402350235
 8 -2.83746494019402 -4.62541726412641  1.77689627052705
 6 -2.31753234113411 -5.13286751585158  2.97920285578558
 6  2.87939045074507 -0.70962875747575 -1.15926712711271
 6  4.22935502450245 -0.40374855115512 -0.52633278227823
 6  5.20402388678868  0.38117438283828 -1.06981675437544
 6  5.03763218621862  1.31587423672367 -2.23285745104510
 6  6.51530586338634  0.40189203940394 -0.32312879807981
 6  7.67461499939994 -0.25349569646965 -1.01901885238524
 6  8.90341221382138  0.05526039563956 -0.21462327512751
 6  10.23877450195019 -0.46911398309831 -1.02775374587459
 6  10.03098979917992 -1.95585652175218 -1.40079354435444
 6  11.38683156005601 -0.26069985078508 -0.06042517391739
 6  12.80178508620862 -0.45010906200620 -0.68912893579358
 6  13.98968843724372 -0.14542574537454  0.10491755925593
 6  15.36579270417042 -0.19848357745775 -0.51752999279928
 6  15.70705237413741 -1.60300793459346 -1.02335195289529
 6  16.42632673857386  0.40296465646565  0.41756626382638
 6  17.82842743214321  0.54240563896390 -0.23345916051605
 6  18.76891726122612  1.15247346434643  0.87754818781878
 6  20.21698036723672  1.32158249174917  0.35362012521252
 6  20.37332868666867  2.05930422762276 -1.08071906460646
 6  21.14716564736474  1.91406434273427  1.37945330873087
 1 -4.16502798729873  3.56040156155616  1.57929251615161
 1 -10.04294468716872  3.92999383438344 -0.74239963146315
 1 -10.26471976137614 -2.34797413821382 -1.18140479267927
 1 -2.56026248314831 -1.19636795069507  2.02683337453745
 1 -2.29265287048705  1.66578016061606  1.25487613801380
 1 -1.98976343384338  0.95122557545755  3.45468918241824
 1 -2.81965702570257  2.40867492499250  3.22831499689969
 1 -3.70702414511451  0.62931761576158  3.96420883368337
 1 -2.33525601050105 -1.43779373977398 -0.36290019921992
 1 -1.98887055955596  0.23885113551355 -0.71986202580258
 1 -0.24094761216122  0.33436805070507  0.89626002510251
 1 -0.08234603660366 -1.27818233343334  1.36702065726573
 1 -6.16015479087909  6.59142778687869  0.79538524772477
 1 -5.49910690009001  6.23227659075908  2.31442773987399
 1 -4.56591054705471  5.72051321772177  0.75516869246925
 1 -9.19083113561356  5.86769291739174 -0.74470469866987
 1 -9.18404962086209  8.06550728962896  0.54723434523452
 1 -7.76071553735374  7.17224362386239  1.49181756725673
 1 -11.95023912901290  3.24889521552155 -2.01475448014801
 1 -13.32356202540254  1.93229712091209 -1.97114830633063
 1 -12.55031676277628  2.90142879757976 -0.38061930593059
 1 -12.28163294169417 -1.82537198229823 -1.16905186008601
 1 -13.46599531843184 -0.38775551235123 -1.39924545204520
 1 -13.31195754835483 -1.73002768896890 -3.56927681218122
 1 -12.64327789198920  0.03597906030603 -3.71312480818082
 1 -11.30914719401940 -1.42009687678768 -3.70539915991599
 1 -9.17383698669867 -4.73736447934794 -1.76590985508551
 1 -8.04176354115411 -5.67469747394739 -0.84511412441244
 1 -9.49399928482848 -4.97804282558256  0.00762894029403
 1 -3.37262795869587 -3.59099234993499  0.08607333583358
 1 -1.59060722722272 -4.37010345004500  3.48992190749075
 1 -3.11892150075008 -5.17531914951495  3.89756259515952
 1 -1.70383849534954 -6.07502677587759  2.77509146204620
 1  2.90133943804380 -1.73278511441144 -1.52678664366437
 1  2.69087656525653 -0.14756047644765 -2.11039419161916
 1  4.13815472107211 -1.05642785798580  0.34852806880688
 1  4.02140110361036  1.42387109750975 -2.59316768646865
 1  5.66544195589559  2.24931519041904 -1.97319378757876
 1  5.57101440904090  1.03332443994399 -3.29637836883688
 1  6.53652571547155  1.46424042404240  0.00888353115312
 1  6.33277739713971  0.10262222482248  0.67380709740974
 1  7.35193257795780 -1.21348058325833 -1.22853417701770
 1  7.73986642254225  0.62159536763676 -1.65693861746175
 1  9.06223827542754  1.20965885088509  0.03113074527453
 1  8.87560604930493 -0.53280878707871  0.77255511921192
 1  10.45256280768077  0.07872040974097 -2.02277716721672
 1  9.29236422192219 -2.42795077157716 -2.09236516131613
 1  10.94547710341034 -2.39432621652165 -2.00688493239324
 1  9.90639352535254 -2.58546048804880 -0.52191163086309
 1  11.20672835373537  0.66872910311031  0.35801728922892
 1  11.31475452885289 -1.14253021432143  0.75121574317432
 1  12.91684500340034 -1.57325548674867 -0.89816748434843
 1  12.96310006250625 -0.02198150715071 -1.73078643994399
 1  13.97809924662466  0.89216177217722  0.46345368836884
 1  13.94486723982398 -0.90173977867787  0.86076259275928
 1  15.25591888038804  0.32958244324432 -1.53440779877988
 1  15.78973641654165 -2.16666695879588 -0.20466192009201
 1  15.08882193289329 -2.12731510711071 -1.66086350145014
 1  16.57064669406941 -1.67804332923292 -1.62223369286929
 1  16.09790499119912  1.42096993069307  0.51493803810381
 1  16.57749219641964 -0.26575575067507  1.26817957915792
 1  18.39151008970897 -0.48738528592859 -0.38313165356536
 1  17.72201926642665  1.25679299819982 -0.96255983178318
 1  18.44288508110811  2.28274243194319  1.11986999229923
 1  18.66671383168317  0.66448062906291  1.82231223152315
 1  20.59208412111211  0.35227137533753 -0.00900383638364
 1  19.90227433403340  3.18530209210921 -1.03632722612261
 1  21.29870412251225  1.94637128992899 -1.48677004030403
 1  19.58978288268827  1.68198000880088 -1.71910887988799
 1  21.19850582578258  1.53832194129413  2.41019063626363
 1  22.18345005130513  1.78219944964496  1.02044701100110
 1  20.92780251015101  3.01431151445145  1.65190563106311
=======
12 -7.19927050005000  0.61810055815582  0.00431811921192
 6 -4.85378999699970 -1.97381856025603  0.61789832253225
 6 -4.81129105800580  2.76306475377538  1.20653701860186
 6 -9.48477321282128  3.10086558205821 -0.41601446114611
 6 -9.52305261896190 -1.79293480448045 -0.90370679977998
 7 -5.15277870247025  0.45922574067407  0.62844326262626
 6 -4.41113081918192 -0.63753357535754  0.79268729192919
 6 -2.97815682108211 -0.33718314401440  1.16202655685569
 6 -3.02732617101710  1.14923759205921  1.71446217691769
 6 -4.45947294219422  1.48855960476048  1.13523055295530
 6 -2.99104418651865  1.26885917401740  3.23094450335034
 6 -1.95447890889089 -0.61470673207321  0.09625358365837
 6 -0.45788321092109 -0.49354370157016  0.52910704000400
 6  0.47099823702370 -0.65394890779078 -0.65769114961496
 8  0.12637387748775 -0.98330373797380 -1.74958128982898
 8  1.71962377287729 -0.42991038743874 -0.20144693359336
 7 -7.13788423632363  2.62463805360536  0.37626632213221
 6 -6.11518079707971  3.38359933573357  0.80160369396940
 6 -6.43570082318232  4.77066135553555  0.85316600380038
 6 -7.79007171417142  4.86658729022902  0.40142853415342
 6 -8.18005227682768  3.45699489478948  0.11998454475448
 6 -5.47738569526953  5.87012947884789  1.06472123262326
 6 -8.56075387298730  6.02683371707171  0.17624460986099
 6 -8.53373726502650  7.14502062066207  0.88969521932193
 7 -9.15483775637564  0.69308216931693 -0.59848388208821
 6 -9.98572483218322  1.88829878297830 -0.68380470457046
 6 -11.25911500810081  1.53185152425243 -1.06195791529153
 6 -11.22972537643764  0.15058042214221 -1.39088780278028
 6 -9.95344102480248 -0.35615759005901 -0.96322133823382
 6 -12.24623344704470  2.44596516751675 -1.49634640944094
 6 -12.30206475277528 -0.79953736383638 -1.77759856835684
 6 -12.17626511491149 -1.22582499369937 -3.29114423302330
 7 -7.26651611991199 -1.43195280888089 -0.25355003200320
 6 -8.27021726152615 -2.31890706280628 -0.48320327552755
 6 -7.86813295889589 -3.65361362886289 -0.41111838913891
 6 -6.56029991409141 -3.54002833983398 -0.02588432033203
 6 -6.15850844724472 -2.19506778807881  0.17872067626763
 6 -8.69263673107311 -4.86367921032103 -0.76915539393939
 6 -5.38915338563856 -4.41066494999500  0.18352122472247
 8 -5.18771760966097 -5.54688917231723  0.08979601030103
 6 -4.14784836423642 -3.32909869966997  0.65702556785679
 6 -3.52833346424642 -3.71896711801180  1.96723709660966
 8 -3.66227782838284 -3.10165690189019  3.01118379947995
 8 -2.77615880958096 -4.84381910431043  1.82458103900390
 6 -2.20700128802880 -5.35279950905090  3.05191012651265
 6  2.73637614931493 -0.56651444604460 -1.23193439383938
 6  4.15947803680368 -0.42319049534953 -0.61468161716172
 6  5.13172665706571  0.39555582098210 -0.96655642834283
 6  5.16614503750375  1.22894554385439 -2.17009117441744
 6  6.42281661446145  0.39342119231923 -0.28846533173317
 6  7.64748228612861 -0.20227057395740 -1.04854180468047
 6  8.97106897949795 -0.05053018341834 -0.19601141394139
 6  10.33790441494149 -0.45486255795580 -0.88634960546055
 6  10.22472917311731 -1.96873780988099 -1.12089555455546
 6  11.52338521542154 -0.08619240004000 -0.04586371777178
 6  12.94544945264526 -0.38034208530853 -0.67849787268727
 6  13.99755922432243 -0.08458966176618  0.25187225472547
 6  15.41969809470947 -0.24522825192519 -0.33163140294029
 6  15.74594626352635 -1.70876851065107 -0.77091670937094
 6  16.50017412331233  0.50934529452945  0.42839734693469
 6  17.78563315271527  0.65572697109711 -0.33125894049405
 6  18.85009537903790  1.31221943894389  0.71140157315732
 6  20.29517818701870  1.25565589908991  0.20311507470747
 6  20.46192754655466  1.95016331353135 -1.16187718041804
 6  21.31073200400040  1.75906884318432  1.24449981338134
 1 -4.26982846734674  3.59552507390739  1.54667925482548
 1 -10.10341073377338  3.88660949594959 -0.52409780128013
 1 -10.16273956335634 -2.67458679947995 -1.28520517271727
 1 -2.50891734863486 -1.06114442834283  1.92744343554355
 1 -2.19521312651265  1.61770535313531  1.19721037143714
 1 -2.09068352585258  0.69385983888389  3.59647336083608
 1 -3.33734879487949  2.42178623612361  3.51579374477448
 1 -3.85059850255026  0.52571725572557  3.56684909770977
 1 -2.10075256015602 -1.68785874627463 -0.37211112031203
 1 -2.21655332783278 -0.01580433003300 -0.90380041964196
 1 -0.24949846724673  0.57435204910491  1.05515591469147
 1 -0.36354415641564 -1.24645916111611  1.34396835203520
 1 -5.83087186258626  6.87958660276028  0.69716542574257
 1 -5.49819680908091  6.03035639873987  2.07182347944795
 1 -4.51817577357736  5.54482564896490  0.77757093269327
 1 -9.46439849234924  6.04058020612061 -0.80515074327433
 1 -8.95672688858886  8.22762350125012  0.69962958475848
 1 -7.73451291709171  7.21315771527153  1.65719410491049
 1 -11.99802390749075  3.18652897889789 -2.31914491919192
 1 -13.25452512171217  2.12800669186919 -1.74888608010801
 1 -12.21430316141614  3.19103775847585 -0.60038128212821
 1 -12.41119589798980 -1.69177862296230 -1.14430938583858
 1 -13.23464218311831 -0.32501923872387 -1.62003753125313
 1 -13.24148050065006 -1.86844153035304 -3.58979886438644
 1 -12.30390395459546 -0.29535407300730 -3.90805430113011
 1 -11.25955223452345 -1.77573244034403 -3.53758237823782
 1 -9.00608021102110 -4.95779652255226 -1.76190945504551
 1 -8.26975634043404 -5.93677368156816 -0.56590620362036
 1 -9.44784466936694 -4.95830085138514 -0.16464828742874
 1 -3.45409610551055 -3.44727797849785 -0.19462473397340
 1 -1.60549871637164 -4.67394383408341  3.35041795709571
 1 -2.89509911851185 -5.50922253985399  3.99962280118012
 1 -1.68938705020502 -6.16726599979998  2.63515746864686
 1  2.46865616971697 -1.68343017891789 -1.64577854285429
 1  2.52143962156216  0.18336261586159 -1.95205835803580
 1  4.24396530213021 -1.10792300750075  0.22166538253825
 1  4.15219418291829  1.40713942434243 -2.62988135783578
 1  5.40198561026103  2.33825408430843 -2.11352782098210
 1  5.74845215281528  0.81042214971497 -2.96326505750575
 1  6.63030509340934  1.38012201220122  0.12695533833383
 1  6.29616373577358 -0.31733977137714  0.53736345304530
 1  7.35287267196720 -1.17369660486049 -1.18434975857586
 1  7.82378481438144  0.26149935803580 -1.92424534813481
 1  9.04219627122712  1.08947683268327 -0.06963933173317
 1  8.82024051275128 -0.34048955515552  0.78737660136014
 1  10.20928848024802  0.00546308400840 -1.91296618611861
 1  9.36897188268827 -2.25210318681868 -1.66594251905191
 1  11.01807436313631 -2.30687747164716 -2.06369061296130
 1  10.30934382038204 -2.50810275227523 -0.27952739243924
 1  11.26480416131613  0.96952918311831  0.10578206570657
 1  11.30127318071807 -0.39146510781078  0.92280290189019
 1  13.03572689158916 -1.52068022922292 -1.01561922952295
 1  13.04250800330033  0.21091178217822 -1.65696905820582
 1  13.81734317101710  0.93167572357236  0.52732007500750
 1  14.12706545964597 -0.58643824852485  1.28064458095810
 1  15.45742903140314  0.33592307730773 -1.25326968496850
 1  15.67959540244024 -2.43848414051405  0.03991253735374
 1  14.97164021472147 -2.15529790539054 -1.37112452755276
 1  16.61377100650065 -1.75238076297630 -1.03600507000700
 1  15.97729292999300  1.38999683338334  0.80453699799980
 1  16.78360280748075 -0.18788796389639  1.39389215041504
 1  18.30502144084408 -0.18980552795280 -0.74876821722172
 1  17.55785284978498  1.19475679457946 -0.98860243604360
 1  18.58694948754875  2.31691584928493  0.79116712201220
 1  18.73306046634664  0.76454063506351  1.57229723002300
 1  20.61274618731873  0.10430657885789  0.10741780578058
 1  20.22495660226022  3.13317687958796 -1.08761235463546
 1  21.48825307740774  1.91320797359736 -1.49548091139114
 1  19.61096500090009  1.50594240504050 -1.90281725072507
 1  21.38556453165317  1.38267637673767  2.27229684688469
 1  22.20269197549755  1.48351958165817  0.80919588588859
 1  21.13436316621662  2.88108819211921  1.33674411491149
>>>>>>> 8e03b5b5abfc0030b3aa597dc0de36371bfbd096

