%nproc=4
%Mem=2GB
# td=(NStates=1) CAM-B3LYP/6-31G(d,p) 

TD

0 1
12 -7.11157173017302  0.59055780388039  0.10451813921392
 6 -4.94518913691369 -1.90319149754976  0.46734326702670
 6 -4.85269519841984  2.88306675397540  1.17812417731773
 6 -9.45731046654665  3.10001549704970 -0.40290315001500
 6 -9.63949426312631 -1.78773428442844 -0.80461689078908
 7 -5.12155558015802  0.44429424752475  0.71788220652065
 6 -4.34764447054705 -0.70472029402940  0.69944796799680
 6 -2.97040604600460 -0.39811923762376  1.19895024922492
 6 -3.06568000640064  1.11958462676268  1.68393912461246
 6 -4.43580057495750  1.50796154495450  1.18625565546555
 6 -2.98886396849685  1.27007929602960  3.25369677857786
 6 -1.90997445844584 -0.56930219161916  0.10886484478448
 6 -0.55343276587659 -0.36010035723572  0.55826995629563
 6  0.47152829002900 -0.66106961986199 -0.66922230273027
 8  0.16078731883188 -1.00154556215622 -1.77134346604660
 8  1.75970778127813 -0.34844224062406 -0.22607939683968
 7 -7.10152059996000  2.60951654145415  0.28487718321832
 6 -6.01116039503950  3.27672864866487  0.76615014861486
 6 -6.43740099319932  4.73413770317032  0.70923161036104
 6 -7.69340204720472  4.89239987148715  0.32437082838284
 6 -8.08816308790879  3.47297649294929 -0.02829028272827
 6 -5.51147910461046  5.91130359625963  1.05002976347635
 6 -8.63295109270927  6.00637167086709  0.18058504390439
 6 -8.56272016331633  7.15381149974997  0.78144439423942
 7 -9.16584885748575  0.63036589768977 -0.40347438113811
 6 -9.93830008970897  1.65836578967897 -0.71172749684968
 6 -11.23001209780978  1.45932427152715 -0.98275999549955
 6 -11.19579198309831  0.09989535363536 -1.29864857885789
 6 -9.94079976067607 -0.48086006030603 -0.83353836993699
 6 -12.31965078877888  2.44650522152215 -1.29422619741974
 6 -12.26977152345235 -0.77217462756276 -1.89579038753875
 6 -12.07711519991999 -1.14999741094109 -3.24678979757976
 7 -7.28501797009701 -1.43044265786579 -0.25202987998800
 6 -8.33260350015002 -2.30480565266527 -0.57229218441844
 6 -7.87738388398840 -3.63942220972097 -0.47495477277728
 6 -6.46699058315832 -3.57886222322232 -0.10405213711371
 6 -6.14266686308631 -2.16803508480848  0.03933673787379
 6 -8.64181164856486 -4.95817866026603 -0.69626810521052
 6 -5.32967743804380 -4.38281216471647  0.28761163376338
 8 -5.17156599449945 -5.63913839723972  0.29964699539954
 6 -4.27533111251125 -3.26838262806281  0.50780064536454
 6 -3.58889952085209 -3.55458067936794  1.97087746064606
 8 -3.77811941254125 -3.06096283248325  2.96869955105511
 8 -2.60409160286029 -4.51230595299530  1.75617419831983
 6 -2.18127871577158 -5.15587981708171  3.00908584408441
 6  2.79882239393939 -0.61428922352235 -1.24192539293929
 6  4.11819390839084 -0.49393757005701 -0.54151430043004
 6  5.16953043744374  0.36469273467347 -0.93467324002400
 6  5.21026944994499  1.34727737703770 -2.11005517081708
 6  6.45433976677668  0.36256810701070 -0.06334281948195
 6  7.71767930583058 -0.10241058795880 -0.98712566306631
 6  9.07538941154115 -0.15552068246825 -0.18962077487749
 6  10.25856648114812 -0.41520859255926 -0.95227619811981
 6  10.23036973717372 -1.85408634473447 -1.59405287028703
 6  11.45966884378438 -0.14478825962596 -0.09326845824582
 6  12.84298920662066 -0.41829588068807 -0.72418244114411
 6  13.95350481888189 -0.14789599239924  0.10362743024302
 6  15.37159328422842 -0.16818054715472 -0.42865110491049
 6  15.67333900280028 -1.67125475927593 -0.86499611731173
 6  16.41103520942094  0.35867022702270  0.42024653185319
 6  17.87000158955895  0.36495789418942 -0.20307612221222
 6  18.81343171267127  1.01086930393039  0.84127456045605
 6  20.22130079927993  1.29403973747375  0.22887765096510
 6  20.27017837163717  2.22351064826483 -0.99940093279328
 6  21.24521545234524  1.78395133143314  1.37369273267327
 1 -4.22624410891089  3.58010353175318  1.61651623852385
 1 -10.13942433513351  3.85603643864386 -0.38084347584758
 1 -10.26036932633263 -2.36572591339134 -1.19940659285929
 1 -2.48778523542354 -1.08612692659266  1.98303899509951
 1 -2.29265287048705  1.73141672427243  1.08414906530653
 1 -2.12526698419842  0.78638909180918  3.64504821832183
 1 -3.20954601460146  2.28333239073907  3.62453461886189
 1 -3.70463390609061  0.66270095409541  3.84997741054105
 1 -1.90053253815381 -1.53185314571457 -0.37301121032103
 1 -2.36591826432643  0.03584083448345 -0.68880892049205
 1 -0.43880739813981  0.61970658455846  0.98733913301330
 1 -0.35336313831383 -1.08044255945595  1.49339329452945
 1 -5.76814558995900  6.89250789488949  0.62907861706171
 1 -5.58448543794379  6.29895325842584  2.11546784388439
 1 -4.53329728572857  5.78121928832883  0.91396457205721
 1 -9.42463451595160  5.73406955505550 -0.67430765896590
 1 -9.33831504740474  7.86041678057806  0.53313293509351
 1 -7.73860332613261  7.42223862336234  1.45050343584358
 1 -12.33538764386439  2.86361668766877 -2.42875588028803
 1 -13.28384805400540  1.77820171137114 -0.95662685418542
 1 -12.05793752485249  3.43636229092909 -0.67830907490749
 1 -12.52805758415842 -1.60232967806781 -1.10761571647165
 1 -13.08294701360136 -0.08988572537254 -1.83820934843484
 1 -13.01486783938394 -1.93731841804180 -3.54183406790679
 1 -12.05748931313132 -0.29644418201820 -3.79271276697670
 1 -11.35205148444845 -1.89236410351035 -3.44369298929893
 1 -9.09092869586959 -4.95677642054205 -1.68027129122912
 1 -8.00610997579758 -5.78912891709171 -0.32534214721472
 1 -9.68048793369337 -4.93889891119112 -0.03651547414741
 1 -3.32709340524052 -3.63087633833383 -0.02444771627163
 1 -1.90544871137114 -4.50571701140114  3.86331924722472
 1 -3.21454106270627 -5.56202782038204  3.43307614651465
 1 -1.54691280278028 -6.14804407760776  2.78813276617662
 1  2.84437374147415 -1.64732656855686 -1.55425939093909
 1  2.73819129672967 -0.02117783818382 -2.14481763396340
 1  4.38317922352235 -1.14452666786679  0.37893110911091
 1  4.13791275477548  1.36158486888689 -2.62160052975298
 1  5.67799321102110  2.24046430533053 -1.81344781298130
 1  5.69095640324032  0.74591569906991 -2.98664739573957
 1  6.66571863476348  1.26124012401240  0.33290593339334
 1  6.34943906330633 -0.38435647304730  0.65891560826083
 1  7.52729011371137 -0.84696393159316 -1.59824114771477
 1  7.74019645554555  0.70982419051905 -1.68182110571057
 1  9.05969802140214  0.82328021302130  0.22674030623062
 1  8.92811129982998 -0.84643014921492  0.61689955365537
 1  10.16804435583558  0.37227976567657 -1.81994688418842
 1  9.32002698819882 -1.91526950345035 -2.08824474927493
 1  11.02721527722772 -2.08020480438044 -2.41936618051805
 1  10.63834672067207 -2.65251719371937 -0.90938037773777
 1  11.37935561646165  0.85224745494549  0.24939642714271
 1  11.44935798919892 -0.66692265356536  0.75732635423542
 1  12.79003232213221 -1.34126228742874 -0.90892856045605
 1  13.07499125162516  0.11472216321632 -1.65157851915192
 1  13.69200063676368  0.96461901790179  0.41822916591659
 1  13.85642839593960 -0.58475808050805  1.18617513401340
 1  15.15434872337234  0.38002748774877 -1.47384174217422
 1  15.73123056595660 -2.23167345944594 -0.05656711061106
 1  14.87715076577658 -1.95866824242424 -1.41122853795380
 1  16.40913054245425 -2.01389691459146 -1.57602907240724
 1  16.31285648634864  1.48143597729773  0.68617516181618
 1  16.45483993119312 -0.05194436953695  1.37475023622362
 1  18.20269120782078 -0.63380992839284 -0.63139648004800
 1  17.66938400290029  0.92842016091609 -0.97765134093409
 1  18.45697649024903  1.91983614131413  1.12294029932993
 1  18.87984514481448  0.31621580258026  1.64727472777278
 1  20.63951886458646  0.17499364756476 -0.10499343534353
 1  19.98178228482848  3.25197875977598 -0.74131772517252
 1  21.33506775887589  2.35141179397940 -1.20529189248925
 1  19.59409331373137  1.72079389018902 -1.82230919991999
 1  20.91182715791579  1.37482559165917  2.42167178437844
 1  22.31840354665466  1.51022225192519  0.97973293959396
 1  21.15983571347135  2.81951203450345  1.41875231573157

