%nproc=4
%Mem=2GB
# td=(NStates=1) CAM-B3LYP/6-31G(d,p) 

TD

0 1
12 -7.12689326232623  0.60779952805281  0.14422210961096
 6 -4.84727934593459 -1.92096327472747  0.52184871757176
 6 -4.78604853375338  2.89250769806981  1.10020638553855
 6 -9.32502723822382  3.13850934643464 -0.44206706640664
 6 -9.53070338403840 -1.77463297429743 -0.72064849394940
 7 -5.16325975057506  0.52425224332433  0.75688610691069
 6 -4.42719242534253 -0.73063288528853  0.86408443164316
 6 -2.92814181958196 -0.35166459215922  1.32898325252525
 6 -2.99962340074007  1.11400406870687  1.74204493519352
 6 -4.35897289218922  1.55962671147115  1.11164819471947
 6 -2.96836191829183  1.34312660076008  3.25599700860086
 6 -1.91843530453045 -0.57722298369837  0.25118907720772
 6 -0.44747216981698 -0.62180652785279  0.67261139043904
 6  0.46004714191419 -0.79869338223822 -0.50129551005101
 8  0.16457769786979 -1.20516592419242 -1.58882521422142
 8  1.75338714921492 -0.50560795719572 -0.15672246114611
 7 -7.05387583548355  2.60890648044804  0.32199089458946
 6 -6.07755703470347  3.40886186198620  0.76012954655466
 6 -6.28874612771277  4.80046433583358  0.71734242144214
 6 -7.62605531253125  4.86454708620862  0.31272966426643
 6 -8.10321459305931  3.43080227552755  0.08675122142214
 6 -5.39344730143014  5.93590605650565  1.12787754825483
 6 -8.55768356595659  6.01399243294329  0.05674265966597
 6 -8.47132102340234  7.14289040764076  0.77054330413041
 7 -9.10552282488249  0.62805566666667 -0.52548658235824
 6 -9.78243450315031  1.79419937303730 -0.67500382448245
 6 -11.10635973257326  1.52569090819082 -1.17272899239924
 6 -11.26728913281328  0.15556092019202 -1.38975768976898
 6 -9.92233791449145 -0.38261023532353 -0.95803081918192
 6 -12.10334915861586  2.56185675667567 -1.53451022582258
 6 -12.41331587788779 -0.65937334743474 -1.77697850635064
 6 -12.37812530093009 -1.10022243344334 -3.17803292189219
 7 -7.25045451375138 -1.36128574217422 -0.09851452845285
 6 -8.31075131493149 -2.22517768986899 -0.44885984118412
 6 -7.82908905450545 -3.62040030753075 -0.44410168746875
 6 -6.46801068516852 -3.52771710871087 -0.11347307920792
 6 -6.21003359975998 -2.18908719001900  0.19486229042904
 6 -8.67347481488149 -4.83793663606361 -0.80468894729473
 6 -5.36311078137814 -4.39402328582858  0.18829170177018
 8 -5.26594543244324 -5.56124060746075  0.23601063176318
 6 -4.19628320772077 -3.32406819661966  0.54762462776278
 6 -3.47907853875388 -3.75583080438044  1.77344771767177
 8 -3.55855745634563 -3.17846458265827  2.92444512561256
 8 -2.58142933663366 -4.77738246064606  1.66517509840984
 6 -2.01277186508651 -5.30673490259026  2.82029696519652
 6  2.72771528322832 -0.71728952355236 -1.18435963636364
 6  4.02822491149115 -0.51773995029503 -0.60040018901890
 6  5.02424590899090  0.28034429982998 -0.99990976367637
 6  4.91178960196020  1.02677532683268 -2.34734890019002
 6  6.32804713751375  0.43466531673167 -0.33115960116012
 6  7.57972551045104 -0.20732107900790 -1.13174012451245
 6  8.84396626922692 -0.20754588498850 -0.22312412521252
 6  10.09962058655866 -0.62861993369337 -1.05875684618462
 6  10.17763446364636 -2.12146308240824 -1.35045851085108
 6  11.40546342324232 -0.22935671647165 -0.18855798719872
 6  12.77528243594359 -0.43249730083008 -0.83461348424842
 6  13.85153462186219 -0.09584078687869  0.15743281078108
 6  15.33852997789779 -0.09198292739274 -0.46028426822682
 6  15.61909357825783 -1.50820845464546 -0.90333995169517
 6  16.38325243114311  0.40925528552855  0.47978248544854
 6  17.90665525492549  0.59831122952295 -0.10820663526353
 6  18.87645801530153  1.36967518451845  0.81171160416042
 6  20.28611728092809  1.36417675117512  0.39326408960896
 6  20.41982333613361  2.07674597179718 -1.02069306200620
 6  21.10202113291329  2.11339427572757  1.42037740114011
 1 -4.06178766326633  3.43993951535154  1.66680126702670
 1 -10.20860125282528  3.78791962696270 -0.44681007250725
 1 -10.21738502790279 -2.46045538633863 -1.03015966816682
 1 -2.65726218311831 -0.92723103700370  2.14350504170417
 1 -2.23825743094309  1.81657524012401  1.27734838523852
 1 -2.08838329582958  0.95165561846185  3.87066077957796
 1 -3.17529258925893  2.36565062256226  3.40451261666167
 1 -3.85369881258126  0.76974165816582  3.65496790959096
 1 -2.06315880078008 -1.53451341174117 -0.34504841404140
 1 -2.02543421592159  0.27031428182818 -0.53043308290829
 1 -0.00740425782578  0.42050666456646  1.25224562366237
 1 -0.30823862586259 -1.30178469366937  1.45532948814881
 1 -5.34593336873687  6.77726637073707  0.31442715191519
 1 -5.27474446384638  6.27785114821482  2.17734403150315
 1 -4.36448040404040  5.55601676807681  0.98203137873787
 1 -9.19745179767977  6.04569071717172 -0.69738996719672
 1 -9.21907312321232  7.85176591549155  0.50015963776378
 1 -7.78509797559756  7.27022342184218  1.64551293679368
 1 -11.80286439153915  3.20027035303530 -2.28438144284428
 1 -13.28806847604760  2.29703359455946 -1.74984617611761
 1 -12.20380211131113  3.20718937363736 -0.61414265826583
 1 -12.57128190659066 -1.64620406550655 -0.97791274617462
 1 -13.29472819171917 -0.06622335913591 -1.51918744624463
 1 -13.00145649824982 -1.81559624582458 -3.67266715121512
 1 -12.39565312951295 -0.16975151275128 -3.82322581828183
 1 -11.46055233453345 -1.37963283038304 -3.62078069806981
 1 -8.93868347134713 -4.61897264016402 -1.82158542264226
 1 -8.08458782358236 -5.81538154235424 -0.75353496649665
 1 -9.50784066896690 -4.88580360166017 -0.05391721432143
 1 -3.59040973687369 -3.50053330403040 -0.39781505300530
 1 -1.39011717821782 -4.62491893159316  3.34267718301830
 1 -2.76387599619962 -5.58942055965597  3.56955979487949
 1 -1.35622373387339 -6.09997927112711  2.38262221512151
 1  2.67591689578958 -1.67707954385439 -1.69921388638864
 1  2.59618709630963  0.08305258485849 -2.15926907910791
 1  4.08548945454545 -1.10830304550455  0.51758497449745
 1  3.77510647414741  1.20321903230323 -2.65560393009301
 1  5.29263467516752  1.99918017691769 -1.94539100730073
 1  5.37450475807581  0.70963207070707 -3.22051078207821
 1  6.57758982188219  1.38015201520152  0.11943458625863
 1  6.05036915631563 -0.15908394579458  0.51189090579058
 1  7.31486887158716 -1.24389362456246 -1.41069239283928
 1  7.74387682358236  0.37489069716972 -1.96356928052805
 1  8.92508456005601  1.02551043604360 -0.01421378917892
 1  8.60185867456746 -0.78762426862686  0.75997386108611
 1  10.13377092849285 -0.07569503180318 -2.03739862936294
 1  9.38929391489149 -2.42630060656066 -2.14223014781478
 1  11.00372292799280 -2.52742952685269 -1.97980222412241
 1  9.99148203420342 -2.84331627362736 -0.64259369906991
 1  11.25707338823882  0.83224545474547  0.26323781128113
 1  11.14902795619562 -0.70040600190019  0.68031865346535
 1  12.95109842874287 -1.37046520772077 -1.06578424602460
 1  12.71837559005900  0.19205989698970 -1.78808216951695
 1  13.89425086178618  1.04472702870287  0.41663900690069
 1  13.77509026212621 -0.64929453415342  1.11166768326833
 1  15.15987927642764  0.56571605660566 -1.39049340734073
 1  15.62590003290329 -2.20838113021302  0.02835138123812
 1  14.99038208890889 -1.90852322792279 -1.72876029112911
 1  16.78346797619762 -1.56607213211321 -1.22977444694469
 1  15.99864506520652  1.47079491319132  1.03795033933393
 1  16.37097154435443 -0.17067624272427  1.40286304750475
 1  18.17819875857586 -0.41111765916592 -0.23606694709471
 1  17.89206627112711  1.02861017991799 -1.22965654145415
 1  18.45272606520652  2.56589074677468  0.81593959925993
 1  18.67807496779678  1.02836701770177  1.86126612691269
 1  20.58941385408541  0.40525667386739  0.48782584658466
 1  20.29919402600260  3.33393695559556 -0.81807540094009
 1  21.46847109920992  1.99214586738674 -1.39560092339234
 1  19.67136104050405  1.63389520032003 -1.71064803380338
 1  20.85459143434343  1.53177128622862  2.37170678787879
 1  22.08007971427143  1.93037426712671  1.20341530783078
 1  20.92498222812281  3.13747383068307  1.54691513201320

