%nproc=4
%Mem=2GB
# td=(NStates=1) CAM-B3LYP/6-31G(d,p) 

TD

0 1
<<<<<<< HEAD
12 -7.07846841984198  0.65062381048105  0.16175386278628
 6 -4.77398201620162 -1.99044022242224  0.46876340904090
 6 -4.82309223812381  2.80217866516652  1.29780614551455
 6 -9.32282701820182  3.09348484398440 -0.30693355305531
 6 -9.49826013971397 -1.68921443244324 -0.92745917501750
 7 -5.07423084768477  0.39865968406841  0.86532695099510
 6 -4.28884859095910 -0.77592741474147  0.90273829702970
 6 -2.85916492189219 -0.43347277297730  1.30657101130113
 6 -3.01619505790579  1.07089975827583  1.80048077877788
 6 -4.37086408130813  1.56484723352335  1.24318134803480
 6 -3.07921300340034  1.11286357445745  3.30078148704871
 6 -1.94129759075908 -0.58356361776178  0.03405736403640
 6 -0.42313973657366 -0.36878122532253  0.52395652495250
 6  0.48467960516052 -0.68069158205821 -0.68946432693269
 8  0.22672391249125 -1.11824723232323 -1.74878120982098
 8  1.76169798029803 -0.49287668406841 -0.27812460136014
 7 -7.11582203010301  2.67222281208121  0.41029972547255
 6 -6.01965124412441  3.29066004180418  0.95818935253525
 6 -6.31939919301930  4.77229151855185  0.84915560276028
 6 -7.66004871187119  4.83312394389439  0.41383977527753
 6 -8.04484875647565  3.49348854415442  0.08667121342134
 6 -5.45877383408341  5.85991845774578  1.15885064556456
 6 -8.39074687228723  5.96888792249225  0.06171315671567
 6 -8.31411530283028  7.23107922652265  0.58684493429343
 7 -9.02291456405641  0.69509237033703 -0.60824485818582
 6 -9.76410266996700  1.87654760786079 -0.58696502060206
 6 -11.14988408500850  1.52433077217722 -1.08840055955596
 6 -11.16492889678968  0.22767813191319 -1.31007972197220
 6 -9.88337401810181 -0.33930590489049 -1.02265728182818
 6 -12.16022484618462  2.57464803580358 -1.36659343414341
 6 -12.34143869016902 -0.64080149024902 -1.75414622312231
 6 -12.12137962636264 -1.28010042124212 -3.17174229282928
 7 -7.20268973727373 -1.38621823542354 -0.14036871387139
 6 -8.29498973877388 -2.21499667176718 -0.52751770697070
 6 -7.82444859045905 -3.59800806830683 -0.55649292659266
 6 -6.48191207530753 -3.51245558255826 -0.15080681258126
 6 -6.12717531393139 -2.17343562486249  0.03115591979198
 6 -8.74553202060206 -4.82606544894489 -0.84775325372537
 6 -5.34314878517852 -4.35610949444944  0.11947482008201
 8 -5.24356319421942 -5.49665414881488  0.30217724842484
 6 -4.26412999239924 -3.39537532733273  0.62328219351935
 6 -3.57923855475548 -3.68440366166617  1.96860723362336
 8 -3.97706930753075 -3.18498523472347  3.07775045614561
 8 -2.58939013271327 -4.55887060946095  1.77846642754275
 6 -2.15503609150915 -5.18206243534353  3.02390732623262
 6  2.76057856955696 -0.69428722332233 -1.34477567796780
 6  4.17900998999900 -0.51397957425743 -0.73107325632563
 6  5.11224470887089  0.28013427882788 -1.19066883958396
 6  5.07635605860586  0.99770241954195 -2.47348151345135
 6  6.41861619441944  0.36909876007601 -0.39265575077508
 6  7.57799533743374 -0.34429477637764 -1.25214216471647
 6  8.90432230483048 -0.16236136653665 -0.43902571537154
 6  10.18037866236624 -0.73783085478548 -0.99950092059206
 6  10.21479818001800 -2.22057299339934 -1.31876534153415
 6  11.36850972787279 -0.42829661046105 -0.08610774217422
 6  12.75582048974897 -0.47670172127213 -0.86952697559756
 6  13.86346581498150 -0.13754495729573  0.12007907540754
 6  15.30376650155016 -0.26669039813981 -0.46774501430143
 6  15.64153582248225 -1.80031766556656 -0.71095071277128
 6  16.27432153805380  0.46934129412941  0.38546305350535
 6  17.81701629102910  0.57150854925493 -0.05076089068907
 6  18.68229859935994  1.52545076207621  0.87260769376938
 6  20.05605427462746  1.64891522502250  0.34789955315532
 6  20.23741509530953  2.42687098429843 -0.85629662236224
 6  20.99960089088909  2.14706764306431  1.41485684908491
 1 -3.87404888938894  3.60681620302030  1.39795438233823
 1 -10.04738513121312  3.93798463346335 -0.21898729022902
 1 -10.12206549594960 -2.61534087488749 -1.29658631083108
 1 -2.50179663656366 -1.10292860676068  2.15333602480248
 1 -2.07898150335033  1.69044262686269  1.68918956935694
 1 -2.02286674417442  1.18348880178018  3.83286700020002
 1 -3.51554661466147  1.97854191169117  3.70011217661766
 1 -3.76013945664566  0.34335901990199  3.62810522332233
 1 -2.01639412431243 -1.67554751515151 -0.28920282948295
 1 -2.34295596809681  0.08981623202320 -0.74920496009601
 1 -0.23528704610461  0.79219383328333  0.48758915801580
 1 -0.17680548254826 -0.89931444664466  1.47916187138714
 1 -5.93606238163816  6.76868551265127  0.49234494369437
 1 -5.41070806020602  6.13536689978998  2.10567686478648
 1 -4.64506846284629  5.44800596699670  0.77565074067407
 1 -9.15583763626363  5.92171831993199 -0.63853408160816
 1 -9.09001021692169  8.06712745164516  0.34275389718972
 1 -7.66393585938594  7.38300469997000  1.47392577807781
 1 -12.15566967206721  2.99584991099110 -2.42704570927093
 1 -13.17621729092909  2.09261315251525 -1.14236542804280
 1 -11.99861159225923  3.52061071577158 -0.60378162216222
 1 -12.39963474187419 -1.39827927302730 -0.86696165106511
 1 -13.35512423132313 -0.14692142894289 -1.75334086158616
 1 -13.01447780038004 -1.95814050025002 -3.22230211471147
 1 -11.86714027822782 -0.42645718331833 -3.92531602730273
 1 -11.22475875517552 -2.07790265736574 -3.14711333133313
 1 -9.48685828882888 -4.63756449934993 -1.64163742784278
 1 -7.84978434323432 -5.76917692189219 -1.09721933493349
 1 -9.51486137103710 -5.29458447974798 -0.05237706030603
 1 -3.36762745864586 -3.42848609930993 -0.03872914441444
 1 -1.44119228572857 -4.35783222292229  3.42584549984999
 1 -3.17324693329333 -5.61023264086409  3.65858869776978
 1 -1.57220533203320 -5.95121439463946  2.68764271717172
 1  2.63934323842384 -1.68587042294229 -1.58638260326033
 1  2.73036051365137  0.07053133273327 -2.15614876707671
 1  4.46697760336034 -0.97370958615862  0.25988920492049
 1  4.19237820132013  0.94583329372937 -2.98000637033703
 1  5.30842625432543  2.15038529742974 -2.60886735493549
 1  5.89677698529853  0.66517762526253 -3.10176890789079
 1  6.86690875377538  1.43807780778078 -0.40303766096610
 1  6.31783590299030 -0.07394543194319  0.64794451115111
 1  7.41220860556056 -1.46032526772677 -1.29729105270527
 1  7.75564800070007  0.17091029912991 -2.17553047664766
 1  9.06940899249925  1.04247213221322 -0.09108147594759
 1  8.62535102380238 -0.64544005020502  0.51307917161716
 1  10.47581513291329 -0.35553301560156 -2.19325421492149
 1  9.41145613111311 -2.33488146464646 -2.04622054685469
 1  11.27330988668867 -2.67529431333133 -1.65337958185819
 1  9.81074396039604 -2.58287022902290 -0.10845028472847
 1  11.24327200810081  0.51506373657366  0.26862835033503
 1  11.31140419381938 -1.25780174147415  0.62913353495349
 1  12.86736005490549 -1.43376153735374 -1.13668133573357
 1  12.54508826132613  0.18316900790079 -1.68201156245625
 1  13.55386682338234  0.83757631363136  0.83358070107011
 1  13.68678143124312 -0.97380698539854  0.90650716721672
 1  15.35937922642264  0.28771825682568 -1.48261261926193
 1  15.59866730963096 -2.33378367046705  0.10507905400540
 1  14.90634368506851 -2.26807918351835 -1.42132954805481
 1  16.50489011841184 -1.79786531143114 -1.23160462996300
 1  15.95880108080808  1.65076290999100  0.58160470477048
 1  16.40732517971797  0.03551437633763  1.44778753995400
 1  18.30035097379738 -0.42786933433343 -0.22645598599860
 1  17.82463952845285  1.04092141104110 -1.01255483128313
 1  18.24476526912691  2.45197935563556  1.00561856715672
 1  18.70002716301630  0.81549573057306  1.85660566086609
 1  20.44534944764477  0.67363351155115  0.06608367236724
 1  19.75239934653465  3.37244080598060 -0.54401799519952
 1  21.22288654075408  2.47770442324232 -1.10302166546655
 1  19.71298520292029  2.00280209100910 -1.74655162416242
 1  20.88716469166917  1.63436154525453  2.27623724092409
 1  22.08838054435444  1.96448767846785  1.32620758705871
 1  20.64291402130213  3.19449953325333  1.48092853335334
=======
12 -7.14962553555356  0.60358910701070  0.23236092349235
 6 -4.76752137013701 -1.92407358575858  0.41201773447345
 6 -4.88582851175118  2.87953640094009  1.23498986388639
 6 -9.42065680118012  3.02501799729973 -0.30779363906391
 6 -9.47798811251125 -1.80266577757776 -0.85460188928893
 7 -5.02055548014801  0.44027384548455  0.74120453875388
 6 -4.33702340844084 -0.61585140714071  0.79932795599560
 6 -2.98236724212421 -0.31228065376538  1.15499585378538
 6 -3.00748418681868  1.17310997929793  1.62071280198020
 6 -4.37494448934893  1.53962471127113  1.09704673457346
 6 -2.76998208030803  1.35112740084008  3.13428483738374
 6 -1.90662412341234 -0.59182444384438  0.09737369566957
 6 -0.49244666726673 -0.49289363656366  0.41076520582058
 6  0.46307744494449 -0.58473198609861 -0.81092647314731
 8  0.23221446154615 -1.00002541014101 -1.82631896359636
 8  1.74272608310831 -0.22612000840084 -0.24528131703170
 7 -7.06748719661966  2.66837242704270  0.30632932843284
 6 -6.07489676867687  3.40922189798980  0.83216675027503
 6 -6.50202745584558  4.83161745114511  0.77140782798280
 6 -7.81553426042604  4.78661929342934  0.36576496779678
 6 -8.21963623522352  3.38339753505351  0.05472801910191
 6 -5.69223718041804  5.98763122902290  1.02707746824682
 6 -8.71280907850785  5.95991702540254  0.18938592399240
 6 -8.57828171947195  7.10104622322232  0.83180943074307
 7 -9.03003527612761  0.70391325242524 -0.47848188188819
 6 -9.93844010371037  1.75820577367737 -0.59327565166517
 6 -11.21684078067807  1.40991933103310 -1.15178689818982
 6 -11.21808421232123  0.00444580868087 -1.22351106510651
 6 -9.87861354205421 -0.45551752605261 -0.87257227332733
 6 -12.29399822352235  2.35146571757176 -1.36009278407841
 6 -12.36821136743674 -0.81869928002800 -1.74282509100910
 6 -12.26343383178318 -1.24195660686069 -3.11472659125913
 7 -7.19608907720772 -1.33148276187619 -0.23228790579058
 6 -8.19768000780078 -2.22122729482948 -0.64359931513151
 6 -7.74056020162016 -3.61333960146015 -0.61994927222722
 6 -6.43834771887189 -3.53516785378538 -0.13318505040504
 6 -6.13498609500950 -2.10421870317032  0.02484528872887
 6 -8.51162863026303 -4.78254109650965 -1.09849832823282
 6 -5.24308877917792 -4.39157304080408  0.21719459205921
 8 -5.05699453735374 -5.54013849724972  0.30257728842884
 6 -4.15424900430043 -3.27581337113711  0.57542740804080
 6 -3.52638326922692 -3.63724894619462  1.93014338723872
 8 -3.84968656925693 -3.10314705090509  2.94702738383838
 8 -2.64061525522552 -4.64314903730373  1.84135271617162
 6 -2.30205079297930 -5.12529675877588  3.08355329082908
 6  2.79317182888289 -0.57947574217422 -1.27556875727573
 6  4.10884297329733 -0.43554173047305 -0.64269441844184
 6  5.23192667706771  0.32190845624562 -0.91867163986399
 6  5.26639506250625  1.20122277157716 -2.05528969426943
 6  6.43783811661166  0.39352120232023 -0.01716820202020
 6  7.63131066896690 -0.24456480338034 -0.87914486498650
 6  8.86952882548255 -0.17324245464546 -0.05756756955696
 6  10.14244486898690 -0.56857392909291 -0.88722969346935
 6  10.06713341354135 -2.16710764686469 -1.15103856885689
 6  11.39555243214321 -0.28307208800880 -0.10180931233123
 6  12.79589449714971 -0.44527857895790 -0.88296831973197
 6  13.97839730813081 -0.18367957075708  0.07141420892089
 6  15.25834195909591 -0.30217394649465 -0.57339557935794
 6  15.64989665856586 -1.64215184898490 -0.87967758545855
 6  16.36832093799380  0.32145650565057  0.36022052925293
 6  17.87366195559556  0.48039943834383 -0.17000281488149
 6  18.88677904740474  1.21481969896990  0.80547098009801
 6  20.23939260846085  1.33105343884388  0.27919268246825
 6  20.33293464726473  2.12390068726873 -1.02257325002500
 6  21.12288321912191  1.97289022532253  1.31387675107511
 1 -4.16668815331533  3.53096861826183  1.49782436933693
 1 -10.20946133883388  3.75966680168017 -0.51698709020902
 1 -10.11933522292229 -2.68213755455546 -1.15102175437544
 1 -2.89275573247325 -0.72376068996900  2.11637232843284
 1 -2.31776538173817  1.72454603720372  1.06269692009201
 1 -1.70744520202020  1.17712816571657  3.27955166866687
 1 -3.05063012301230  2.38437249474948  3.28660082548255
 1 -3.42958640134013  0.64065874987499  3.88123053585359
 1 -2.11982446734673 -1.58363832423242 -0.40967487668767
 1 -2.24090576307631  0.13484073447345 -0.65315535513551
 1 -0.28725224262426  0.50466508040804  0.90189058815882
 1 -0.28283608560856 -1.17646216141614  1.14384834003400
 1 -5.85931470687069  6.85283392749275  0.29049475867587
 1 -5.70624761416142  6.42444580768077  2.05517181428143
 1 -4.54435839183918  5.70742190859086  0.88533170877088
 1 -9.46950900340034  5.90253640174017 -0.49731996019602
 1 -9.24453566946695  7.94245498439844  0.65476509830983
 1 -7.86166563236324  7.30159655915592  1.65008339383938
 1 -12.37682178727873  3.18902922892289 -2.02001500620062
 1 -13.21914158335833  1.64993888508851 -1.45232642414241
 1 -12.33261499259926  2.93299195389539 -0.29985122912291
 1 -12.40210498889889 -1.63288273337334 -1.04804975987599
 1 -13.39879859875988 -0.31307804460446 -1.54525005250525
 1 -13.14220057265727 -1.87317200340034 -3.37939782428243
 1 -12.28400196439644 -0.30441497909791 -3.96878037373737
 1 -11.30993727302730 -1.66914178127813 -3.19009762976298
 1 -8.67418702170217 -4.94754549744975 -2.05202846694669
 1 -7.77070643544354 -5.66909691389139 -0.97996760976098
 1 -9.49509939483948 -4.82662768406841 -0.51545336793679
 1 -3.37787848374838 -3.56496974767477 -0.16976224772477
 1 -1.92053021952195 -4.26117255695570  3.81281419671967
 1 -3.15079468806881 -5.76023764136414  3.63616645554555
 1 -1.34932304380438 -5.76870614381438  2.97006095899590
 1  2.52773207730773 -1.57163899979998 -1.60269423442344
 1  2.59607708530853 -0.01804752515252 -2.24614776697670
 1  4.12676358195820 -1.05074728992899  0.18744196019602
 1  4.36736570007001  1.35834454485449 -2.60087845754575
 1  5.83776918861886  2.35881614051405 -1.77871433963396
 1  5.79659696729673  0.81582268976898 -2.84314304530453
 1  6.39476153905391  1.49577357735774  0.32355499829983
 1  6.23122724212421 -0.21516955435544  0.98705842254225
 1  7.33624100880088 -1.13642287748775 -1.19054037763776
 1  7.80633306920692  0.10669387748775 -1.83906683028303
 1  9.08893094469447  0.84471235623562  0.25603323552355
 1  8.71525001370137 -0.71226673287329  0.85293315701570
 1  10.11851940334033  0.00992353005301 -1.89845473497350
 1  9.08035302080208 -2.27441541804180 -1.82658858365837
 1  10.79780233593359 -2.63660044394440 -1.72822706660666
 1  10.04826771277128 -2.62881482348235 -0.09620906060606
 1  11.28127580848085  0.60927315751575  0.58612009950995
 1  11.37723077647765 -1.05129109040904  0.53599422102210
 1  12.94382770167017 -1.54925308650865 -1.31544921252125
 1  12.94590834333433  0.30789148014801 -1.68116147744775
 1  13.88269970667067  0.91244380038004  0.39424676767677
 1  13.81763451655166 -0.71588119281928  1.15511202770277
 1  15.42841613011301  0.45944542954295 -1.50108446644664
 1  15.56636407930793 -2.44522481458146 -0.05078653255326
 1  15.14176722742274 -2.04452682828283 -1.85158257335734
 1  16.65968559795980 -1.86692221712171 -1.25457692719272
 1  16.03076827752775  1.33179101280128  0.60868741304130
 1  16.39725417261726 -0.44674384948495  1.26980974217422
 1  18.18342928162816 -0.49053560096010 -0.44634797519752
 1  17.85797286178618  1.08979629852985 -1.19386296209621
 1  18.49027982058206  2.37924208190819  1.10927893319332
 1  18.89431659195920  0.71424560556056  1.79287928822882
 1  20.44574948764877  0.29255540374037  0.15008207220722
 1  19.78478258485848  3.14549811171117 -1.08328192159216
 1  21.30719497159716  2.29188584138414 -1.28658002130213
 1  19.91109501390139  1.51284309510951 -1.95730269926993
 1  21.13670964616461  1.34538264736474  2.24347396459646
 1  22.09655136143614  1.86560779047905  0.95836080238024
 1  20.81774150405041  2.87038712201220  1.57701814231423
>>>>>>> 8e03b5b5abfc0030b3aa597dc0de36371bfbd096

