%nproc=4
%Mem=2GB
# td=(NStates=1) CAM-B3LYP/6-31G(d,p) 

TD

0 1
12 -7.07914848784878  0.57565631373137  0.05789347674767
 6 -4.76319093709371 -2.01005218361836  0.49900643334333
 6 -4.87133706260626  2.86866531383138  1.24721108600860
 6 -9.40819555505550  3.00205570107011 -0.41961482118212
 6 -9.47833814751475 -1.68246375737574 -0.90868729782978
 7 -5.08236166076608  0.38770858895890  0.77473789208921
 6 -4.31123082918292 -0.73079290129013  0.83942196539654
 6 -2.93145215061506 -0.38613803950395  1.17063741794179
 6 -3.06313975237524  1.07996066436644  1.66878760946095
 6 -4.42279927482748  1.53663441224122  1.16023305320532
 6 -3.01737681978198  1.30603289138914  3.24424583348335
 6 -1.97680114111411 -0.46826208760876  0.05840979927993
 6 -0.52362978557856 -0.40001434863486  0.47080120942094
 6  0.50696183338334 -0.66594010691069 -0.55725110561056
 8  0.33185442554255 -0.99588499609961 -1.66752308400840
 8  1.76343815431543 -0.42053945034503 -0.02144893379338
 7 -7.09661010891089  2.54266985678568  0.35406410191019
 6 -6.09632891189119  3.34965594139414  0.86110964456446
 6 -6.45922317541754  4.77135142454245  0.74071475867587
 6 -7.74307701470147  4.83993462496250  0.25665405670567
 6 -8.16516078767877  3.48467766306631 -0.02012946664666
 6 -5.62584054075408  5.87348981488149  1.02702746324632
 6 -8.52113991159116  6.01809284298430  0.01946893229323
 6 -8.58972286358636  7.13800991959196  0.81375762556256
 7 -9.09031130373037  0.65121798289829 -0.50707474117412
 6 -9.76235249494949  1.72924287738774 -0.69910623472347
 6 -11.13440253685368  1.33021136023602 -1.20406212571257
 6 -11.19624202810281  0.02862822692269 -1.24492320632063
 6 -9.97504318501850 -0.37722969726973 -0.75335035113511
 6 -12.14204302800280  2.46080665166517 -1.50278705350535
 6 -12.42816736303630 -0.73607101720172 -1.76275708420842
 6 -12.35024251265127 -1.02473488468847 -3.38563368196820
 7 -7.19041851015102 -1.42398201180118 -0.15528020502050
 6 -8.24262450225022 -2.25648082018202 -0.54735969116912
 6 -7.77103324892489 -3.65151341884188 -0.48228550585058
 6 -6.52344622872287 -3.54085842284228 -0.01572330423042
 6 -6.09432202860286 -2.24414269556956  0.17257006120612
 6 -8.57168463586359 -4.86359920232023 -0.70023850225023
 6 -5.31926639693969 -4.34973885738574  0.16121899449945
 8 -5.10624946284628 -5.51335581898190  0.11329836053605
 6 -4.06350993039304 -3.32129791959196  0.50314017931793
 6 -3.46616724762476 -3.57921314261426  1.83968434133413
 8 -3.88594019461946 -3.03456019221922  2.85578825992599
 8 -2.70075126882688 -4.67510223262326  1.73964254515452
 6 -2.34616520442044 -5.26660088918892  2.95375031053105
 6  2.80711322302230 -0.68166596119612 -1.05411661206121
 6  4.10160224922492 -0.54166234253425 -0.50976112511251
 6  5.09636312071207  0.31740800620062 -0.81768154085409
 6  5.03835225822582  1.14035668496850 -1.95052921822182
 6  6.33672800560056  0.40750260046005 -0.02033851905191
 6  7.59863740164016  0.07064671777178 -0.91944889538954
 6  8.91635350795080 -0.09614474487449 -0.09935174797480
 6  10.15814643914391 -0.45334240594059 -0.86517748824882
 6  10.02990969116912 -1.89276021212121 -1.36298976397640
 6  11.34846772367237 -0.33719750055005  0.07406827542754
 6  12.75589049674968 -0.40985503660366 -0.63730375327533
 6  13.97059652805281 -0.04795599839984  0.20313738123812
 6  15.38518464336434 -0.16199992909291 -0.59360760056006
 6  15.69755142404240 -1.65908354215422 -0.93633325102510
 6  16.35327943384338  0.40184454445445  0.39092359955996
 6  17.80954554395439  0.57540893929393 -0.27780359495950
 6  18.77528789828983  1.30628884588459  0.70699113211321
 6  20.19781845104511  1.31823215671567  0.18788355155516
 6  20.47680903470347  2.02371066826683 -1.22545353805381
 6  21.38316924772477  1.72463539983998  1.12980834423442
 1 -4.16304778927893  3.60132565396540  1.60477506440644
 1 -10.07621801450145  3.82075291029103 -0.60826621812181
 1 -10.16018930833083 -2.24382372317232 -1.29059571177118
 1 -2.92163862076208 -0.90889920382038  2.20856154735473
 1 -2.27566117131713  1.82348593119312  1.35474612501250
 1 -1.99412386988699  0.69998045094509  3.79588330183018
 1 -2.75452051205121  2.38503256075608  3.52760492589259
 1 -3.87925136783678  0.95304998899890  3.66158857165717
 1 -1.97276976187619 -1.46799676007601 -0.35177908710871
 1 -2.27039871237124  0.24073132353235 -0.80405044464446
 1 -0.15910942834283  0.68545315921592  0.66935733483348
 1 -0.46160396239624 -1.00464497969797  1.53079703490349
 1 -5.90986976237624  6.72398104220422  0.53352906210621
 1 -5.75070205960596  6.08042140524052  2.16303260036004
 1 -4.55950990699070  5.88273944034403  0.91748492409241
 1 -9.11464351685169  5.92138828692869 -0.86755698389839
 1 -9.24336555245524  7.95340607950795  0.86123574537454
 1 -7.87997746354635  7.04106050555056  1.79771815731573
 1 -12.00541464656466  3.15766609260926 -2.26897990269027
 1 -12.96476614581458  1.88652254345434 -1.89646083758376
 1 -12.44143587468747  3.10914956965697 -0.60906215021502
 1 -12.46404118251825 -1.55102454755475 -1.30942589748975
 1 -13.48721744064406 -0.17531426822682 -1.40407593509351
 1 -13.29176552915292 -1.45970065626563 -3.90124000850085
 1 -12.10960452465247  0.09381484388439 -3.88436193189319
 1 -11.58988526782678 -1.81903677077708 -3.69787840784078
 1 -8.96886648964897 -4.79171991489149 -1.62371563566357
 1 -8.01418078287829 -5.89167917211721 -0.65413502650265
 1 -9.40891077597760 -4.81487650895090 -0.10220204280428
 1 -3.29392008790879 -3.25170842154215 -0.22168744024402
 1 -1.66811497799780 -4.62039847954795  3.63565648094809
 1 -3.29419902850285 -5.77358897649765  3.44218705760576
 1 -1.52654076557656 -6.01245051825182  2.63840779367937
 1  2.68179748384838 -1.62359419531953 -1.37895186018602
 1  2.42164964256426  0.00577485708571 -1.87360051225122
 1  4.29654055965597 -1.38485070027003  0.34495771177118
 1  3.99570853435344  1.25269397979798 -2.41013938363836
 1  5.23415882758276  2.28359861876188 -1.71314778297830
 1  5.66634394199420  0.75353646114612 -2.60387911891189
 1  6.53930599349935  1.32284628462846  0.35385802860286
 1  6.45329944934493 -0.43948198559856  0.83073278997900
 1  7.55074245894589 -1.00839007420742 -1.36257758135814
 1  7.59095153105311  0.79740294839484 -1.68082100570057
 1  9.08585063666366  0.93499138413841  0.26403403560356
 1  8.71798028672867 -0.82868837503750  0.64499236293629
 1  10.13991154255426  0.24469700740074 -1.67031192069207
 1  9.21630661616162 -2.02029000550055 -2.06363228802880
 1  10.89108166386639 -2.27175395929593 -1.93301754565457
 1  9.84107699369937 -2.80662260426043 -0.60905034473447
 1  11.44095177607761  0.63012524272427  0.49219070657066
 1  11.16864991839184 -1.17667362866287  0.87010763236324
 1  13.01622494139414 -1.51313947514751 -0.90754842244224
 1  12.83753750625062  0.42379307030703 -1.61923528482848
 1  13.76066750345035  0.82220477647765  0.75478282128213
 1  14.01457421052105 -0.79114871957196  0.96266278277828
 1  15.07507079557956  0.31084056905691 -1.56527088508851
 1  15.80325776867687 -2.28030832293229  0.04107265336534
 1  14.88150120082008 -2.08614098969897 -1.43716113121312
 1  16.58079770917092 -1.88917444234423 -1.51472294179418
 1  16.08887408810881  1.37586542024202  0.76638318261826
 1  16.23135758295829 -0.05664483958396  1.35628839003900
 1  18.25049598829883 -0.47864441184118 -0.43159650005000
 1  17.70944800930093  1.27459477837784 -1.24274785058506
 1  18.43494428702870  2.33759791749175  0.81037904320432
 1  18.70004716501650  0.78084226522652  1.59970997129713
 1  20.67027193989399  0.32004815301530 -0.24025696169617
 1  19.99688379497950  2.90676423832383 -1.22197579097910
 1  21.64624887698770  2.02372902570257 -1.30199156245625
 1  19.96716062046205  1.57115892669267 -1.96601357035704
 1  21.23667964316432  1.06122423152315  2.06616623382338
 1  22.37403911021102  1.52649387908791  0.90155512181218
 1  21.19115884578458  2.79738982228223  1.58079852035203

