%nproc=4
%Mem=2GB
# td=(NStates=1) CAM-B3LYP/6-31G(d,p) 

TD

0 1
<<<<<<< HEAD
12 -7.16924749774977  0.51322007010701  0.16458414581458
 6 -4.88875349334934 -1.92202338073807  0.47414394709471
 6 -4.84912484138414  2.91437988528853  1.06939330423042
 6 -9.38656339183918  3.07732322782278 -0.44908776847685
 6 -9.59503981768177 -1.81035654665467 -0.78393482258226
 7 -5.02051547614762  0.49848966706671  0.80132055035504
 6 -4.31536124222422 -0.69273909590959  0.66145416861686
 6 -2.93925293069307 -0.33650307600760  1.16616697089709
 6 -3.07242068046805  1.12858552685269  1.69369009970997
 6 -4.39693668856886  1.57947869666967  1.23433046294629
 6 -3.00924600670067  1.31541382948295  3.27897930683068
 6 -1.87583104410441 -0.50434569596960  0.02690664896490
 6 -0.47227465006501 -0.35493984118412  0.46255038433843
 6  0.53490462766277 -0.54291780468047 -0.65101048154815
 8  0.25764700480048 -0.79873528112811 -1.79827615931593
 8  1.74657646814681 -0.32130952735274 -0.20386717561756
 7 -7.11243169106911  2.63074866466647  0.27125582108211
 6 -6.08825810481048  3.35386636243624  0.73543707730773
 6 -6.44721197429743  4.78597288668867  0.78282897009701
 6 -7.66746945394539  4.90741137263726  0.23671206250625
 6 -8.14396866846685  3.54099329462946 -0.02198965266527
 6 -5.49353731043104  5.82397486338634  1.20171493199320
 6 -8.50348814641464  6.05911694539454  0.07997498289829
 6 -8.40160405170517  7.16316243484348  0.90558680848085
 7 -9.15550782338234  0.64414727582758 -0.40795482918292
 6 -9.89655591529153  1.69773972707271 -0.69956628072807
 6 -11.17343644024402  1.45320365946595 -1.12180389988999
 6 -11.28137054095409  0.13378874297430 -1.21256997099710
 6 -9.94961064176418 -0.43892586688669 -0.81330634673467
 6 -12.35930475417542  2.32050262126213 -1.46319309410941
 6 -12.33526807310731 -0.83845125522552 -1.65280608910891
 6 -12.37234472287229 -1.22676508770877 -3.10171529012901
 7 -7.23952342064206 -1.43126273987399 -0.09400407740774
 6 -8.25836607640764 -2.30715588768877 -0.44783973917392
 6 -7.80969711531153 -3.63122138963896 -0.48139541684168
 6 -6.49468335243524 -3.58137247424743  0.00273854195420
 6 -6.27624022042204 -2.18464674597460  0.19893269746975
 6 -8.65562302970297 -4.79484232663266 -0.72128060646065
 6 -5.27692216251625 -4.30575445894589  0.12729560216022
 8 -5.07094593249325 -5.50213469686969 -0.01428439773977
 6 -4.20058363776378 -3.38620441024102  0.47896776207621
 6 -3.56935756665667 -3.65765098639864  1.83159353225323
 8 -3.82374397499750 -3.07991472767277  2.81858453955396
 8 -2.75370656435644 -4.74458918131813  1.65577415831583
 6 -2.16621720962096 -5.08641287038704  2.93699863536354
 6  2.75503801550155 -0.56136393099310 -1.23186438683868
 6  4.10730281928193 -0.34586276257626 -0.51811196019602
 6  5.14620810521052  0.32547881328133 -1.00876064876488
 6  5.13590201320132  1.12145479477948 -2.17461162646265
 6  6.45436976977698  0.35300715091509 -0.26651313651365
 6  7.60243778167817 -0.20352069896990 -0.96023297379738
 6  8.87973984658466 -0.14464959535954 -0.23224503730373
 6  10.16741736623662 -0.70859793149315 -0.92780375087509
 6  10.07223392359236 -2.31564250035004 -1.12004546954695
 6  11.44129700660066 -0.34524830563056 -0.11812094349435
 6  12.85447035473547 -0.62945699679968 -0.77434745764576
 6  13.99618908730873 -0.19592079487949  0.18263533103310
 6  15.37345347024702 -0.21719544864486 -0.51168940874087
 6  15.80492216111611 -1.66769440324032 -0.80355997369737
 6  16.42333643954396  0.49919427942794  0.42209671687169
 6  17.81577616701670  0.56704810321032 -0.16995280988099
 6  18.76639700920092  1.26655487248725  0.85609604260426
 6  20.33843251245125  1.41623195669567  0.32560732393239
 6  20.49428078187819  2.17689598679868 -1.03893488618862
 6  21.16705763656366  2.00293322962296  1.30428579197920
 1 -4.12256374087409  3.68150367176718  1.47446203310331
 1 -10.05056544924492  3.91595243024302 -0.84795018651865
 1 -10.41249453885388 -2.33287262806281 -1.25593224542454
 1 -2.57962441934193 -0.98102641654165  1.90514120532053
 1 -2.25470907610761  1.74878846144614  1.15361601200120
 1 -2.05831028852885  1.09624007690769  3.61639535303530
 1 -3.22521758175818  2.27605166266627  3.71209337473747
 1 -3.79550299299930  0.73193787778778  3.75912832563256
 1 -1.89475196009601 -1.46066602700270 -0.44252816201620
 1 -2.07713938643864  0.06315356575658 -0.73015305490549
 1 -0.44994851225123  0.43010762466247  0.92138253735374
 1 -0.35209301130113 -0.93841835703570  1.37216117131713
 1 -5.79770854625463  6.76641528562856  0.81041675087509
 1 -5.79615660506051  6.10988435153515  2.29510580768077
 1 -4.46669062506251  5.36994816121612  0.97553072867287
 1 -9.29373142564257  6.17745389348935 -0.54486471467147
 1 -9.15880709660966  7.89525026392639  0.84334395619562
 1 -7.69517898369837  7.36537293679368  1.71544993049305
 1 -12.33103720882088  2.58948927492749 -2.67039004370437
 1 -13.29850952015201  1.74322821402140 -1.38276946844684
 1 -12.64425615671567  3.10278893359336 -0.60963220722072
 1 -12.25240001840184 -1.86257570267027 -1.14370932583258
 1 -13.34914363326333 -0.50467720452045 -1.54697022452245
 1 -13.06615296789679 -1.88925361156116 -3.44611449594959
 1 -12.49486305050505 -0.29648418601860 -3.67176067176718
 1 -11.42644892419242 -1.77894276137614 -3.59672829282928
 1 -9.43504310731073 -4.69007975087509 -1.52342560666067
 1 -7.86571593639364 -5.59355936013601 -0.69045865886589
 1 -9.20660054495450 -5.10884590589059  0.18579675707571
 1 -3.53749444534453 -3.64963821452145 -0.30863613511351
 1 -1.40550871737174 -4.25530196989699  3.28862177747775
 1 -2.84761437003700 -5.25206682428243  3.74793763266327
 1 -1.78080619211921 -6.23014228742874  2.74874882778278
 1  2.79834913901390 -1.64021585748575 -1.50384434943494
 1  2.34194167176718 -0.03622934333433 -2.24245739793979
 1  4.11586249184919 -0.66010822602260  0.72885610161016
 1  4.14665362886289  1.24966367676768 -2.54465283498350
 1  5.66337174887489  2.20110036893689 -2.19153562176218
 1  5.74224153175318  0.48802991049105 -2.99801853285329
 1  6.62699476237624  1.44654865486549 -0.06493385058506
 1  6.25191931133113 -0.21967000440044  0.73064278097810
 1  7.59558694339434 -1.35533476867687 -1.15779710331033
 1  7.83830626652665  0.19333254135414 -1.97314023762376
 1  8.93178523012301  0.93714159915992  0.32553018521852
 1  8.47543603230323 -0.87157266346635  0.51296916061606
 1  10.33686123752375 -0.19645710801080 -1.85742063156316
 1  9.33272825832583 -2.39657763426343 -1.90966689148915
 1  10.98642119781978 -2.78883566746675 -1.65179942384238
 1  9.77819070507051 -2.87487942994299 -0.08497793749375
 1  11.25270295119512  0.82395462566257  0.14157564506451
 1  11.41994504790479 -0.80334629592959  0.98408903050305
 1  12.93804712361236 -1.60934909610961 -0.93132079967997
 1  13.02015576807681  0.01332202320232 -1.69199256055606
 1  13.89754119081908  0.78310086608661  0.57787513051305
 1  14.03453620672067 -0.76943654835484  1.21134765126513
 1  15.21107439593959  0.39191867686769 -1.39315367336734
 1  15.71675911881188 -2.40079037113711 -0.11582303620362
 1  15.11321437213721 -2.06386876247625 -1.73044045914592
 1  16.82028165756576 -1.72707823272327 -1.64535600510051
 1  15.99091429212921  1.51803963766377  0.57237378167817
 1  16.52067651485148 -0.00803997909791  1.39114187538754
 1  18.14972591129113 -0.56064261166117 -0.36322966336634
 1  17.97457452195220  1.32199951885188 -0.95047862366237
 1  18.34179497209721  2.27127128482848  1.05546355165517
 1  18.68393555385539  0.74844902590259  1.89196919721972
 1  20.47073198589859  0.41710785898590 -0.05798873487349
 1  19.98751285788579  3.20125368726873 -0.90508410181018
 1  21.58144239633964  2.51153780658066 -1.44156551985198
 1  20.07108101250125  1.78057986878688 -2.01726869586959
 1  21.14840081528153  1.42186029512951  2.37204682188219
 1  22.23240494679468  2.14289551925192  1.23955892219222
 1  20.86383611351135  3.00106018931893  1.28003844434443
=======
12 -7.09888046104610  0.62191093919392  0.02902058945895
 6 -4.85301991999200 -1.99343052145215  0.48507504020402
 6 -4.74794472337234  2.71767021432143  1.32136850175017
 6 -9.33376811231123  3.16764225972597 -0.53328618831883
 6 -9.55103541724172 -1.74951046204620 -0.78361479057906
 7 -5.06479990459046  0.45242506060606  0.62516293459346
 6 -4.33901360746075 -0.72767258925893  0.80753877707771
 6 -2.81546055145515 -0.48636806250625  1.26720707490749
 6 -2.98664210261026  1.01264393269327  1.57078780948095
 6 -4.35446244114411  1.45442619141914  1.08091512141214
 6 -2.76418150025003  1.16968925702570  3.11540294919492
 6 -1.92069553055306 -0.75859112051205  0.09098305660566
 6 -0.42891031363136 -0.60924527172717  0.55805993529353
 6  0.54896603380338 -0.73119663256326 -0.67192257275728
 8  0.31959319941994 -0.84375978357836 -1.86485281698170
 8  1.82144395489549 -0.61731912831283 -0.20349713861386
 7 -7.16041648954895  2.61389697949795  0.33227192269227
 6 -6.05714499349935  3.30602157795780  0.83601713531353
 6 -6.40941819491949  4.72359664906491  0.80749143634363
 6 -7.70052275927593  4.82914354585458  0.32288067936794
 6 -8.19848412001200  3.54818401370137  0.04890743704370
 6 -5.62771072777278  5.90449291519152  1.27121188168817
 6 -8.61726952455245  6.04083511721172  0.11597858325833
 6 -8.54458835013501  7.20821694029403  0.74656090589059
 7 -9.18458073067307  0.71118397949795 -0.48579261296130
 6 -9.85502176187619  1.83111306440644 -0.68497482158216
 6 -11.17625672227223  1.47827616671667 -1.17511923142314
 6 -11.20500290419042  0.20391575567557 -1.24087280128013
 6 -9.91883756445644 -0.34889686398640 -0.95900091619162
 6 -12.25253407710771  2.49571014201420 -1.32701947674767
 6 -12.40737528382838 -0.64225163526353 -1.75118592709271
 6 -12.32299978837884 -1.10573298449845 -3.25180029862986
 7 -7.17695716401640 -1.39436905050505 -0.38043272027203
 6 -8.16718695849585 -2.21975714781478 -0.59420437563756
 6 -7.89773591919192 -3.59893816131613 -0.43840111741174
 6 -6.46453033713371 -3.53630796779678 -0.11328306020602
 6 -6.12195479187919 -2.19622790409041  0.02321512571257
 6 -8.75418288568857 -4.83472631503150 -0.71885036343634
 6 -5.30016448674867 -4.31608549204921  0.20729360196020
 8 -5.11230006790679 -5.61062554595460  0.25320235093509
 6 -4.17991157055706 -3.33849963976398  0.50348021332133
 6 -3.45742637353735 -3.64650987228723  1.88420879377938
 8 -3.54754635523552 -3.04028076427643  2.93305598669867
 8 -2.64265545924592 -4.69175389778978  1.75063364426443
 6 -2.08957954585459 -5.10831506060606  2.98567350285028
 6  2.84389690139014 -0.65155294989499 -1.23404460486049
 6  4.13067515651565 -0.48611678797880 -0.50539068806881
 6  5.04730821522152  0.33270953635364 -0.83847362006201
 6  5.01338976197620  1.24550720002000 -2.03913807910791
 6  6.38710304310431  0.46922877307731 -0.02146863206321
 6  7.59635717361736 -0.05349569646965 -0.82547949844984
 6  8.93080495309531 -0.13952908330833 -0.05778759155916
 6  10.14219484398440 -0.54352142384238 -0.90769173967397
 6  10.04330103030303 -2.04525546164616 -1.29825329032903
 6  11.41280415731573 -0.24122790359036  0.00218108670867
 6  12.67305221292129 -0.56001005210521 -0.62037206010601
 6  13.91472094049405 -0.25573677647765  0.29941700920092
 6  15.28229435433543 -0.26483021212121 -0.41545978577858
 6  15.87281895079508 -1.74605223902390 -0.80746036373637
 6  16.27809191509151  0.53209756975698  0.44317882508251
 6  17.65661025042504  0.51261265966597 -0.09946576117612
 6  18.75061543104311  1.38460667766777  0.75994642764276
 6  20.18229689888989  1.39267960146015  0.15447021022102
 6  20.20383173697370  1.91964026122612 -1.32132312501250
 6  21.10034096489649  2.16324926122612  1.15263062646265
 1 -4.15396688118812  3.56748226962696  1.75803038993899
 1 -10.08728912161216  3.81834266926693 -1.12526791829183
 1 -10.24340763016302 -2.63151249204920 -0.86576322852285
 1 -2.74907136403640 -1.02675098899890  2.26560725192519
 1 -2.25580918611861  1.57373095569557  1.21632228262826
 1 -1.74814927242724  0.99438989188919  3.41919563306331
 1 -2.91174623462346  2.28953301080108  3.23357552295230
 1 -3.54488793149315  0.67144182818282  3.59033144594459
 1 -2.01469395429543 -1.74600456085609 -0.29759366856686
 1 -2.03568524102410 -0.12021477107711 -0.75070511011101
 1 -0.28750226762676  0.44126874077408  1.10232063116312
 1 -0.13440124212421 -1.31701621682168  1.29461341654165
 1 -5.74985376077608  6.95085372947295  0.88334404360436
 1 -5.61291828122812  5.87517088018802  2.27509380648065
 1 -4.61883583958396  5.69239040544054  0.94677785338534
 1 -9.41252330483048  6.01985813391339 -0.69957018521852
 1 -9.16375759165917  8.10706144504450  0.39671929372937
 1 -8.02216168196820  7.42138853835384  1.64933331883188
 1 -12.28852295739574  3.10185051105111 -2.36140914561456
 1 -13.14277394659466  1.96503039423942 -1.49872106360636
 1 -12.40159189028903  3.35796445114511 -0.54012525652565
 1 -12.34760953935394 -1.62737218231823 -1.18371332623262
 1 -13.30503922282228 -0.09546628342834 -1.46813234073407
 1 -13.22775912851285 -1.53924861106111 -3.58989887438744
 1 -12.03421698589859 -0.25291982958296 -3.89854335003500
 1 -11.38844512381238 -1.96978184528453 -3.37702632263226
 1 -9.04253385638564 -4.88569931283128 -1.82550581468147
 1 -8.14901426622662 -5.67390739493949 -0.68856846984698
 1 -9.60699058395840 -4.79894491579158 -0.42117393999400
 1 -3.61654235013501 -3.54533778447845 -0.29878515001500
 1 -1.29521768826883 -4.56668310801080  3.44302721802180
 1 -2.85355496409641 -5.18566018361836  3.83076591549155
 1 -1.59192730423042 -6.15668494169417  2.81073502640264
 1  2.91152045614561 -1.76456829272927 -1.69625359035904
 1  2.33473095069507 -0.03200892129213 -2.04264741694169
 1  4.23560446604660 -0.98367058225823  0.33961717771777
 1  3.90950991449145  1.64000271067107 -2.40275864556456
 1  5.57476288798880  2.16880713961396 -1.86559302750275
 1  5.43304061166117  0.77805891339134 -3.00682941394140
 1  6.62143420632063  1.42798679867987  0.29589223202320
 1  6.23434755415542 -0.13779181658166  0.90936065276528
 1  7.52731011571157 -1.07970720592059 -1.42547387098710
 1  7.69619205510551  0.66350955905591 -1.65707863146315
 1  9.09663171477148  1.02817070207021  0.24971260346035
 1  8.83408189688969 -0.72213771997200  0.86698456215622
 1  10.21428898029803 -0.00035749804981 -1.77657254675468
 1  9.28885387088709 -2.31803978047805 -2.08302422722272
 1  10.90587314301430 -2.63851063496350 -1.85460970487049
 1  9.53121600760076 -2.67987992999300 -0.53948338803880
 1  11.44711239213921  0.67865009520952  0.52126361386139
 1  11.18153120652065 -0.90384634593459  0.95689631123112
 1  12.53453677257726 -1.63634179537954 -0.98487615521552
 1  12.88248200070007  0.05401609260926 -1.57575093639364
 1  13.75534697139714  0.83368592459246  0.47260460346035
 1  13.71319407250725 -0.97699730443044  1.04653116961696
 1  15.04349763826383  0.34939442444244 -1.32440679867987
 1  16.14892233513351 -2.40375066716672  0.11984053015302
 1  15.04135718641864 -2.23417579317932 -1.38722613771377
 1  16.70771040044005 -1.44747027192719 -1.66990846034603
 1  15.94596979767977  1.38978681238124  0.64805134943494
 1  16.47578202540254 -0.13809298439844  1.55750851205121
 1  18.01737267596760 -0.40168671607161 -0.51568490889089
 1  17.71124818931893  1.22261958085809 -1.04543811961196
 1  18.48957975057506  2.39105326302630  0.74119212451245
 1  18.61691885218522  0.76222040304030  1.67690769106911
 1  20.63312822552255  0.41705785398540  0.13285034903490
 1  19.60880498709871  2.89417297919792 -1.52078567196720
 1  21.24960921302130  1.92699935273527 -1.58737010031003
 1  19.70769467386739  1.41987379817982 -2.04568153715372
 1  21.14705068026803  1.57239534863486  1.98888850605060
 1  22.24469617591759  2.13024425412541  0.68075304160416
 1  20.54753448334834  3.25942602590259  1.42135257575758
>>>>>>> 8e03b5b5abfc0030b3aa597dc0de36371bfbd096

