%nproc=4
%Mem=2GB
# td=(NStates=1) CAM-B3LYP/6-31G(d,p) 

TD

0 1
12 -7.07066763976398  0.63137188528853  0.07172485988599
 6 -4.80834545254525 -1.95357653605361  0.49008554125413
 6 -4.89603953285329  2.89729817711771  1.10740710561056
 6 -9.44907964346435  3.05198069356936 -0.36118897859786
 6 -9.52988330203020 -1.80311582258226 -0.83621005010501
 7 -5.04643806840684  0.45563538163816  0.66752717101710
 6 -4.31947165326533 -0.67050687268727  0.76833485668567
 6 -2.86595560096010 -0.35971539723972  1.22524287848785
 6 -3.00497393579358  1.14639730803080  1.54847557825783
 6 -4.49298629352935  1.55353610241024  1.14430146004600
 6 -2.77974305640564  1.29178146624662  3.16355776467647
 6 -1.89469293029303 -0.55366062746275  0.12987694599460
 6 -0.39350677327733 -0.42772711991199  0.63346747604760
 6  0.55787692489249 -0.52280579347935 -0.53539892039204
 8  0.26507774787479 -0.77600300790079 -1.73474980668067
 8  1.85041685218522 -0.40072746914691 -0.11826861576158
 7 -7.10933138103810  2.55596118591859  0.30908960446045
 6 -6.01518079707971  3.39709068486849  0.74758829242924
 6 -6.52264951805181  4.71739602900290  0.83249393659366
 6 -7.83437614461446  4.84868550005000  0.33393178447845
 6 -8.13833810541054  3.43681287658766  0.08696124242424
 6 -5.63105106180618  5.92045451135114  1.11029579007901
 6 -8.65638343594359  5.94417545124513  0.16246323172317
 6 -8.58801269256926  7.11933805240524  0.82045829562956
 7 -9.04529680228023  0.54951781288129 -0.57017105080508
 6 -9.82058831853185  1.70021997509751 -0.71611793589359
 6 -11.19002809940994  1.39418775787579 -1.15264698419842
 6 -11.26081848574857  0.06224158825883 -1.22334104810481
 6 -9.91631731243124 -0.46695867016702 -0.91381639773977
 6 -12.28368719241924  2.37405797679768 -1.48338511331133
 6 -12.45171971827183 -0.64832224232423 -1.78810961946195
 6 -12.28652614101410 -1.09467187838784 -3.22769788838884
 7 -7.14538400670067 -1.31943155675568 -0.25720039703970
 6 -8.18693893369337 -2.15500067216722 -0.62006696189619
 6 -7.79946609220922 -3.60052832033203 -0.61958923622362
 6 -6.46488037213721 -3.56082041904190 -0.24502623452345
 6 -6.17138973537354 -2.17636591789179  0.12174497869787
 6 -8.57196466386639 -4.84791763416342 -0.89357783618362
 6 -5.25961043134313 -4.38958284178418  0.25871874447445
 8 -5.12472131003100 -5.58058254165416  0.14548157885789
 6 -4.11504508390839 -3.40663645344534  0.58009787508751
 6 -3.47987861876188 -3.69023424472447  1.97759813271327
 8 -3.72444404500450 -3.10626736293629  3.05490817191719
 8 -2.73322451615161 -4.73314803720372  1.85009359025903
 6 -2.15315590349035 -5.09190341944194  3.09256419191919
 6  2.80261277297730 -0.66104389898990 -1.05794699509951
 6  4.11292338133813 -0.46970514681468 -0.49158930793079
 6  5.20289377377738  0.39117538293829 -0.83077284998500
 6  4.98371679467947  1.21967461676168 -2.07872203750375
 6  6.51639597239724  0.44937678787879 -0.21142762796280
 6  7.57648518641864 -0.13313366026603 -0.91566851735174
 6  8.95669754235424 -0.12440757115712 -0.06595840864086
 6  10.26055668016802 -0.50211728342834 -0.87275824632463
 6  10.12807950815081 -1.95392632873287 -1.36795026002600
 6  11.44369724662466 -0.37300108090809 -0.04958408980898
 6  12.69468437613761 -0.56501055215522 -0.68154817771777
 6  13.85591505990599 -0.13417462026203  0.19355642314231
 6  15.21732785768577 -0.17098082718272 -0.50516875667567
 6  15.53126479537954 -1.58166580038004 -0.95753537123712
 6  16.35234934083408  0.24862922292229  0.43794830203020
 6  17.81090567996799  0.45441684008401 -0.18553436803680
 6  18.69796016551655  1.21593981098110  0.66695712871287
 6  20.17180584978498  1.23138347184718  0.17767253045305
 6  20.32850420422042  2.11096939413941 -1.08598959165917
 6  21.12072300310031  1.88371130743074  1.24927029042904
 1 -4.30302178667867  3.71651717311731  1.41779636653665
 1 -10.16949734243424  3.83679451445144 -0.45423081458146
 1 -10.20955424482448 -2.51097043784378 -1.04085073727373
 1 -2.69433589048905 -1.04471278517852  2.14638532973297
 1 -2.23682728792879  1.74675825842584  1.18511916231623
 1 -1.73163762126213  1.13634408730873  3.28818253175318
 1 -3.04270933093309  2.18511256875688  3.50397256265627
 1 -3.45986942964296  0.68626331033103  3.84468688148815
 1 -2.05710819571957 -1.39446940734073 -0.48952286148615
 1 -2.08658033053305  0.17172442284228 -0.72406244584458
 1 -0.13000651805181  0.67902251615162  1.05787618671867
 1 -0.18901670367037 -1.24904942014202  1.43369732493249
 1 -6.03318209360936  6.83456210031003  0.43389909910991
 1 -5.84426141554155  6.32345570867087  2.07722401950195
 1 -4.35961991799180  5.81482264866487  1.01760493609361
 1 -9.21265331783178  5.86075222332233 -0.68929915811581
 1 -9.39866108200820  7.92265300420042  0.55913553535354
 1 -7.97043650945094  7.21191759125913  1.77078546404640
 1 -11.87537164226423  3.06851717771777 -2.44075708040804
 1 -13.03907357655766  1.89007289848985 -2.11335252675268
 1 -12.71581331243124  2.86146480118012 -0.59454069806981
 1 -12.57852263066307 -1.71988143324332 -1.35262021692169
 1 -13.31908062696270 -0.07831456825683 -1.39502503000300
 1 -13.31888824142414 -1.76000068626863 -3.40514039853985
 1 -12.23788735293529 -0.07917245484548 -3.68490198589859
 1 -11.51194747404741 -1.86925179227923 -3.44245286528653
 1 -8.91546114911491 -4.97791853475348 -1.97808107220722
 1 -8.15748511331133 -5.72250225442544 -0.49074868786879
 1 -9.36499638453845 -4.73217823912391 -0.35561738433843
 1 -3.37271796769677 -3.63769702040204 -0.16965223672367
 1 -1.66790495699570 -4.30701714141414  3.47426034133413
 1 -2.85816542514251 -5.33110472807281  3.78316115501550
 1 -1.48691680318032 -5.92558183138314  2.88113206610661
 1  2.75049435353535 -1.69541137703770 -1.36407037203720
 1  2.76019349694969 -0.00825654605461 -1.98520167236724
 1  4.25024593019302 -0.86390860606061  0.41312452845284
 1  4.15433439693969  1.30521923232323 -2.59058742844284
 1  5.28612402410241  2.27260751965196 -1.90049651785179
 1  5.97875518311831  1.00411151865186 -2.72030076107611
 1  6.82503456635664  1.37396139613961  0.14492713551355
 1  6.22230635003500 -0.16561459885989  0.71358107480748
 1  7.37528491319132 -1.05536477167717 -1.46745806940694
 1  7.71982441834183  0.58367157525753 -1.72227515111511
 1  8.95847789938994  1.00738862386239 -0.07897026482648
 1  8.56247473617362 -0.70034554075408  0.79466733043304
 1  10.32007955935594  0.16499903760376 -1.72282717221722
 1  9.08666365186519 -2.13583155965597 -1.81917784258426
 1  10.97735029072907 -2.28891567546755 -1.98665290919092
 1  10.20325321132113 -2.57449939193919 -0.42619205890589
 1  11.46425410631063  0.59708193839384  0.46051753925392
 1  11.46143919731973 -0.92259822112211  0.89650027162716
 1  12.70919423832383 -1.57905606680668 -0.97642531013101
 1  12.72616636913691  0.05036572757276 -1.53515687698770
 1  13.72127356405641  0.82882543854385  0.49496683968397
 1  14.06059881298130 -0.79092869756976  1.07415393189319
 1  15.25753904240424  0.28356784178418 -1.62038639663966
 1  15.53065050795080 -2.29833012511251 -0.12196365026503
 1  14.94222727342734 -2.12622499809981 -1.94290170527053
 1  16.37404703410341 -1.55112063696370 -1.54938640814081
 1  16.10483568426843  1.21003883758376  0.76208275257526
 1  16.41495594279428 -0.33404257935794  1.23447620882088
 1  18.32522346104610 -0.48719526692669 -0.47547088748875
 1  17.67947501200120  1.04931225012501 -1.17636121192119
 1  18.31839263186319  2.18045220292029  0.92643064836484
 1  18.91808896919692  0.81827600860086  1.77605760606061
 1  20.48930384308431  0.23535968416842 -0.14518745474547
 1  19.87725183178318  2.97936149804980 -1.18672226562656
 1  21.33977822992299  2.32690934373437 -1.29216057935794
 1  19.98584248864887  1.57199901070107 -2.06173314231423
 1  21.09728570377038  1.18124623372337  2.03129274647465
 1  22.25956766306631  2.07458868856886  0.76147111341134
 1  20.76175590549055  2.77232731603160  1.53345378587859

