%nproc=4
%Mem=2GB
# td=(NStates=1) CAM-B3LYP/6-31G(d,p) 

TD

0 1
<<<<<<< HEAD
12 -7.13326389938994  0.58901764986499  0.19497718511851
 6 -4.78861347934793 -1.91855303370337  0.52526905960596
 6 -4.80391031993199  2.89577802510251  1.20777714261426
 6 -9.37178191369137  3.07602309780978 -0.30647350705071
 6 -9.43562387608761 -1.79587509850985 -0.85195162426243
 7 -5.12735616021602  0.49389920802080  0.73338375667567
 6 -4.29332903900390 -0.68684850685068  0.87869589278928
 6 -2.96518552395240 -0.37429685538554  1.19279963416342
 6 -3.06610004840484  1.10420308860886  1.71904263496350
 6 -4.45482247714771  1.60107085588559  1.15280231013101
 6 -2.93317839993999  1.41771405950595  3.18153956285629
 6 -1.98300176117612 -0.57278253965397 -0.05641168286829
 6 -0.54990241284128 -0.38730307750775  0.32992712201220
 6  0.48848998619862 -0.64757827072707 -0.73422880338034
 8  0.24351559165917 -0.96822222982298 -1.89970630233023
 8  1.71050286078608 -0.39077647404740 -0.20228701760176
 7 -7.13431387928793  2.56084167396740  0.26258495399540
 6 -6.05607488648865  3.40630160596060  0.69319285288529
 6 -6.45249250235023  4.74934922432243  0.72667335453545
 6 -7.67727043404340  4.85642627412741  0.28234662596260
 6 -8.16992126372637  3.48500769606961  0.06209875617562
 6 -5.51115907260726  5.88691115701570  1.00241500200020
 6 -8.56556435403540  6.05005603930393  0.00438742414241
 6 -8.47223111441144  7.15746186478648  0.65929217901790
 7 -9.09976224882488  0.71165402650265 -0.58610264396440
 6 -9.89199545924592  1.76769672277228 -0.52310863496350
 6 -11.19618871547155  1.46376471557156 -1.05836755625563
 6 -11.21874427832783 -0.00253488938894 -1.23064177817782
 6 -9.85233091379138 -0.41642361666167 -0.81945696179618
 6 -12.27595641934193  2.40281085208521 -1.23198997379738
 6 -12.31929647594760 -0.85508291839184 -1.72679348784878
 6 -12.31861935033503 -1.19854226542654 -3.20983610221022
 7 -7.22411187948795 -1.41171078467847  0.19438476147615
 6 -8.28372861266127 -2.26533170527053 -0.40687564276428
 6 -7.81277742334233 -3.58410667816782 -0.48383566086609
 6 -6.52510639473947 -3.56888122512251 -0.07842957485749
 6 -6.16525912231223 -2.19891817311731  0.31084388858886
 6 -8.52553002040204 -4.82133497589759 -0.93843232163216
 6 -5.30596506680668 -4.37873175667567  0.21665453805381
 8 -5.16700553845385 -5.54424890829083  0.05465249594960
 6 -4.08480205960596 -3.28186397619762  0.55919578487849
 6 -3.50557118801880 -3.71765698699870  1.87168754165417
 8 -3.65716731733173 -3.07728446464646  2.91542422352235
 8 -2.68723991769177 -4.74725944834483  1.67876645754575
 6 -2.09385997389739 -5.21237546664666  2.77953288878888
 6  2.79534204590459 -0.71173896849685 -1.19950115051505
 6  4.09459154815482 -0.42651082738274 -0.56138628762876
 6  5.12940642504250  0.39004526992699 -0.95005477817782
 6  4.96777520052005  1.38492114141414 -2.06584074937494
 6  6.42312664546455  0.37712956315632 -0.13418990419042
 6  7.63955149304931 -0.25409575647565 -1.02989994049405
 6  8.89687155975598 -0.12713784418442 -0.25749756255626
 6  10.14169479397940 -0.60483755545555 -0.84504547504750
 6  9.98218491869187 -2.08485942204220 -1.36707017201720
 6  11.43781665856586 -0.37960174097410 -0.02682181358136
 6  12.76499140684068 -0.48855290639064 -0.75554557745775
 6  13.92670213861386 -0.00572177497750  0.10153722122212
 6  15.26183230813081 -0.12314604370437 -0.57254549434943
 6  15.68003967286729 -1.65877351115112 -0.79239885758576
 6  16.37925203110311  0.42710707070707  0.36056056325633
 6  17.84755934533453  0.35801720012001 -0.05613142774277
 6  18.79568993849385  1.27236545354535  0.86035646864686
 6  20.18156682588259  1.28782911641164  0.34455921912191
 6  20.41562291609161  2.01814011121112 -1.03032402510251
 6  21.20051098189819  1.98396133243324  1.30167553095310
 1 -3.97420890539054  3.49261478287829  1.43043763066307
 1 -10.14646503920392  4.04778561356136 -0.47049244074407
 1 -10.24389767916792 -2.55525486628663 -1.16956360856086
 1 -2.58603506040604 -0.93658197209721  2.10583127432743
 1 -2.33927753295330  1.70068365096510  1.16804745514551
 1 -1.81295575307531  1.45224567746775  3.60005371887189
 1 -2.91672673267327  2.74036809430943  3.53699586498650
 1 -3.55968941164116  0.77816250025002  3.83788620142014
 1 -2.01799428432843 -1.60178013841384 -0.37466137533753
 1 -2.24652632513251  0.03095034543454 -0.75067510711071
 1 -0.28346186358636  0.61170578447845  0.61230162926293
 1 -0.24295209720972 -0.78660317551755  1.37991194639464
 1 -6.00448922432243  6.82584122822282  0.67910361956196
 1 -5.29545653505351  6.13072643574357  2.06912320942094
 1 -4.42481643764376  5.46600776717672  0.62620579617962
 1 -9.15321737423742  6.01875802390239 -0.89814004220422
 1 -9.04488570447045  8.01877261616162  0.50992061386139
 1 -7.79342880868087  7.43433983348335  1.36278466396640
 1 -11.89285339043905  2.74253457945795 -2.15368837353735
 1 -13.30570023922392  1.93340723192319 -1.24943613511351
 1 -12.45767749884989  3.21184983968397 -0.44899614361436
 1 -12.44126890529053 -1.77182662776278 -1.01367632253225
 1 -13.31962068096810 -0.37373411021102 -1.63578910641064
 1 -13.17559391199120 -1.86546123232323 -3.36355624012401
 1 -12.59293285748575 -0.18423296089609 -3.84856835253525
 1 -11.31306758605861 -1.56881174827483 -3.49240786078608
 1 -8.68044764776478 -4.80438118101810 -2.18015127922792
 1 -8.01841120592059 -5.86050605480548 -0.79544915791579
 1 -9.59300918581858 -5.02094711601160 -0.63934575717572
 1 -3.40363105900590 -3.37557080778078 -0.27147241874187
 1 -1.44477264376438 -4.33848028772877  3.29988290359036
 1 -2.78137774637464 -5.87132875047505  3.47063990289029
 1 -1.31388950045005 -5.89750902410241  2.27179113201320
 1  2.67148645274527 -1.82473430933093 -1.37507147214721
 1  2.53168064566457 -0.18147386778678 -2.16972012421242
 1  4.49867077267727 -1.08793100830083  0.40993420942094
 1  3.90741970547055  1.46858556895690 -2.45809417911791
 1  5.28758417011701  2.28502876177618 -1.55931239943994
 1  5.79933724132413  1.12969407690769 -2.81764049504950
 1  6.59629169206921  1.16269026902690  0.28256089888989
 1  6.25055917531753 -0.48549658705871  0.72252196889689
 1  7.30051743644364 -1.11087032223222 -1.30613193679368
 1  7.89048148404840  0.36915012311231 -1.77381030463046
 1  9.04595664726473  0.74930281528153  0.43044067626763
 1  8.71128961766177 -0.76637214341434  0.56906477017702
 1  10.16594414581458  0.00047258495850 -1.77621251075108
 1  9.37036202170217 -2.49684766126613 -1.97504342914291
 1  11.05080763646365 -2.55488227212721 -1.72805704960496
 1  9.78044093009301 -2.67673961596160 -0.33616305600560
 1  11.37071475237524  0.70650288048805  0.33740522802280
 1  11.41718477187719 -1.12494845614561  0.82296291789179
 1  12.99813313221322 -1.46867502870287 -1.40045771337134
 1  12.89199295179518  0.02153284428443 -1.77559092039204
 1  13.90935237193719  1.23391594759476  0.36026336933693
 1  14.09782253535354 -0.45875548024803  1.08999551605161
 1  15.16299958845885  0.34518400340034 -1.36003036103610
 1  15.72926036893689 -2.01737202930293  0.20188873497350
 1  15.06082913361336 -2.17816019161916 -1.45348276337634
 1  16.81416104550455 -1.47661318621862 -1.10092156165617
 1  16.06411161186119  1.53066089978998  0.60756730103010
 1  16.45256970417041 -0.10315949104910  1.34687744894489
 1  18.31535247394740 -0.70592714011401 -0.08844218461846
 1  17.94763182768277  1.03126044494449 -1.06573014881488
 1  18.53979477207721  2.34931908960896  1.20767877317732
 1  18.81114827512751  0.73750793179318  1.75882588288829
 1  20.56748166086609  0.31808795699570  0.11751881588159
 1  19.95393950055005  3.03669723162316 -1.05932952635264
 1  21.42922717481748  2.30532718551855 -1.14641600490049
 1  19.87606151055106  1.40300211101110 -1.76063303230323
 1  21.09475545074508  1.57313542264226  2.24765438263826
 1  22.36925863216322  1.75991722142214  0.92263723002300
 1  20.91986171607161  3.05926600990099  1.77605804630463
=======
12 -7.11012158515852  0.65015376347635  0.15030271767177
 6 -4.92860747874787 -2.03161433983398  0.55101163386339
 6 -4.77749767866787  2.84240268756876  1.22447881278128
 6 -9.30987572307231  3.11124662016202 -0.30497335703570
 6 -9.45126544024403 -1.76770228122812 -1.08796522562256
 7 -5.13130655525553  0.47554737283728  0.86738715701570
 6 -4.40066977307731 -0.73000282228223  0.81569959315932
 6 -2.98148715411541 -0.36541596729673  1.27621797599760
 6 -2.91036447484748  1.02097476577658  1.72241297199720
 6 -4.31542853775377  1.54126487528753  1.14546157605761
 6 -3.01060614271427  1.22692498059806  3.34133554245425
 6 -1.97815127612761 -0.51757701910191  0.09028298659866
 6 -0.51872929552955 -0.41550589778978  0.51010513981398
 6  0.53821495869587 -0.71418493139314 -0.61810719121912
 8  0.38927016711671 -0.95499090669067 -1.80642697439744
 8  1.81736354685469 -0.66211360776078 -0.19211600050005
 7 -7.07552800070007  2.64335992579258  0.33423211871187
 6 -6.04073335233523  3.32159313511351  0.70866440004000
 6 -6.38938619171917  4.72374666406641  0.76604729192919
 6 -7.66498920592059  4.90262089358936  0.39521791309131
 6 -8.10927519911991  3.61019021432143  0.14249679597960
 6 -5.49927788448845  5.95128759465947  1.20334509500950
 6 -8.46723452105210  6.06932796649665  0.15600258565857
 6 -8.64451834313431  7.22624874347435  0.80369661946195
 7 -9.01482375497550  0.64759762086209 -0.65748978267827
 6 -9.63235949564957  1.80361031413141 -0.74186051015102
 6 -11.08223732033203  1.46981532063206 -1.23676539603960
 6 -11.17614001790179  0.15116048014801 -1.40945965996600
 6 -9.86051173187319 -0.37841981628163 -1.06749176527653
 6 -12.20648947264726  2.39283985498550 -1.58876565136514
 6 -12.32456700300030 -0.70048745884588 -1.76614742324232
 6 -12.20078756715672 -1.19836224742474 -3.21844696329633
 7 -7.25084455275528 -1.35576519011901 -0.09736441344134
 6 -8.23857409720972 -2.20758593069307 -0.59953490869087
 6 -7.88503464906491 -3.63187145464546 -0.59093637093709
 6 -6.54819870397040 -3.53858819581958 -0.11588332023202
 6 -6.15181777817782 -2.16831511281128  0.06234903910391
 6 -8.64468193559356 -4.82817565996600 -0.83399187758776
 6 -5.37587205750575 -4.42724660816082  0.24497737033703
 8 -5.21171000890089 -5.59470395379538  0.16098312901290
 6 -4.21281486088609 -3.29363515331533  0.51784164946495
 6 -3.70143077397740 -3.67616283758376  2.06276664956496
 8 -3.91099269986999 -3.11846858305831  3.13034571567157
 8 -2.99629082278228 -4.75551027342734  1.83618219911991
 6 -2.40235082298230 -5.33629785888589  3.11282621812181
 6  2.80464297599760 -0.79843763836384 -1.18464966536654
 6  4.09379146814681 -0.60059823612361 -0.53377352635264
 6  5.09271275567557  0.26345261066107 -0.89019879257926
 6  4.99248767176718  1.19774242354235 -2.11098526382638
 6  6.44942927572757  0.29575142534253 -0.13452993819382
 6  7.69795733363336 -0.12681302820282 -0.92501945244524
 6  8.94972684528453 -0.10810594099410 -0.10822263506351
 6  10.25341596609661 -0.46835390709071 -0.89896086658666
 6  10.05440214041404 -2.02291322742274 -1.43172663766377
 6  11.47892076897690 -0.21713549434944 -0.04589372077208
 6  12.74651955965597 -0.45125917701770 -0.77990801370137
 6  13.98079754815481 -0.11700290309031  0.09776684418442
 6  15.36785291019102 -0.38373210231023 -0.53982222202220
 6  15.75241691059106 -1.80599823362336 -0.90785040274027
 6  16.32795690159016  0.35489984998500  0.37669217641764
 6  17.85321991139114  0.59713111151115 -0.10306612121212
 6  18.81251162066207  1.45795401240124  0.67088752175218
 6  20.30837950715071  1.56972730623062  0.12537730093009
 6  20.32570392419242  2.20775907310731 -1.17612860556056
 6  21.14440537133714  2.16615955225523  1.30388575197520
 1 -3.94346583108311  3.59127464886489  1.49309389628963
 1 -10.01671206390639  3.88441927692769 -0.38181357285729
 1 -10.38679196859686 -2.35929527032703 -1.27153380558056
 1 -2.53064952185218 -1.01726003990399  1.98075876707671
 1 -1.98405201040104  1.48755233783378  1.30831148154815
 1 -1.93251770927093  1.18064851775177  3.74321803530353
 1 -3.49143420342034  2.20633469096910  3.81783394879488
 1 -3.67618106080608  0.37282196619662  3.64022643544354
 1 -1.95815830073007 -1.36088604900490 -0.49317322652265
 1 -2.12255392789279  0.05781303170317 -0.71709174877488
 1 -0.17078059545955  0.48341295519552  1.03596399549955
 1 -0.43139094109411 -1.11875639083908  1.25266922212221
 1 -5.88365714111411  7.08123676777678  0.85163087228723
 1 -5.56133312271227  6.11881524462446  2.24487078417842
 1 -4.38542249824983  5.94443560996100  0.97339051465147
 1 -9.10962301480148  6.13571972007201 -0.75673590179018
 1 -9.44427564346435  8.07914865376538  0.51470109190919
 1 -8.21102056785679  7.21746814631463  1.81245963146315
 1 -11.79082318741874  3.13163348934894 -2.30978398309831
 1 -13.05032470167017  1.90969486068607 -1.86806799829983
 1 -12.32621435253525  3.07029568426843 -0.70915215921592
 1 -12.54173895229523 -1.52212165726573 -1.14992994789479
 1 -13.27707642654265 -0.05420215701570 -1.74903043054305
 1 -13.07233358595860 -1.98478316451645 -3.52812269676968
 1 -12.34784834903490 -0.36091062866287 -3.96685018071807
 1 -11.19232551185119 -1.68012287938794 -3.45496411641164
 1 -9.04091369436944 -4.95865660856086 -1.77517078117812
 1 -8.07699706450645 -5.64129413361336 -0.57161677467747
 1 -9.65221510641064 -4.82869789108911 -0.17406922952295
 1 -3.37083777967797 -3.33299655035504 -0.13206847834784
 1 -1.62874104060406 -4.57839427912791  3.40580349564956
 1 -3.20419002760276 -5.63141475907591  3.76018885778578
 1 -1.86125423692369 -6.27353662686269  2.77654160706071
 1  2.91660096419642 -1.93109494539454 -1.35580954595460
 1  2.43145062266227 -0.15081080148015 -1.90626377857786
 1  4.35845675127513 -1.28044025922592  0.21956517251725
 1  4.04414337783778  0.97498620902090 -2.67283565326533
 1  5.03452886458646  2.27128738763876 -1.67427389558956
 1  5.86158346594659  1.02233334083408 -2.84824355535554
 1  6.42873493639364  1.23084708470847  0.20473311611161
 1  6.57445156455646 -0.53454149154915  0.76545626232623
 1  7.48076546124612 -1.22637187238724 -1.28131945554555
 1  7.82479491539154  0.43065627372737 -1.74101702530253
 1  9.13944599619962  0.88777666266627  0.29412704490449
 1  8.76568505720572 -0.76160166636664  0.85105296899690
 1  10.25947349874987  0.15963850155015 -1.81586647614761
 1  9.04050903640364 -2.20330830733073 -1.86373229802980
 1  10.85424798049805 -2.24271105500550 -2.16661090499050
 1  10.00212309830983 -2.69277121912191 -0.56675611531153
 1  11.39668734963496  0.82207443764376  0.23508499599960
 1  11.49192224562456 -0.93043900520052  0.82108272987299
 1  13.03367668656866 -1.38466662786279 -1.09330699829983
 1  12.84298805130513  0.21822251325133 -1.58851221252125
 1  13.76927836453645  0.83202575857586  0.61129847284728
 1  13.99325207830783 -0.95214481918192  0.85010152665267
 1  15.20157344584458  0.17448693369337 -1.39026338433843
 1  15.65551299419942 -2.19151944404440  0.25571411751175
 1  15.08663171387139 -2.24521689728973 -1.60122753785379
 1  16.75946557595760 -1.85599112401240 -1.18899036853685
 1  15.99931513221322  1.25883371707171  0.70048659295930
 1  16.52355680288029 -0.34669384448445  1.33284604580458
 1  18.35541648034804 -0.48837538493849 -0.16581992239224
 1  17.78898596309631  0.83460077897790 -1.19788336413641
 1  18.42024281688169  2.46584074177418  0.76676468176818
 1  18.82212937323732  0.88891307230723  1.68064806510651
 1  20.55739065176518  0.48831497969797 -0.02013494949495
 1  20.05389949654965  3.16559012091209 -1.24856845024502
 1  21.31466571867187  2.51525817861786 -1.72921428472847
 1  19.85230913531353  1.63945575637564 -1.93231020002000
 1  21.14590056525653  1.35231334043404  2.23518313551355
 1  22.07691939823982  2.42213344304430  0.82721768806881
 1  20.66310604050405  3.04721480478048  1.63841428192819
>>>>>>> 8e03b5b5abfc0030b3aa597dc0de36371bfbd096

