%nproc=4
%Mem=3GB
# td=(NStates=1) iop(3/107=0140000000,3/108=0140000000) CAM-B3LYP/6-31G(d,p) 

TD

0 1
12 -7.11592628432843  0.69241762526253  0.01476784678468
 6 -4.91817063356336 -2.00605783638364  0.51318672107211
 6 -4.64854088468847  2.95622434033403  0.99434954015402
 6 -9.35270203470347  3.14444199719972 -0.43119559485949
 6 -9.61286738473848 -1.72161392709271 -0.96739354425443
 7 -5.12449948114812  0.46897298789879  0.74457228122812
 6 -4.37481972927293 -0.78267941114111  0.92786068076808
 6 -2.91214743534353 -0.47258565656566  1.26330199929993
 6 -2.94678790569057  1.04896359795980  1.71721800110011
 6 -4.21363159785979  1.63058770987099  1.15530992489249
 6 -2.82875905670567  1.28479129842984  3.20099541414141
 6 -2.01462719241924 -0.74868085728573  0.06013982428243
 6 -0.46959266846685 -0.47832108010801  0.53988737103710
 6  0.51601352455246 -0.76393301520152 -0.48948873897390
 8  0.33695391219122 -1.09738351605161 -1.59585697879788
 8  1.73767236563656 -0.61891182958296  0.00036464886489
 7 -6.95045268866887  2.63611682158216  0.27948887298730
 6 -5.97264740854085  3.39489325672567  0.64679055515552
 6 -6.38970387878788  4.78549541314131  0.68560681938194
 6 -7.67171195649565  4.82562436763676  0.33825995239524
 6 -8.03054258175818  3.46596353515352  0.07663566216622
 6 -5.34880691459146  5.95743521722172  1.04405456065607
 6 -8.45482549054906  6.08565883548355 -0.01116050355035
 6 -8.48670708070807  7.26545569526953  0.64336839613961
 7 -9.12117115821582  0.69256625102510 -0.65791236513651
 6 -9.88389587588759  1.86860018431843 -0.67515032853285
 6 -11.20337429012901  1.49271871637164 -1.13454831453145
 6 -11.24475396259626  0.12900044584458 -1.18046807510751
 6 -9.89360696429643 -0.37403759715972 -0.91485368666867
 6 -12.31015195289529  2.58050329172917 -1.26794624732473
 6 -12.47985177807781 -0.69723584738474 -1.56240557115712
 6 -12.47217912681268 -1.23486367866787 -3.02063271447145
 7 -7.37937089948995 -1.40545538123812 -0.11353402850285
 6 -8.37683200950095 -2.26494504000400 -0.58743032293229
 6 -7.86135817561756 -3.55279583098310 -0.55583588338834
 6 -6.56087387788779 -3.52652563466347 -0.09900198189819
 6 -6.24342807450745 -2.10722867866787  0.16851868726873
 6 -8.62626496599660 -4.83867996639664 -0.82478586168617
 6 -5.35588105100510 -4.32002556595660  0.15965093919392
 8 -5.15070606290629 -5.51537839483948  0.09089503810381
 6 -4.22606710931093 -3.28041548894890  0.56477479907991
 6 -3.58639281608161 -3.77563550625062  1.78446441494149
 8 -3.86009879327933 -3.21544890279028  2.85019837803780
 8 -2.85886123892389 -4.83060167866787  1.70532957045705
 6 -2.17974693169317 -5.37963316921692  2.83624102450245
 6  2.88937525792579 -0.84250253915392 -0.99365288248825
 6  4.15012589778978 -0.49335460336034 -0.26366892969297
 6  5.11091658295830  0.31571809980998 -0.72407528452845
 6  5.00928465406541  1.27962563786379 -1.92240637563756
 6  6.47075335403540  0.26745736173617 -0.00686121052105
 6  7.65688714131413 -0.15089363736374 -0.82179250795080
 6  8.91492920452045 -0.13466528262826 -0.07834393679368
 6  10.29380484108411 -0.42275393859386 -0.95379109910991
 6  10.07290056665667 -1.88718659855986 -1.51516848284828
 6  11.53372803660366 -0.29561445254525 -0.03148111061106
 6  12.81438917441744 -0.31756178967897 -0.87623512861286
 6  14.00308157995799 -0.17587330163016  0.12947935953595
 6  15.34589058005801 -0.08757784138414 -0.51250690319032
 6  15.71047731873187 -1.44475286358636 -1.14831665796580
 6  16.39436642934293  0.47436395369537  0.41010574527453
 6  17.74810239793980  0.55057878747875 -0.22295882288229
 6  18.78374879347935  1.19163724222422  0.69292254895490
 6  20.19034183858386  1.25463489598960  0.32168887488749
 6  20.22367521332133  2.13371067616762 -1.03688838473847
 6  21.15490055705570  1.90496219611961  1.39393333333333
 1 -3.81242160566057  3.79305255665567  1.36497259305931
 1 -10.17678980228023  3.67306958145815 -0.55382990919092
 1 -10.29713413751375 -2.52821835693569 -1.43718153755376
 1 -2.68866615381538 -1.16964716741674  2.20657714841484
 1 -2.23387685398540  1.68620068116812  1.06456010501050
 1 -1.78846193259326  1.13253235963596  3.30407074447445
 1 -3.08207531663166  2.21590081288129  3.33351137333733
 1 -3.33723652415242  0.69539469376938  3.58228991419142
 1 -2.12668778777878 -1.77039771057106 -0.42639064616462
 1 -2.12839920892089  0.05936355615562 -0.86468320292029
 1 -0.56231165986599  0.56499608690869  0.81111497449745
 1 -0.22531095139514 -1.31178194479448  1.22000545884588
 1 -5.63725790349035  6.92573008500850  0.63955378667867
 1 -5.52268373967397  6.04617749914992  2.01451346384638
 1 -4.27887273187319  5.60858512651265  0.94761549414942
 1 -9.26634689448945  6.03518690069007 -0.84004535723572
 1 -9.02051111481148  8.04291401240124 -0.00534075837584
 1 -7.83383131523152  7.54323115951595  1.40156911721172
 1 -12.33512398539854  3.24188333543354 -2.25031086258626
 1 -13.34511180888089  2.10227897029703 -1.19136486468647
 1 -12.24489552225223  3.09740707480748 -0.55270571007101
 1 -12.67106907180718 -1.60279120192019 -0.93637713861386
 1 -13.38364066316632 -0.12406511701170 -1.46783253765377
 1 -13.30774597379738 -1.97828149024903 -3.15397635573557
 1 -12.76476688238824 -0.39541801310131 -3.67106608500850
 1 -11.44354919431943 -1.56506753395340 -3.32046032423242
 1 -8.96483110171017 -4.72822932373237 -1.73735979897990
 1 -8.05653003820382 -5.71119707300730 -0.89768972407241
 1 -9.50458463746375 -4.86692514091409 -0.22354462316232
 1 -3.49528704720472 -3.34233083868387 -0.21266900500050
 1 -1.78235162276228 -4.43912612601260  3.23026474407441
 1 -2.96944338163816 -6.07766729162916  3.41165220292029
 1 -1.20094061456146 -5.96027681248125  2.52612597369737
 1  2.82448050285028 -1.91438806160616 -1.26897834653465
 1  2.53691013231323 -0.18153006820682 -1.82882393989399
 1  4.15688617531753 -1.21059947374738  0.32726412661266
 1  4.01594690619062  1.24848039073907 -2.45235572127213
 1  5.29701663386339  2.33612403630363 -1.66828426682668
 1  5.70575014351435  0.81566275717572 -2.79789604650465
 1  6.73005118901890  1.34453443404340  0.26629624352435
 1  6.30489836193619 -0.33298063476348  0.79560575607561
 1  7.26768889168917 -1.14065473847385 -1.34068882608261
 1  7.49329188768877  0.43213231623162 -1.84756557945795
 1  9.11696774107411  0.82850234773477  0.21260368846885
 1  8.82831595239524 -0.79700805350535  0.81694781818182
 1  10.22208684048405  0.26057220502050 -1.82780793879388
 1  9.36749635873587 -1.78549683318332 -2.12205058695870
 1  10.79766890749075 -2.27373077237724 -2.40779613771377
 1  10.10467266436644 -2.88020213491349 -0.72169956365637
 1  11.38899054065406  0.71311774517452  0.52663043384338
 1  11.56400399589959 -1.10396169376938  0.69537585768577
 1  12.90815876837684 -1.34162158145815 -1.36300857235724
 1  12.87063289318932  0.15472040804080 -1.90997533123312
 1  13.79591101140114  0.82920828412841  0.64415924462446
 1  14.08797710831083 -0.88424480338034  0.98481085508551
 1  15.22917331873187  0.69829322632263 -1.46929819861986
 1  16.23435723252325 -2.13757309850985 -0.24464259975998
 1  14.96876852125212 -1.87234175417542 -1.59182055555556
 1  16.46283456305630 -1.33683458045804 -1.92878939223922
 1  16.04949822332233  1.38501683538354  0.69778569486949
 1  16.60046412421242  0.07172088728873  1.36649514421442
 1  18.28124486218622 -0.49000551455145 -0.50150034563456
 1  17.71699900950095  1.23118201230123 -1.08545428902890
 1  18.51558061496150  2.27553882188219  0.86556850365037
 1  18.78192415491549  0.58098293779378  1.82061530703070
 1  20.63112294459446  0.19112010961096 -0.13812792059206
 1  20.19102592109211  3.30997177367737 -0.63270545524552
 1  21.19006280708071  1.86819796189619 -1.56132411361136
 1  19.47187558515851  1.65197548774877 -1.81044942934293
 1  21.37055090859086  1.44496013691369  2.38174184298430
 1  22.32112000480048  1.97160763146315  0.88500515411541
 1  20.80241031953195  2.76856297349735  1.62953008970897

