%nproc=4
%Mem=3GB
# td=(NStates=1) iop(3/107=0140000000,3/108=0140000000) CAM-B3LYP/6-31G(d,p) 

TD

0 1
12 -7.07810250195020  0.58872725622562  0.04980135013501
 6 -4.83501231773177 -1.90521775237524  0.42772817521752
 6 -4.81191722232223  2.82494121202120  1.10285039023902
 6 -9.34982174667467  3.17685523852385 -0.37333980928093
 6 -9.53106920492049 -1.68878064376438 -0.86016282118212
 7 -5.07935496669667  0.44483057365737  0.62211003500350
 6 -4.36201844914491 -0.67154829802980  0.72796069076908
 6 -2.94720094069407 -0.43003140114011  1.18150381948195
 6 -3.03970719761976  1.01484018561856  1.58171445074507
 6 -4.43781401610161  1.44768942004200  1.14470886478648
 6 -2.81401758255826  1.21746456575658  3.02855817041704
 6 -1.94221995169517 -0.58984497369737 -0.12230842054205
 6 -0.43181889108911 -0.58891213921392  0.41260464276428
 6  0.58490041324132 -0.74483110501050 -0.71460125022502
 8  0.28869908670867 -1.12118589628963 -1.83539093219322
 8  1.79280787918792 -0.50104004240424 -0.19454484208421
 7 -7.10388803220322  2.61008421832183  0.35779670377038
 6 -5.96559670347035  3.41794556195620  0.84422029812981
 6 -6.34140904930493  4.81311817541754  0.71761001970197
 6 -7.61402618791879  4.82079388458846  0.35834196059606
 6 -8.03570309780978  3.41818875767577  0.12026002460246
 6 -5.49243127702770  5.88950842454245  1.13496365156516
 6 -8.46657666566657  6.09820008960896  0.04812542504250
 6 -8.49087749774977  7.22007115681568  0.69298335763576
 7 -9.02517155825583  0.70153714811481 -0.64755132903290
 6 -9.76938442474247  1.84720804510451 -0.61798461196120
 6 -11.15962991569157  1.50332977747775 -1.08557341704170
 6 -11.25063455065506  0.14906245204520 -1.11411143944394
 6 -9.94702230583058 -0.36632682608261 -0.84603680498050
 6 -12.28725966366637  2.53980922232223 -1.13508296099610
 6 -12.47033082598260 -0.65424154795480 -1.60426975757576
 6 -12.37446935583558 -1.07480767306731 -3.12409306050605
 7 -7.32683564596460 -1.37396223192319 -0.09607228232823
 6 -8.32365669196920 -2.25071361686169 -0.59705128502850
 6 -7.91518355815582 -3.64824537593759 -0.48020832063206
 6 -6.58588637913791 -3.50704368646865 -0.18075015671567
 6 -6.21977570927093 -2.19018697449745  0.00349218461846
 6 -8.62339467896790 -4.93873997239724 -0.79008239133913
 6 -5.33879934283428 -4.38279184258426  0.16671164526453
 8 -5.29588058035804 -5.62825968296830  0.20375632423242
 6 -4.19061356395640 -3.34297174457446  0.49418774037404
 6 -3.59154333113311 -3.77952589528953  1.87519348784878
 8 -3.84807759115912 -3.15291264916492  2.93684704290429
 8 -2.76602195499550 -4.70367898639864  1.68948798629863
 6 -2.16089504650465 -5.17272247814781  2.99596699709971
 6  2.84477079747975 -0.77032532143214 -1.19353287048705
 6  4.08005889108911 -0.36394166206621 -0.50816337913791
 6  5.16061155245525  0.37443397139714 -0.87763064006401
 6  5.18395212081208  1.28615629092909 -2.06032016701670
 6  6.39706598529853  0.36965758175818 -0.03942446684668
 6  7.62520397299730  0.00409186118612 -0.84864519321932
 6  8.89608732033203 -0.02508432453245 -0.06899300170017
 6  10.21887734833483 -0.50965262846285 -0.73646936693669
 6  10.05037831443144 -2.05198307820782 -1.13961092709271
 6  11.32962762656265 -0.26226111721172  0.10401243874387
 6  12.74167190269027 -0.59721975547555 -0.67844534963496
 6  14.00537180898090 -0.15375108940894  0.20846725832583
 6  15.32037802880288 -0.21724080768077 -0.50547620012001
 6  15.59257552855286 -1.65708409670967 -0.99629145544554
 6  16.44773176587659  0.22824934223422  0.35022975767577
 6  17.81288887658766  0.66839056865687 -0.26141266826683
 6  18.83084350295029  1.27250532903290  0.77718097479748
 6  20.23159596399640  1.40721015351535  0.19782648864886
 6  20.30650349614962  2.21117842294229 -1.10071476737674
 6  21.17805287228723  1.94120582048205  1.30827476747675
 1 -3.89540990449045  3.59324257565757  1.31456755255526
 1 -10.11259338263826  3.95658793329333 -0.43790831703170
 1 -10.34017844194419 -2.37957349244925 -1.31736955635564
 1 -2.56836412361236 -1.15029523222322  1.93426991769177
 1 -2.38738220452045  1.75137719881988  0.92360600960096
 1 -1.84424751115112  0.67526663306331  3.39308964636464
 1 -2.99235634473447  2.29436865966597  3.42604062626263
 1 -3.56007880838084  0.55549070337034  3.61424310951095
 1 -2.18821394039404 -1.44306497729773 -0.66547455455546
 1 -1.90570693969397  0.28841646144615 -0.79098583318332
 1 -0.29969539823982  0.41867145444544  0.82062592559256
 1  0.05456703640364 -1.26256702330233  1.10907436573657
 1 -5.62029620732073  6.70297780978098  0.38569840114011
 1 -5.65157662896290  6.39424230563056  2.16337835033503
 1 -4.35452029662966  5.76408067606761  1.06416714931493
 1 -9.08538879867987  5.99786316831683 -1.00635198789879
 1 -9.15145420912091  7.90171989298930  0.32310208590859
 1 -7.71595952805281  7.40002683908391  1.64390335063506
 1 -12.26482695569557  3.24492363946395 -1.95237106860686
 1 -13.31414871257126  2.00204894729473 -1.25954168236824
 1 -12.45452648534853  3.15527286138614 -0.35617605710571
 1 -12.63176514141414 -1.42300322312231 -0.97857135803580
 1 -13.31035333443344  0.10996828632863 -1.48999475387539
 1 -13.10806600580058 -1.90906456855686 -3.39969092719272
 1 -12.44158456415641 -0.33309178047805 -3.71588056645665
 1 -11.48955379477948 -1.62725375257526 -3.07929620782078
 1 -9.13025764436444 -4.70387688848885 -1.66051211421142
 1 -7.79927431263126 -5.89732568586859 -1.07295725082508
 1 -9.51655583458346 -5.14240268866887 -0.14207647634764
 1 -3.49791731023102 -3.55381198679868 -0.28994673277328
 1 -1.74205759335934 -4.26577879127913  3.42643436103610
 1 -2.91009744704471 -5.67348687358736  3.77030806850685
 1 -1.30974149464947 -5.93668445324532  2.73401676277628
 1  3.10954900970097 -1.75518214101410 -1.40853230193019
 1  2.59615605690569 -0.13161507670767 -1.96958801630163
 1  4.37115760246025 -1.04511292509251  0.43874527472747
 1  4.27421273277328  1.01808735143514 -2.63220370607061
 1  5.15562249444944  2.37608803270327 -1.74824226262626
 1  6.00615018351835  0.99016020692069 -2.75005126202620
 1  6.40146833073307  1.49632961356136  0.18589820372037
 1  6.24978285038504 -0.04798213491349  1.07780397589759
 1  7.43636575937594 -1.01295196819682 -1.65518027522752
 1  7.70376293479348  0.81195029802980 -1.67961878477848
 1  8.92428847314731  1.24343384088409 -0.03535110701070
 1  8.60073319411941 -0.23732208490849  1.04691081448145
 1  10.37296192799280 -0.06459031123112 -1.77359251725173
 1  8.93699330843084 -2.01480976447645 -1.50166854875488
 1  10.72569170977098 -2.68442184148415 -1.95653101120112
 1  10.02318451555156 -2.66415052975298 -0.25351274497450
 1  11.36316795839584  0.65543197659766  0.56084385518552
 1  11.48726632213221 -0.95696699429943  0.83436975707571
 1  12.64805275777578 -1.66997441674167 -1.22350462196220
 1  12.80113594349435  0.15898083408341 -1.54984931863186
 1  13.73874529482948  0.68265362866287  0.47282211091109
 1  13.95135344594459 -0.72560893979398  1.07869024302430
 1  15.14213461486149  0.43525692269227 -1.54720598939894
 1  15.62523632043204 -2.38629797099710 -0.11269940544054
 1  14.94878652305231 -2.02703722372237 -1.60638201170117
 1  16.55431371097110 -1.51957285428543 -1.71016753005301
 1  16.25410868436844  1.14865319901990  0.96967288358836
 1  16.66866094389439 -0.58013429822982  1.13225171987199
 1  18.33824056175618 -0.26178269226923 -0.69065926152615
 1  17.59320663026303  1.23042193629363 -1.09775551915192
 1  18.45728478537854  2.35540680868087  0.94229617641764
 1  19.03963992649265  0.65260009950995  1.76310955645565
 1  20.65993582588259  0.29023002060206  0.03748964116412
 1  19.86066288478848  3.13087386388639 -0.93319550425043
 1  21.34957875867587  2.52597373947395 -1.25356333753375
 1  19.82227062466247  1.57176746694669 -1.89651803620362
 1  21.13160701420142  1.11744738563856  2.22375604440444
 1  22.21812970577058  2.26316678737874  1.02973962756276
 1  20.77179725822582  2.90482659985999  2.01000813751375

