%nproc=4
%Mem=2GB
# td=(NStates=1) CAM-B3LYP/6-31G(d,p) 

TD

0 1
12 -7.15292586558656  0.52479122722272  0.05478316571657
 6 -4.93407802580258 -1.97735891429143  0.50839737243724
 6 -4.93061299019902  2.77592603990399  1.15772213711371
 6 -9.43223795929593  3.08200369586959 -0.48428128782878
 6 -9.56999731343134 -1.70063557455746 -0.75710213931393
 7 -5.09901332593259  0.41067088518852  0.75711612991299
 6 -4.34275398149815 -0.71967178917892  0.79495751895190
 6 -2.92369137453745 -0.38624805050505  1.21312166636664
 6 -2.99889332773277  1.05206787508751  1.60578130883088
 6 -4.43688068296830  1.47746849564957  1.20452748264827
 6 -2.89983506560656  1.13673596169617  3.18346975587559
 6 -1.91732519351935 -0.66328158955896  0.05711967026703
 6 -0.51673909650965 -0.36388073527353  0.43099722902290
 6  0.42893403060306 -0.78817233013301 -0.54828020852085
 8  0.21607284738474 -1.23007841544154 -1.62520885258526
 8  1.69124093459346 -0.25135253165317 -0.19977676657666
 7 -7.12031247914792  2.57558314811481  0.19657835333533
 6 -6.07057633663366  3.27741871767177  0.72866640024002
 6 -6.42439969306931  4.74267855725573  0.74186487368737
 6 -7.74016672367237  4.85425605710571  0.18795718701870
 6 -8.17848211981198  3.46754594989499 -0.03431088478848
 6 -5.52631058775878  5.90361282718272  1.05482024252425
 6 -8.52166996459646  6.03617465116512  0.01022800820082
 6 -8.39960385168517  7.15210132873287  0.85497174697470
 7 -9.15271754435444  0.68236109720972 -0.57170120382038
 6 -9.90327658735874  1.72312226532653 -0.71815813991399
 6 -11.20942003860386  1.41113945304530 -1.16419813931393
 6 -11.29422182608261  0.04816018011801 -1.19810852485249
 6 -9.94494017471747 -0.37893986828683 -0.92348736483648
 6 -12.35437426112611  2.35982655365537 -1.24913168796880
 6 -12.39992453875388 -0.79390680078008 -1.61138194669467
 6 -12.31718920732073 -1.16621903310331 -3.09983510211021
 7 -7.24869433773377 -1.40898051165117 -0.10541521852185
 6 -8.28858909870987 -2.21343651575157 -0.48568352355236
 6 -7.74463060866087 -3.63041130863086 -0.54075135243524
 6 -6.54959884398440 -3.57925226222622 -0.10446217811781
 6 -6.17520011641164 -2.19662794409441  0.11400420462046
 6 -8.61486895429543 -4.71628447084708 -0.97571605000500
 6 -5.32891736203620 -4.34170805430543  0.28905177777778
 8 -5.19444828272827 -5.55381986538654  0.21448847954795
 6 -4.20838441784178 -3.30782657245725  0.59302916821682
 6 -3.53158378927893 -3.57134235553555  1.99279965286529
 8 -3.70415201580158 -3.05110184638464  3.03745642674267
 8 -2.60486167986799 -4.59672439483948  1.69464804570457
 6 -1.88065865376538 -5.19351358045805  2.83367830333033
 6  2.81068358005801 -0.57044483908391 -1.18394959535954
 6  4.12767485648565 -0.31852002830283 -0.53406355535554
 6  5.06791027542754  0.46462272767277 -0.84169394209421
 6  5.15751417441744  1.41309395869587 -2.11525569086909
 6  6.38289262206221  0.44889673987399 -0.08857534273427
 6  7.59742728062806 -0.03914426132613 -0.93228017851785
 6  8.85722759535954  0.01423629322932 -0.12486429922992
 6  10.18510913541354 -0.35641271297130 -0.90840181068107
 6  10.10324702490249 -1.92082301840184 -1.46756022102210
 6  11.47595047194720 -0.21259504030403 -0.01815094649465
 6  12.84882979067907 -0.56076012711271 -0.66684670757076
 6  13.92050151855186  0.09095789298930  0.01277834533453
 6  15.40461658655866 -0.07632136123612 -0.58281652145215
 6  15.69347101600160 -1.62733036683668 -0.83917353505351
 6  16.35153925982598  0.49701406140614  0.53471797899790
 6  17.74860945034503  0.52594399279928 -0.11969778437844
 6  18.85490586008601  1.10494871187119  0.64436486948695
 6  20.33968263746375  1.04145447894790  0.21743650685068
 6  20.56888824262426  1.93700199739974 -1.03054404710471
 6  21.15091602240224  1.60948388468847  1.34354971837184
 1 -4.23111459595960  3.55461098249825  1.47679226612661
 1 -10.23840423312331  3.91428226322632 -0.92895828732873
 1 -10.21892518191819 -2.58819816061606 -1.12599925212521
 1 -2.38856531343134 -0.80544885878588  2.10623131433143
 1 -2.24997860306031  1.52021560416042  1.18000865126513
 1 -2.06759121662166  0.98816926982698  3.69119283278328
 1 -3.16567162716272  2.25682974047405  3.45882804820482
 1 -3.55136857955796  0.62375705970597  3.72614502730273
 1 -2.06100858575858 -1.66182614301430 -0.19113302250225
 1 -2.33338501100110 -0.01522427202720 -0.79590963056306
 1 -0.51303482088209  0.80999561346135  0.56836723582358
 1 -0.40301810381038 -1.06337085228523  1.38648260346035
 1 -5.68740751615161  6.75531417551755  0.61369707890789
 1 -5.57562455185519  5.98107147024702  2.17449374647465
 1 -4.53591754775478  5.59418058445845  0.94302747834784
 1 -9.49786183868387  6.01182733083308 -0.70938116631663
 1 -9.08249946584658  8.02067280618062  0.81338095989599
 1 -7.83245271107111  7.08788518801880  1.94605299079908
 1 -12.23466757185719  2.96804713071307 -2.21900490519052
 1 -13.56193586278628  1.67997188838884 -1.30300149164917
 1 -12.52504423552355  2.98227688238824 -0.35852709670967
 1 -12.25771054945495 -1.83065251035104 -1.25014996989699
 1 -13.39915863476348 -0.32649938673867 -1.25717124462446
 1 -13.20706705930593 -1.71413609980998 -3.59689957445745
 1 -12.16270983518352 -0.23501803940394 -3.66749024472447
 1 -11.55513179247925 -1.82832769986999 -3.15551417141714
 1 -8.80912051505151 -4.80924166706671 -2.13953721782178
 1 -8.10104946974698 -5.73930393459346 -1.18168778177818
 1 -9.48316820172017 -4.96308132943294 -0.30831265386539
 1 -3.42742343824382 -3.50525377607761 -0.27846311781178
 1 -1.24616278277828 -4.62330877057706  3.38208112341234
 1 -2.57481709030903 -5.40498211581158  3.69051189008901
 1 -1.20546865836584 -5.90529980318032  2.31413536643664
 1  2.47898720282028 -1.52238407430743 -1.58239220422042
 1  2.64690216781678  0.10304458405841 -1.99020217241724
 1  4.30496140174017 -0.97415963116312  0.46006922292229
 1  4.07970693419342  1.59139785018502 -2.54497286698670
 1  5.48401381308131  2.37473773267327 -1.67111357955796
 1  5.85888319591959  1.13564467196720 -2.96133486448645
 1  6.91604366726673  1.34382838283828  0.52114475727573
 1  6.35872999239924 -0.05217325472547  0.85358507520752
 1  7.42230961566157 -1.07080631583158 -1.18273959755976
 1  7.90577301320132  0.42506571467147 -1.96675959955996
 1  9.14724677627763  1.07685557055706  0.04942257445745
 1  8.80771926062606 -0.63256876307631  0.71129899359936
 1  10.22973052445244  0.23743628132813 -1.74371926142614
 1  9.17917290279028 -2.55295327182718 -1.90434635943594
 1  10.96898945464546 -2.23277006090609 -1.88174241814181
 1  10.18785167116712 -2.56035797779778 -0.46483592329233
 1  11.51149883078308  0.85158738893889  0.27050853835384
 1  11.23165621902190 -0.71721768306831  1.06182680428043
 1  12.86711002990299 -1.66150431163116 -0.81707937553755
 1  12.82132588508851  0.01971266226623 -1.66151951325133
 1  13.84493593029303  1.19869242524252  0.09432677567757
 1  14.04301705480548 -0.31532113681368  1.19872638913891
 1  15.44728801730173  0.42133161816182 -1.55914027202720
 1  15.52307975087509 -2.33019331143114  0.13987253335334
 1  14.92772582328233 -1.97104948054806 -1.52619003410341
 1  16.75302493189319 -1.82144766966697 -1.22162363186319
 1  16.10152535323532  1.54918275197520  0.74230077437744
 1  16.27531197839784 -0.08528770387039  1.37501026222622
 1  17.94543548224823 -0.50448699609961 -0.38290163056306
 1  17.69320638513852  1.05955327422742 -1.23690726652665
 1  18.59254004660466  2.24803896159616  0.90721872717272
 1  18.99185634593459  0.70176435743574  1.62667266756676
 1  20.29263417611761 -0.17255110691069  0.01369843384338
 1  20.19124323092309  2.83502706460646 -0.61482507590759
 1  21.59812406450645  1.91604825762576 -1.48907027032703
 1  19.94135804020402  1.59743155395540 -1.98477544654465
 1  20.98678465366537  1.15729383848385  2.35683530073007
 1  22.34497620392039  1.73984521422142  1.14508947524752
 1  20.90786051595160  2.68730881418142  1.45909635013501

