%nproc=4
%Mem=2GB
# td=(NStates=1) CAM-B3LYP/6-31G(d,p) 

TD

0 1
12 -7.16110668366837  0.61575032313231  0.13102078947895
 6 -4.86154077207721 -1.88782996139614  0.56624315701570
 6 -4.94757468636864  2.78273672097210  1.16402276717672
 6 -9.48409314481448  3.15080057555756 -0.46680954065407
 6 -9.50517083078308 -1.71809732073207 -0.93943037213721
 7 -5.05374879947995  0.47729754785479  0.74526494479448
 6 -4.29187889398940 -0.65625544754475  0.86718474167417
 6 -2.94636364176418 -0.31315074077408  1.34137449164916
 6 -3.02986642504250  1.10653332163216  1.80695142584258
 6 -4.38690568546855  1.55394614341434  1.21334836473647
 6 -3.11906698879888  1.22919520762076  3.39126053495350
 6 -1.94433789478948 -0.53320858225823  0.18525248354835
 6 -0.42390981358136 -0.49853420062006  0.66915104440444
 6  0.54568570577058 -0.74063757665767 -0.48578395889589
 8  0.26466770687069 -1.00929633723372 -1.68030436213621
 8  1.82825463596360 -0.56173356975698  0.00743395449545
 7 -7.16446689458946  2.49647523732373  0.31432012751275
 6 -6.08808808780878  3.30860183598360  0.80867440104010
 6 -6.44384163726373  4.72472676207621  0.80928161536154
 6 -7.69922262926293  4.79170980248025  0.19798819011901
 6 -8.13911818341834  3.43970316561656 -0.04835228892889
 6 -5.57249520622062  5.90271273717372  1.12697745824582
 6 -8.44217201480148  5.99622065576558 -0.00336335093509
 6 -8.53078696999700  7.12260837943794  0.76810306010601
 7 -9.14916718931893  0.67252011311131 -0.53073710741074
 6 -9.97102336203620  1.83432338543854 -0.62633895799580
 6 -11.26336543314331  1.38350668976898 -1.08636035553555
 6 -11.27368977287729  0.01103646774677 -1.16171488548855
 6 -9.98769445014501 -0.41616359065907 -0.90398541464146
 6 -12.34133295699570  2.38007857885789 -1.53014978977898
 6 -12.44649919621962 -0.77375478557856 -1.78751956045605
 6 -12.44774226262626 -0.88748115931593 -3.25398051665167
 7 -7.20639010731073 -1.29905951955196 -0.20391506850685
 6 -8.20339057885789 -2.18569374147415 -0.55250020522052
 6 -7.78591473707371 -3.54770303780378 -0.57748502580258
 6 -6.42589647374737 -3.43788812581258 -0.20373210511051
 6 -6.16859945634563 -2.08795707700770  0.09557236143614
 6 -8.70727819521952 -4.74119696209621 -0.96900537893789
 6 -5.28403287358736 -4.29209309280928  0.09254212681268
 8 -5.19083792169217 -5.56257074047405  0.10757778847885
 6 -4.20493407280728 -3.26656244604460  0.57939780508051
 6 -3.58433906480648 -3.78385360666067  1.87532790569057
 8 -3.76607820842084 -3.21544828102810  2.98188086918692
 8 -2.50123131683168 -4.66177089948995  1.63436201710171
 6 -2.06628721662166 -5.14611884098410  2.92107704320432
 6  2.79486199789979 -0.61252904750475 -1.10969216961696
 6  4.13149523852385 -0.47977615391539 -0.53995414441444
 6  5.16106959135914  0.25949221462146 -0.99638941164116
 6  5.05457388038804  1.08651130043004 -2.26369053435344
 6  6.54727906070607  0.32075392559256 -0.21521800700070
 6  7.74070160806081 -0.26983733063306 -0.90520747124712
 6  8.96402827542754 -0.12225735613561 -0.14838665146515
 6  10.12405302980298 -0.59569664136414 -0.89706067656766
 6  10.06234293449345 -2.02538347444744 -1.32967643264326
 6  11.46588946584659 -0.36417019781978  0.12001286988699
 6  12.85171007870787 -0.53303735483548 -0.64891491439144
 6  13.94429389778978 -0.14979618241824  0.26533360086009
 6  15.41082720762076 -0.37136086518652 -0.41533977377738
 6  15.64398606750675 -1.74654228802880 -0.64157377507751
 6  16.52576668256826  0.38163252325233  0.43556806400640
 6  17.82371696109611  0.66534793319332 -0.32121793639364
 6  18.77567793729373  1.32934115111511  0.64670510351035
 6  20.29833850305030  1.51817215071507  0.17206196939694
 6  20.43209456325633  2.16672496969697 -1.33543453615362
 6  21.15252618341834  2.03925686198620  1.16930229362936
 1 -4.33146463096310  3.51883740514051  1.61719630653065
 1 -10.28139853255326  3.96677751275128 -0.70417580908091
 1 -10.29536282568257 -2.40597993879388 -1.34231088328833
 1 -2.61173763066307 -0.74926324022402  2.24158484968497
 1 -2.36274988018802  1.83555713831383  1.74958560896090
 1 -2.30578503600360  0.87806825972597  3.89228294179418
 1 -3.14435949594960  2.28450250775078  3.59586175157516
 1 -4.02210565326533  0.71090577457746  3.68110052285228
 1 -2.13097558245825 -1.66733669406941  0.04271036183618
 1 -2.10476214871487  0.31753900430043 -0.66573661326133
 1  0.01935841844184  0.40731534543454  1.21361176027603
 1 -0.06200400240024 -1.37461197639764  1.50013396859686
 1 -6.01771054645465  6.83821246534653  0.74624033323332
 1 -5.37819480888089  6.14576793989399  2.16570286738674
 1 -4.50336429242924  5.77727889428943  0.89855303090309
 1 -9.13373542604261  6.00648679677968 -0.88172840104010
 1 -9.06900811671167  7.96440717961796  0.48789841164116
 1 -7.89418888468847  7.10762716221622  1.68604699019902
 1 -12.15287939303930  2.90890121612161 -2.62605561026103
 1 -13.14538420762076  1.96512040324032 -1.76197738923892
 1 -12.45252698379838  3.18437709240924 -0.58982022602260
 1 -12.55514029242924 -1.87694713981398 -1.38136309120912
 1 -13.26289500840084 -0.21142787958796 -1.44433996149615
 1 -13.41984833743374 -1.31133581978198 -3.41344122862286
 1 -12.38658222242224 -0.05593013061306 -3.90479397509751
 1 -11.54414069336934 -1.80796566366637 -3.46628524852485
 1 -9.31669127212721 -4.78405914881488 -1.90953421752175
 1 -8.21631099589959 -5.61684168836884 -0.94004361736174
 1 -9.60699058395840 -5.03983900520052 -0.32522434503450
 1 -3.18647934383438 -3.35527877857786 -0.04717998949895
 1 -1.38077624412441 -4.29445588528853  3.34029694499450
 1 -2.80909051765176 -5.38494011161116  3.51890472937294
 1 -1.46122423392339 -5.83400267346735  2.61501545444544
 1  2.56012531663166 -1.64924676057606 -1.57525149014901
 1  2.54294177177718  0.05047932753275 -1.92990614281428
 1  3.99224012961296 -1.05712792799280  0.30199341534153
 1  3.92111107460746  1.05745445584558 -2.70331870157016
 1  5.13177858955896  2.17003726262626 -2.18411487968797
 1  5.69456676427643  0.89718082558256 -2.96164489548955
 1  6.67782984588459  1.50342434243424 -0.12410976817682
 1  6.53692781218122 -0.23631166856686  0.66019573627363
 1  7.34153153785379 -1.23786302150215 -1.23972529612961
 1  7.94884732063206  0.35593880198020 -1.95619854345435
 1  8.99783183478348  0.99795768076808  0.03311094329433
 1  8.96329481818182 -0.71338684488449  0.65465332903290
 1  10.46678422982298 -0.02799026132613 -1.65027991749175
 1  9.41757674317432 -2.01682965946595 -2.44682060686069
 1  10.94368692439244 -2.65662244614461 -1.60808505240524
 1  9.65248813481348 -2.44463640564056 -0.23461290099010
 1  11.46606428732873  0.52796502670267  0.58286977447745
 1  11.41993504690469 -1.11453741504150  0.87749837143714
 1  12.88903222212221 -1.56191435263526 -0.98470613821382
 1  12.89985373787379  0.09038972997300 -1.65519888118812
 1  13.82194363106311  1.16426898289829  0.45603294629463
 1  14.09525227832783 -0.59206881158116  1.31189770627063
 1  15.49325261376137  0.31071055605561 -1.19540389838984
 1  15.65471291419142 -2.26421671377138  0.25096364246425
 1  14.76610966166617 -2.04384676027603 -1.25037245234523
 1  16.49988961836184 -1.94312983788379 -1.39172064156416
 1  16.09066426712671  1.25885371907191  0.93939048334833
 1  16.84513896109611 -0.45661483658366  1.33849661086109
 1  18.25609654835484 -0.30407695509551 -0.75988932933293
 1  17.53630069456946  1.07434475337534 -1.12567614341434
 1  18.24788558115812  2.15512967066707  0.95014301960196
 1  18.80154731503151  0.74018819981998  1.66479647994800
 1  20.61297621032103  0.63181933013301 -0.14217715371537
 1  20.24984909150915  3.35403896579658 -1.20867446084608
 1  21.48165241734173  1.92350900370037 -1.99709107240724
 1  19.58542244664467  1.86890870167017 -1.97904487348735
 1  21.59691566676668  1.31860997009701  2.07488710591059
 1  22.05866757305730  2.41479270897090  0.57724269056906
 1  20.70451018091809  3.12252233553355  1.54790523102310

