%nproc=4
%Mem=2GB
# td=(NStates=1) CAM-B3LYP/6-31G(d,p) 

TD

0 1
12 -7.18975954895490  0.59946869496950  0.03330101750175
 6 -4.91144576257626 -1.99345052345235  0.55501203390339
 6 -4.80666059495950  2.86383483078308  1.18423478837884
 6 -9.43357809330933  3.11435693119312 -0.35361822152215
 6 -9.41131144484448 -1.72967847884788 -0.84324075317532
 7 -5.07757118171817  0.40622044014401  0.84578499679968
 6 -4.31521122722272 -0.70760058205821  0.82713073627363
 6 -2.89696870227023 -0.40444987068707  1.33658401260126
 6 -3.02461589999000  1.08868153645365  1.56160689138914
 6 -4.47634462936294  1.50230097889789  1.15897292719272
 6 -2.93639872197220  1.31241352945295  3.08373978287829
 6 -1.95663912491249 -0.67323258465847  0.09434339263926
 6 -0.46888431103110 -0.54480882808281  0.50531466076608
 6  0.52341347854785 -0.73685719861986 -0.57294267476748
 8  0.27985922602260 -0.99967537513751 -1.71932826452645
 8  1.86015782628263 -0.54015141154115 -0.19447623652365
 7 -7.16229667756776  2.61493708350835  0.37501619711971
 6 -6.04440371937194  3.40468144394439  0.67251078467847
 6 -6.37686493959396  4.78002229162916  0.84907559475948
 6 -7.77039974697470  4.79367999949995  0.36281467276728
 6 -8.21720599219922  3.53352254755476  0.13455600190019
 6 -5.41963992069207  5.81955442134213  1.18202296279628
 6 -8.55963376097610  6.02554358805881  0.22537952335234
 6 -8.48697258855886  7.18193431203120  0.94342059185919
 7 -9.14015628822882  0.70083294439444 -0.57714174787479
 6 -9.89664592429243  1.83281323442344 -0.71296762086209
 6 -11.26279537613761  1.52588092719272 -1.17509922942294
 6 -11.18246064996500  0.11424678877888 -1.38660737473747
 6 -9.91561724242424 -0.35799777407741 -0.96398141424142
 6 -12.34536336003600  2.50299087008701 -1.55897267206721
 6 -12.38516306260626 -0.70950836093609 -1.72865367386739
 6 -12.46980446884688 -1.02020443164316 -3.25549066766677
 7 -7.25390485878588 -1.44280389398940 -0.17505218221822
 6 -8.26368660846085 -2.17443261536154 -0.52990794599460
 6 -7.82365851145114 -3.68829709720972 -0.55492276957696
 6 -6.52168605270527 -3.56224056105611 -0.05444717661766
 6 -6.21544414081408 -2.14592287358736  0.15809861406141
 6 -8.84665213261326 -4.81346418881888 -0.70103858225823
 6 -5.26660113041304 -4.36118000150015  0.17176004860486
 8 -5.15537437533753 -5.52947743114311  0.13510054075408
 6 -4.15436901630163 -3.29779556935694  0.60213007830783
 6 -3.51225185608561 -3.67016223752375  1.90442081498150
 8 -3.78481008160816 -3.18589532573257  2.96716939803980
 8 -2.74423561726173 -4.74206892929293  1.69704828572857
 6 -2.21088167606761 -5.28809303840384  3.08813374887489
 6  2.90692320402040 -0.66074386898690 -1.34294549494949
 6  4.09736182518252 -0.51098927522752 -0.62487263626363
 6  5.08603208760876  0.27548381378138 -1.05629540224022
 6  5.23025144814481  1.06412906220622 -2.29204336963696
 6  6.51085541834183  0.32431428162816 -0.25724220942094
 6  7.71626916481648 -0.25680602750275 -0.95488243874387
 6  8.98143001560156 -0.08071320172017 -0.28317012981298
 6  10.25891651615161 -0.63118018971897 -0.87034800530053
 6  10.06288298849885 -2.16012694879488 -1.02502596759676
 6  11.51005388228823 -0.33556733753375 -0.06062519391939
 6  12.92228713641364 -0.55880993209321 -0.77406742964296
 6  13.98637810621062 -0.17398860166017  0.29669673717372
 6  15.38258438333833 -0.20428415751575 -0.30308854865487
 6  15.73226489538954 -1.64001163496350 -0.82975259295930
 6  16.40162426832683  0.49330369036904  0.56260076727673
 6  17.72116670607060  0.61622302070207 -0.17796361096110
 6  18.74192456195620  1.50985920292029  0.75194562756276
 6  20.28267693689369  1.46652698619862  0.14437920112011
 6  20.23357471127113  2.16605490269027 -1.23477447014701
 6  21.27957888868887  2.07086002230223  1.19238460186019
 1 -4.12669415391539  3.51941746314631  1.62177676457646
 1 -10.35075546824682  3.91664249924992 -0.38227361886189
 1 -10.24696798619862 -2.38599794059406 -1.20209686188619
 1 -2.61676813371337 -1.00335864976498  2.16750744194419
 1 -2.20283388858886  1.76363994659466  1.18196884728473
 1 -2.13117757525753  0.95924637753775  3.54350806430643
 1 -2.84461952195220  2.40475453295330  3.23755592099210
 1 -3.92241568426843  0.84023870787079  3.63287570037004
 1 -2.07631011591159 -1.65481544194419 -0.23143705290529
 1 -2.08186985948595  0.11003825422542 -0.38184822442244
 1 -0.38779229662966  0.28612322622262  0.84448484758476
 1 -0.34643244524452 -1.22136665186519  1.47707166236624
 1 -5.80677945334533  6.90981962606261  0.90487619681968
 1 -5.50156714611461  5.84567793089309  2.17378367546755
 1 -4.56018997499750  5.45908707510751  0.66695987158716
 1 -9.34412646514651  6.05751189928993 -0.54691491969197
 1 -9.12226344224422  8.05015575447545  0.82947256905690
 1 -7.71571103690369  7.49831623112311  1.76472485798580
 1 -11.98386249134914  3.30816114211421 -2.17012001670167
 1 -13.25604527372737  1.89933382458246 -1.99087027852785
 1 -12.70322205330533  3.04804345904590 -0.73842508650865
 1 -12.20822560096010 -1.77625707080708 -1.22540749564956
 1 -13.29596831573157 -0.34270100690069 -1.39781530903090
 1 -13.32273862646265 -1.72448713491349 -3.73657354185419
 1 -12.75847941214121 -0.12519705730573 -3.65192868856886
 1 -11.37802408170817 -1.26953182028203 -3.70364898489849
 1 -9.07063666666667 -4.57087783068307 -1.63984724882488
 1 -8.34093345814581 -5.78328833303330 -0.56015562856286
 1 -9.76276616151615 -4.59357437873787 -0.10793261586159
 1 -3.36336703260326 -3.28307155785579 -0.07754302580258
 1 -1.75050321682168 -4.10728716841684  3.22992590789079
 1 -3.04941455005501 -5.26713833143314  3.75225806470647
 1 -1.67292540404040 -6.16008528172817  2.88682263516352
 1  2.91582088618862 -1.83088492439244 -1.77535150015001
 1  2.75137261486149 -0.04925064546455 -2.03207635983598
 1  4.37201810741074 -1.19544175937594  0.00870408640864
 1  4.16315527902790  1.18600731113111 -2.74390275997600
 1  5.56892230393039  2.17860811971197 -2.17609407760776
 1  5.93380068766877  0.69246035353535 -2.94878360936094
 1  6.73753581648165  1.28075207520752  0.07619026182618
 1  6.28434255365537 -0.34737277467747  0.63200291699170
 1  7.53425080978098 -1.34857409260926 -1.00387171077108
 1  7.71923435933593  0.14610781888189 -1.97549047264726
 1  9.15712776437644  1.17739562456246  0.06685431763176
 1  8.87275576427643 -0.53134864106411  0.74813267696770
 1  10.52468001940194 -0.28133559585959 -1.91732662216222
 1  9.28011299679968 -2.38397637413741 -1.70508643344334
 1  10.95659821552155 -2.75216200010001 -1.46727097099710
 1  9.91384427042704 -2.81801374337434  0.01568212851285
 1  11.41634931583158  0.74400663086309  0.24466595409541
 1  11.58380143354336 -0.90987694899490  0.88311893349335
 1  13.10759407830783 -1.67099526072607 -1.01356902450245
 1  12.89146289878988  0.37885857685769 -1.69773313461346
 1  13.72931436813681  0.90499305530553  0.47035437843784
 1  13.93317607070707 -0.74149375407541  1.06825334183418
 1  15.41070435893589  0.22801228622862 -1.12706706470647
 1  15.70590803370337 -2.27801809390939 -0.02426388028803
 1  14.96427947864787 -1.73060543614361 -1.56032344744474
 1  16.73000262966297 -1.73480900580058 -1.23369483898390
 1  16.10032523322332  1.54966279998000  0.81598814311431
 1  16.51353580078008  0.04219504440444  1.60789355055506
 1  18.13182412111211 -0.30151669906991 -0.01339467986799
 1  17.52615968046805  0.88776609550955 -1.20339391519152
 1  18.40835162776278  2.65139929762976  1.04645265056506
 1  18.56658381868187  1.03783796479648  1.77435743604360
 1  20.26365127782778  0.33391954015402 -0.03155609160916
 1  20.10044415101510  3.28036159805981 -1.10730432383238
 1  21.28613286538654  2.24593124592459 -1.44910627392739
 1  19.62434633903391  1.70897270807081 -2.07837480648065
 1  21.31612758795880  1.35827393649365  1.92718233543354
 1  22.25046675297530  2.11221245094510  0.73038800510051
 1  21.00544027392739  2.97109719301930  1.62253269376938

