%nproc=4
%Mem=2GB
# td=(NStates=1) CAM-B3LYP/6-31G(d,p) 

TD

0 1
12 -7.24136470947095  0.61777052515252  0.02917060446045
 6 -4.82706732473247 -1.84217539593959  0.48713524622462
 6 -4.80496042494249  2.94634308160816  1.13623998889889
 6 -9.36636137163716  3.04128962446245 -0.37508036773677
 6 -9.49306962066207 -1.76251176217622 -0.86306273537354
 7 -5.07187061166117  0.53077289538954  0.77601802010201
 6 -4.33901360746075 -0.61528135013501  0.82051007420742
 6 -2.89285829122912 -0.28019744544454  1.21336169036904
 6 -2.98952239063906  1.13609627792779  1.64461519221922
 6 -4.39177617251725  1.58721947074708  1.11479850975097
 6 -2.92503758585859  1.35365765386539  3.14444585348535
 6 -1.97129059005901 -0.44095935733573 -0.03451949364936
 6 -0.49597702030203 -0.45778012521252  0.56687081638164
 6  0.52804394159416 -0.82409592249225 -0.67609298979898
 8  0.24678591869187 -1.18678408600860 -1.78200453215322
 8  1.85401721222122 -0.60290768716872 -0.25461225012501
 7 -7.13482393029303  2.68066365616562  0.36618531403140
 6 -6.05214449344935  3.38844982078208  0.70785431903190
 6 -6.45233248634863  4.78805309470947  0.58824951215122
 6 -7.81629433643364  4.83899453095310  0.28016640794079
 6 -8.17692196379638  3.46248544384438  0.08914146044604
 6 -5.59835779247925  5.98198066396640  0.94918967946795
 6 -8.55262305990599  5.99250028372837  0.20060704610461
 6 -8.50846473777378  7.09083520212021  1.04744099389939
 7 -9.17937020962096  0.63509637073707 -0.39619365306531
 6 -9.86145240494049  1.69833978707871 -0.60937726182618
 6 -11.20654975157516  1.39658799789979 -1.06037775727573
 6 -11.31060346424642  0.01992735683568 -1.33857257125713
 6 -10.02196787748775 -0.44256623092309 -0.83049806590659
 6 -12.29970879457946  2.40779135013501 -1.25880265506551
 6 -12.41061560786079 -0.92203961406141 -1.77966877537754
 6 -12.26135362376238 -1.19923233443344 -3.28277339593959
 7 -7.14617408570857 -1.34457407100710 -0.31558623562356
 6 -8.21520175997600 -2.21141631373137 -0.60773572877288
 6 -7.76656280188019 -3.66518478597860 -0.41613889118912
 6 -6.39829371347135 -3.48518285528553 -0.11500323222322
 6 -6.09619221562156 -2.18381666296630 -0.04201139693969
 6 -8.66939440684068 -4.93451629402940 -0.67562604100410
 6 -5.22317678797880 -4.27292117561756  0.14835770837084
 8 -5.12878171607161 -5.52958744214421  0.18360539123912
 6 -4.06887046644664 -3.13274906470647  0.49323918921892
 6 -3.53348397929793 -3.58800402170217  1.93114348724872
 8 -3.65321692229223 -2.98211494769477  2.97003968506851
 8 -2.83562475617562 -4.63738846124612  1.72623120402040
 6 -2.24773536143614 -5.18041227032703  2.98099303480348
 6  2.83617612931293 -0.89333712831283 -1.24299549995000
 6  4.11306339533953 -0.69280745704570 -0.50004015301530
 6  5.09275275967597  0.29560582598260 -0.85408518121812
 6  4.93425184818482  1.25204785408541 -1.90236440174017
 6  6.44258859165917  0.36375822602260 -0.02824931013101
 6  7.70193773167317 -0.15773612051205 -0.94631158165817
 6  8.98652052465247 -0.04863999439944 -0.19215102790279
 6  10.18708933343334 -0.49604667636764 -0.90078104860486
 6  10.27647434763476 -2.03192412851285 -1.41785525052505
 6  11.45806868376838 -0.16912069286929  0.01222209080908
 6  12.83881878957896 -0.44836888798880 -0.64816483938394
 6  14.02545201360136  0.11664046124612  0.16526359385939
 6  15.33713983888389 -0.03342707180718 -0.56096433623362
 6  15.44376604550455 -1.63989162296230 -1.03504312201220
 6  16.45685979187919  0.37007136713671  0.39229373657366
 6  17.87429201860186  0.48584998339834 -0.24622043664366
 6  18.83746411591159  1.05406362336234  0.75141557455746
 6  20.31338000720072  1.24823515701570  0.24378914211421
 6  20.28185953975398  2.16524482168217 -0.99055004770477
 6  21.08707963876388  1.78281121742174  1.37808317171717
 1 -3.97163864836484  3.73325884728473  1.41556614351435
 1 -9.95245563826383  3.77544837983798 -0.48716410791079
 1 -10.35725901530153 -2.43550289108911 -1.08428508070807
 1 -2.60908736563656 -0.89468778267827  2.04022471367137
 1 -2.12557616281628  1.74425800840084  1.35247589798980
 1 -2.04089854735474  1.09069952285229  3.51874558805881
 1 -2.98296335633563  2.45411946944695  3.64740690609061
 1 -3.79719316201620  0.70647533153315  3.64201661446145
 1 -2.25211769666967 -1.27762772317232 -0.65096900610061
 1 -1.96446811931193  0.44939218961896 -0.70478051765177
 1 -0.19253277067707  0.49175378927893  0.85064546364636
 1 -0.41973977597760 -1.24951946714671  1.22064601980198
 1 -6.10482925832583  7.05330397449745  0.62416812601260
 1 -5.63645063446345  5.74232759585959  2.09602589968997
 1 -4.64017797379738  5.80803196959696  0.55373854945495
 1 -9.31097314981498  5.92833898199820 -0.36693692189219
 1 -9.23301451735174  7.86836757565757  0.78365798759876
 1 -7.66535600140014  6.95641204070407  1.79713809930993
 1 -12.02944704980498  3.13184351035104 -2.07843084778478
 1 -13.27687735693569  1.95474936613661 -1.60964215571557
 1 -12.58051978307831  2.78015667036704 -0.24742598659866
 1 -12.49110388878888 -1.90825027012701 -1.26725168006801
 1 -13.44358307720772 -0.39026576337634 -1.77784331183118
 1 -13.19209556215622 -1.61454614081408 -3.73742362686269
 1 -12.40029359355936 -0.25974051165117 -3.77617111281128
 1 -11.26159243854386 -1.77258212531253 -3.48419703970397
 1 -9.08181778477848 -4.78084882778278 -1.72656592069207
 1 -8.29063842864286 -5.92037204140414 -0.42030164316432
 1 -9.47491737663766 -4.86265128642864  0.03288146554655
 1 -3.31940263616362 -3.27969121982198 -0.25924119561956
 1 -1.81182934943494 -4.26283272297230  3.50487340264026
 1 -3.08682829142914 -5.69193081068107  3.60225306420642
 1 -1.75566367786779 -6.12100137333733  2.84985893879388
 1  2.68750805490549 -1.93155499139914 -1.47891185618562
 1  2.81329880748075 -0.16922264266427 -2.27785093729373
 1  4.19119002460246 -1.31567378257826  0.55987920392039
 1  3.96544550805080  1.19344805520552 -2.38159652935294
 1  5.24220963266327  2.23766402530253 -1.50564703290329
 1  5.52614992259226  0.84747585508551 -2.70020875187519
 1  6.83029509240924  1.34783878387839  0.32395503830383
 1  6.38086220562056 -0.28597663506351  0.98634835153515
 1  7.41009839453945 -1.35200443564356 -1.12431375497550
 1  7.80223265916592  0.26718992709271 -2.02787571117112
 1  9.01210326192619  1.04566245124512  0.12258989118912
 1  8.93634212291229 -0.55367087328733  0.88487635133513
 1  10.32379993139314  0.12642518021802 -1.93788867836784
 1  9.55821080658066 -2.27725570207021 -2.15995191999200
 1  11.28164071977198 -2.23860064396440 -1.73629787368737
 1  10.00314320032003 -2.58738068006801 -0.54071351105111
 1  11.32547022792279  0.88288051825183  0.03431491899190
 1  11.47391044444444 -0.63481944324432  0.92634325592559
 1  12.96770008890889 -1.59044720592059 -0.82135980358036
 1  12.72511626412641  0.22247293829383 -1.51336469776978
 1  13.93739517621762  1.07818037403740  0.24466180918092
 1  13.99178193129313 -0.45243484818482  1.11384790129013
 1  15.22783607210721  0.58646813181318 -1.46081043904390
 1  15.13141058395840 -2.32460275237524 -0.10828228212821
 1  14.65777882858286 -1.94120649624962 -2.02921033613361
 1  16.61851148054805 -1.80601612651265 -1.25889735923592
 1  16.37451265196519  1.45561339503950  0.81946849114912
 1  16.51788623582358 -0.29717889298930  1.17137989918992
 1  18.30456139483949 -0.52812936033603 -0.34011735213521
 1  17.71307837233724  1.00618793769377 -1.07642121792179
 1  18.54469526212621  2.08024218191819  1.29474748004800
 1  18.81861902220222  0.10445462646265  1.66934693499350
 1  20.64468938163817  0.30578672687269 -0.04250718671867
 1  19.68050215681568  3.10544410631063 -0.55899949334933
 1  21.13833808590859  2.24788144094409 -1.47066843014301
 1  19.59316322072208  1.89361117191719 -1.87046401540154
 1  20.87277325252525  1.10123823292329  2.04581419861986
 1  22.22768447474747  2.00393162286229  1.20780574687469
 1  20.90080981088109  2.82756283958396  1.52662310281028

