%nproc=4
%Mem=3GB
# td=(NStates=1) iop(3/107=0140000000,3/108=0140000000) CAM-B3LYP/6-31G(d,p) 

TD

0 1
12 -7.23487817951795  0.57189557305731  0.15166153615362
 6 -4.95660447694770 -1.97418464906491  0.52594799719972
 6 -4.73862989358936  2.76134485238524  1.27736784198420
 6 -9.40433719821982  3.09655720872087 -0.39222169746975
 6 -9.57855395339534 -1.75614738043804 -0.90377718261826
 7 -5.21108814001400  0.36845293589359  0.92088991299130
 6 -4.34563681098110 -0.75519666286629  0.90349824452445
 6 -2.85993221382138 -0.45239363736374  1.37051272037204
 6 -2.99898312521252  0.99766846844684  1.74231051035104
 6 -4.39643987868787  1.50947559865987  1.21263565746575
 6 -2.83968014881488  1.21044386368637  3.29243455805581
 6 -2.01938766846685 -0.69374536373637  0.15237904820482
 6 -0.51975768496850 -0.42996624462446  0.55828921122112
 6  0.49045096829683 -0.60227684958496 -0.61137092719272
 8  0.32962317911791 -0.81795557325733 -1.80212760586059
 8  1.74199279767977 -0.51483142154215 -0.06868225582558
 7 -7.07123476687669  2.64461767166717  0.32995391949195
 6 -5.99390953475348  3.36416018341834  0.89177505360536
 6 -6.30458536693669  4.76410327392739  0.75318357705771
 6 -7.62236702200220  4.92558436363636  0.37315344174417
 6 -8.02383191069107  3.53516045484548  0.00977897649765
 6 -5.29021105500550  5.85061453515352  1.25530568576858
 6 -8.46831683968397  6.05688595819582  0.05090570307031
 6 -8.37911632163216  7.35764491419142  0.49176323562356
 7 -9.09196823792379  0.70032702710271 -0.51734830873087
 6 -9.86396388268827  1.79204252855286 -0.57510032353235
 6 -11.22231618431843  1.52438188268827 -1.09255411511151
 6 -11.18374786198620  0.20408795459546 -1.38071810011001
 6 -9.90791839543954 -0.34228442184218 -0.86774897619762
 6 -12.22942388008801  2.58626386778678 -1.47310676337634
 6 -12.37480127302730 -0.72672879667967 -1.92364169476948
 6 -11.99899180808081 -1.15476566886689 -3.47058770997100
 7 -7.34657762016202 -1.41561639733973 -0.07031970707071
 6 -8.31522584888489 -2.18568711421142 -0.56525810571057
 6 -7.95072711251125 -3.65883643504350 -0.53897419721972
 6 -6.57732552305231 -3.55570855295530 -0.07215929762976
 6 -6.25513924562456 -2.17156511231123  0.14940677607761
 6 -8.68343068256826 -4.84036013441344 -0.98102148524852
 6 -5.46391185408541 -4.44894845824582  0.12682765686569
 8 -5.38116910921092 -5.67808466546655  0.16022197079708
 6 -4.25040954355436 -3.46809425682568  0.46293461506151
 6 -3.61210538733873 -3.67567551025103  1.80346631513151
 8 -3.74223700710071 -3.18840619851985  2.94784814301430
 8 -2.74968032083208 -4.74956357485749  1.74425346284628
 6 -2.18626758375838 -5.16150135603560  3.00625802620262
 6  2.73366968736874 -0.61002929182918 -1.11185470267027
 6  4.11997288248825 -0.49113438133813 -0.48415097789779
 6  5.18500399169917  0.32167869586959 -0.86737961496150
 6  5.19303302890289  1.24889256455646 -2.06718085308531
 6  6.42524880358036  0.47991860786079 -0.15883640804080
 6  7.60454190679068 -0.05515406340634 -0.96691702040204
 6  8.95310302190219 -0.09013082918292 -0.13445954835484
 6  10.20821628222822 -0.66047771097110 -0.80888660866087
 6  10.10011328792879 -2.09039691959196 -1.14944191019102
 6  11.51949661346135 -0.30885577667767 -0.04435239773977
 6  12.74421215671567 -0.50523055655566 -0.67736524162416
 6  14.00751202300230 -0.16239195349535  0.18434484608461
 6  15.40019601060106 -0.28292737633763 -0.54071972447245
 6  15.68774504550455 -1.76880526882688 -0.95239706600660
 6  16.45785277797780  0.31423794109411  0.37671240594059
 6  17.87329491719172  0.60365409500950 -0.22137866486649
 6  18.78765918451845  1.30661874037404  0.70832408910891
 6  20.18302110651065  1.40125955845585  0.07707441344134
 6  20.17295014081408  2.30624792989299 -1.18166286218622
 6  21.05208027502750  2.01624332423242  1.20055399539954
 1 -3.78054841834183  3.52623587498750  1.34896099189919
 1 -10.15597772107211  3.97041931643164 -0.84902942914291
 1 -10.36554097819782 -2.37982351745175 -1.21582940234023
 1 -2.50852814001400 -1.19643984668467  2.16307279797980
 1 -2.28635210151015  1.59651171227123  1.13481713071307
 1 -1.81097418381838  0.77310641704170  3.46096643404340
 1 -2.97570467956796  2.24523374617462  3.48766678887889
 1 -3.68558135863586  0.70670582488249  3.84040572577258
 1 -2.12750786978698 -1.55763643444344 -0.43281128822882
 1 -2.20510687968797  0.04246186598660 -0.71504823942394
 1 -0.14619004770477  0.49033862116212  1.06385024802480
 1 -0.31428984928493 -1.33840460706071  1.11968542684268
 1 -5.51954613231323  6.76279379137914  0.86122595389539
 1 -5.48014948624862  6.10837371877188  2.40719273177318
 1 -4.42966781138114  5.34508877687769  0.98197893049305
 1 -9.16844710451045  5.84795817781778 -0.72415376807681
 1 -8.99573863756376  8.18918863986399  0.07754753045304
 1 -7.90597852995300  7.77074391079108  1.33759271957196
 1 -12.04110458345835  3.45177432453245 -2.27611344284428
 1 -13.13774107180718  2.07147588998900 -1.83781951015101
 1 -12.32795382808281  3.24781211531153 -0.54089452895290
 1 -12.57367933283328 -1.62318324112411 -1.33982748364836
 1 -13.29073137223723 -0.09858256875688 -1.78198395279528
 1 -12.95861106030603 -1.69125278737874 -3.66220717881788
 1 -11.78434884058406 -0.21802027332733 -4.12562154055406
 1 -11.14902974237424 -1.77409843704370 -3.29908818701870
 1 -9.00864548314831 -4.65783228402840 -2.12414847784778
 1 -7.93839822502250 -5.73752970627063 -0.90235019011901
 1 -9.60947512651265 -4.90293874227423 -0.35965823452345
 1 -3.51568908740874 -3.72274888048805 -0.25686342444244
 1 -1.76765015261526 -4.29072128552855  3.47749946754675
 1 -2.85331176847685 -5.57354687958796  3.71809284698470
 1 -1.58366888738874 -6.01039182398240  2.79819318041804
 1  2.97012506730673 -1.59082570537054 -1.49616106480648
 1  2.45924236553655  0.09978806360636 -2.07328838633863
 1  4.27477796449645 -1.24411282508251  0.45135653585359
 1  4.35678098959896  1.50776631933193 -2.54800528622862
 1  5.54655158735874  2.48103852775278 -1.82708014641464
 1  5.91812138063806  0.74196538743874 -2.73654991189119
 1  6.60454863876388  1.52148212881288  0.16649626352635
 1  6.33817168926893 -0.26389372607261  0.76146234173417
 1  7.21857398019802 -0.98087876087609 -1.52065682288229
 1  7.60836339483948  0.70778988198820 -1.84607543044304
 1  9.22270831513151  1.02528202570257  0.03629605770577
 1  8.52681580238024 -0.48174652735274  0.94178030143014
 1  10.26706133793379 -0.19470332253225 -1.83598875687569
 1  9.09523913301330 -2.37663594709471 -1.63191157305731
 1  11.01816095669567 -2.45264866416642 -1.63233859195920
 1  10.20171236833683 -2.49618373307331 -0.21365875957596
 1  11.37211885348535  0.85635206860686  0.25535330613061
 1  11.39661725722572 -0.87661895949595  0.83227954805481
 1  12.88658661116112 -1.55481290059006 -1.01942421392139
 1  12.80304613451345  0.02602753875388 -1.54185851955196
 1  13.93646506680668  0.94531989528953  0.56840166886689
 1  14.11875018561856 -0.60892727162716  1.12916529052905
 1  15.50019042044204  0.37438083508351 -1.35411668046805
 1  15.58320211701170 -2.40648999019902 -0.12341047654765
 1  14.89220086448645 -2.22734725472547 -1.76015738923892
 1  16.70034831443144 -2.02515341234123 -1.47847436073607
 1  16.22105537903790  1.24322265596560  0.97204312061206
 1  16.71774585238524 -0.57342362716272  1.10646914161416
 1  18.35977271497150 -0.31718823282328 -0.56355655125513
 1  17.82070938053806  1.20399929402940 -1.09868561216122
 1  18.25870492739274  2.37840910891089  1.08166011281128
 1  18.86225218771877  0.83476831633163  1.60625387088709
 1  20.55788562086209  0.40636163376338 -0.15329943774377
 1  19.90239705820582  3.18246902340234 -0.95331751645165
 1  21.10721452225222  2.42386352845284 -1.61449943114311
 1  19.45727412501250  2.12910320052005 -1.95490387478748
 1  21.34910876437644  1.25150079097910  2.03056672547255
 1  22.22944083688369  2.45145561626163  0.75249190279028
 1  20.61416149464947  2.93712983018302  1.49124626132613

