%nproc=4
%Mem=2GB
# td=(NStates=1) CAM-B3LYP/6-31G(d,p) 

TD

0 1
<<<<<<< HEAD
12 -7.12095266826683  0.60752950105011  0.07118480588059
 6 -4.84525914391439 -1.99754093249325  0.47719425212521
 6 -4.81617154605461  2.75342378967897  1.15974233913391
 6 -9.41768650415042  3.15025052055206 -0.48131099079908
 6 -9.54702501620162 -1.65967147814782 -0.90425685478548
 7 -5.10624404900490  0.39975979407941  0.74416483478348
 6 -4.35011471757176 -0.71716153815382  0.79946796999700
 6 -2.91359036443644 -0.39360878657866  1.31026138033803
 6 -3.05270870927093  1.06661933023302  1.75290602130213
 6 -4.38793578847885  1.42148289708971  1.15593262316232
 6 -3.02726780888089  1.30508279637964  3.34161557045705
 6 -1.90892435343534 -0.64058932033203  0.16978093639364
 6 -0.47194461706171 -0.59465381258126  0.67905203450345
 6  0.54596573377338 -0.76346985988599 -0.49833521402140
 8  0.26110735083508 -1.08458386598660 -1.56772310401040
 8  1.77064887538754 -0.36146354275428 -0.06181297019702
 7 -7.10934138203820  2.62350794059406  0.37805650115012
 6 -6.06038531753175  3.34439541534153  0.78485201880188
 6 -6.41581883498350  4.73412770217022  0.75846653385339
 6 -7.69814252125213  4.79849048054805  0.36383477477748
 6 -8.14596886848685  3.46214540984098  0.02256480278028
 6 -5.59196715341534  5.83646611251125  1.12141690219022
 6 -8.50989878747875  6.00299133283328  0.06718370377038
 6 -8.45423931523152  7.18720483908391  0.68792504230423
 7 -9.04260653325333  0.71506436753675 -0.56514054775478
 6 -9.83656991669167  1.84810476357636 -0.68858518261826
 6 -11.22659175577558  1.53784212331233 -1.15603732323232
 6 -11.21506391029103  0.15882124622462 -1.33841255525553
 6 -9.89921560226023 -0.31511348564856 -0.86246126222622
 6 -12.29487831153115  2.43670424142414 -1.44049082388239
 6 -12.36983152945295 -0.64628203830383 -1.80577138563856
 6 -12.26744423282328 -1.13217562876288 -3.32705782438244
 7 -7.20175964426443 -1.34417403100310 -0.26884156115612
 6 -8.29820005980598 -2.18678385048505 -0.58703365856586
 6 -7.95530167576758 -3.57352562006201 -0.38137541484148
 6 -6.61894577867787 -3.54426876387639 -0.06712844474447
 6 -6.20406300270027 -2.12978125942594  0.06287909210921
 6 -8.70434790219022 -4.77766060846085 -0.83661213961396
 6 -5.51936640694069 -4.33681756525653  0.36409928252825
 8 -5.45839467736774 -5.55981046444644  0.40371740244024
 6 -4.30522410181018 -3.35068085788579  0.49333919921992
 6 -3.59758038893889 -3.73224844614461  1.82929330223022
 8 -3.83575517611761 -3.12544928112811  2.85943862496250
 8 -2.74065525922592 -4.75471019341934  1.72526110701070
 6 -2.22963355125513 -5.39104333343334  2.92994793029303
 6  2.79928243994399 -0.73697149174918 -1.04746594699470
 6  4.16552864186419 -0.47626580288029 -0.42330247924792
 6  5.23333681808181  0.20130639603960 -0.87471724442444
 6  5.08218664166417  1.03660630993099 -2.11880604590459
 6  6.53819815261526  0.31037288748875 -0.16420290549055
 6  7.67913545144514 -0.30855120202020 -1.02006895739574
 6  9.00793266586659 -0.16463159355936 -0.26131794459446
 6  10.26483710821082 -0.52499957165717 -1.02791376187619
 6  10.11171787198720 -1.83653458955896 -1.72917638263826
 6  11.45717859475948 -0.34234801560156 -0.15162429382938
 6  12.81505641334133 -0.50036408750875 -0.82262228512851
 6  14.02697216561656 -0.02446364916492  0.05377244474447
 6  15.48139426432643 -0.24241797089709 -0.51458969876988
 6  15.73694536343634 -1.69431706550655 -0.84632425012501
 6  16.44034814071407  0.48717307730773  0.40799530673067
 6  17.88615320472047  0.69128052645265 -0.19179499409941
 6  18.81556192569257  1.44392260926093  0.76351678467847
 6  20.28150681988199  1.51236156965697  0.30805556875688
 6  20.53643499729973  2.15308360556056 -1.04848584128413
 6  21.20973190399040  2.06516945324532  1.41785714911491
 1 -3.90480196469647  3.38611413281328  1.53231781868187
 1 -10.08781917461746  4.13974480948095 -0.67073246474647
 1 -10.47666095549555 -2.28141748254825 -0.90132678487849
 1 -2.76073253015301 -1.24209252315231  2.10266095729573
 1 -2.24837844304431  1.76841042364236  1.39851050145014
 1 -1.99030348784879  1.27765821872187  3.69812352585258
 1 -3.36131119111911  2.43900795829583  3.62120428582858
 1 -3.79258270097010  0.56978166216622  3.75393780658066
 1 -2.10369285418542 -1.62796275667567 -0.35203911311131
 1 -2.22616428892889  0.11662891329133 -0.43377341694169
 1 -0.12662618001800  0.42709732363236  0.94866526562656
 1 -0.42568037003700 -1.29963447864787  1.70169412461246
 1 -5.97422619801980  6.72932157625763  0.94112982218222
 1 -5.51128811821182  5.96651001410141  2.24431072817282
 1 -4.59020297629763  5.61740290669067  0.70549372497250
 1 -9.29341139363936  5.92488863696370 -0.60655088328833
 1 -9.16248746464646  8.10052079097910  0.56578620042004
 1 -7.97424689048905  7.43641004050405  1.66449483498350
 1 -12.23694779987999  2.92959328532853 -2.49601260596060
 1 -13.44547421662166  1.78085197639764 -1.29827101860186
 1 -12.20824255535554  3.40819947464746 -0.62546379037904
 1 -12.37476225462546 -1.62490193529353 -1.23968892379238
 1 -13.30545926482648 -0.20663740054005 -1.58960448794879
 1 -13.12245859845985 -1.80354504070407 -3.58323820832083
 1 -12.14243780798080 -0.33738827642764 -3.95278877457746
 1 -11.35338161746175 -1.72927779487949 -3.64760338033803
 1 -9.11775137813781 -4.71326206910691 -1.83281654575458
 1 -8.03041240604060 -5.59639964416442 -0.74982459545955
 1 -9.60583046794679 -4.92945796709671 -0.12541436403640
 1 -3.58484918081808 -3.57885113581358 -0.28803407490749
 1 -1.65737390389039 -4.47485392509251  3.57577049234924
 1 -3.00523013161316 -5.74137575517552  3.60165300420042
 1 -1.57025513701370 -6.21024029722972  2.89599355225522
 1  2.83347265136514 -1.74366620252025 -1.25774973997400
 1  2.61233871147115 -0.11676739713971 -1.97786093829383
 1  4.23231413701370 -1.11229344454445  0.57708092409241
 1  3.93635259875988  1.03614232463246 -2.58099646934693
 1  5.56986239793979  1.86409666856686 -1.97836430463046
 1  5.46134344194419  0.37006811431143 -3.03002173317332
 1  6.78264032693269  1.37773177317732 -0.02441979917992
 1  6.48346246564657 -0.14144218161816  0.73712342904290
 1  7.45129251395139 -1.17039627482748 -1.43041436503650
 1  7.70699313521352  0.31505471357136 -1.98915183878388
 1  9.04119617121712  0.91462934793479  0.09950758295830
 1  8.97140562926293 -0.76727223342334  0.59041690539054
 1  10.35366291769177  0.22857539523952 -1.89287417691769
 1  9.19539452495249 -1.92841081758176 -2.38973489828983
 1  10.89760231593159 -2.09616640054005 -2.41937618151815
 1  10.14295718171817 -2.84024596659666 -0.92218165786579
 1  11.35282296319632  0.53788601880188  0.01554304180418
 1  11.34185723912391 -0.94744070537054  0.67717833943394
 1  12.95568888778878 -1.60929909110911 -0.93920158775878
 1  12.98596234873487  0.13505419641964 -1.73340670197020
 1  13.87235867256726  0.96593914991499  0.37556489948995
 1  14.10207296039604 -0.71884148884888  0.96541305780578
 1  15.27003029152915  0.26343582858286 -1.68498285628563
 1  16.04277172007201 -2.19305959805981  0.10721926802680
 1  14.91192424312431 -2.22320469606961 -1.34916233133313
 1  16.62731236063606 -1.73837936283628 -1.43412488198820
 1  16.11744694539454  1.49395722942294  0.42755930023002
 1  16.57415186238624  0.10856168106811  1.43107586878688
 1  18.27866880558056 -0.40441698909891 -0.34334767516752
 1  17.74142120662066  1.11690900980098 -1.38966254205421
 1  18.55188598119812  2.40071422912291  1.04690269556956
 1  18.73770093039304  0.74027820882088  1.55021502180218
 1  20.54329924262426  0.49407555575558  0.33055011901190
 1  19.99191329792979  3.26397995989599 -1.03289688308831
 1  21.49674392649265  2.32102875567557 -1.23556491979198
 1  20.05828973337334  1.45388719951995 -1.84573154215422
 1  21.09503547874787  1.54165227432743  2.34954457165717
 1  22.28608031433143  1.88785001470147  1.12520748704871
 1  21.07352708260826  3.29920000330033  1.54262470297030
=======
12 -7.08523909690969  0.63930267836784  0.01967965536554
 6 -4.91547616561656 -2.01127230563056  0.48753528622862
 6 -4.74400432933293  2.83113156045605  1.06587295219522
 6 -9.33542827832783  3.03579907540754 -0.49312217191719
 6 -9.49766007970797 -1.71668717971797 -0.99908633773377
 7 -5.09882330693069  0.42022184028403  0.62694311261126
 6 -4.35924563066307 -0.77620744274427  0.82119014221422
 6 -2.99112811821182 -0.41922134783478  1.17968832303230
 6 -3.09924336273627  1.00587325562556  1.70803153385339
 6 -4.46459345424542  1.48435918471847  1.18931596149615
 6 -3.17215229732973  0.96247853595360  3.28343975287529
 6 -2.00421388238824 -0.63574883628363  0.04522848114811
 6 -0.48097552015202 -0.58720306750675  0.57601173047305
 6  0.45038617581758 -0.72762627552755 -0.52769815031503
 8  0.25049628972897 -0.98867427502750 -1.68559489118912
 8  1.74036584708471 -0.38727612401240 -0.11590837973797
 7 -7.05531597949795  2.61726731653165  0.21461015651565
 6 -6.03791307030703  3.39672064786479  0.78901243484348
 6 -6.48143539663966  4.71156544594459  0.81085177237724
 6 -7.73950665766577  4.82508313981398  0.32769116041604
 6 -8.10897516911691  3.43065226052605 -0.01551900560056
 6 -5.56599455615562  5.86173863976398  1.09909466996700
 6 -8.51747954555455  6.11522255595560 -0.01128414301430
 6 -8.52268615991599  7.23834995359536  0.58192444224422
 7 -9.04399667226723  0.66237909900990 -0.53100713441344
 6 -9.78851511121112  1.86142609570957 -0.69620594469447
 6 -11.16734583118312  1.43966230533053 -1.06686840634063
 6 -11.18357076097610  0.14698006210621 -1.30036875087509
 6 -9.82024770547055 -0.38753072737274 -0.95957097319732
 6 -12.30013883758376  2.47174774577458 -1.09119589438944
 6 -12.33641818811881 -0.68517592769277 -1.75744655315532
 6 -12.21456894529453 -1.13175558675868 -3.34342946154616
 7 -7.23610307860786 -1.41975158875888 -0.20752542954295
 6 -8.29430967076708 -2.23999917201720 -0.64722967816782
 6 -7.88314446004600 -3.63894216171617 -0.56080335763576
 6 -6.54893877797780 -3.61991632863286 -0.05361709360936
 6 -6.29869246564656 -2.22121040234023  0.16577938213821
 6 -8.76940440784078 -4.85353819621962 -0.92031050945095
 6 -5.39152362266227 -4.44306819031903  0.30532340494049
 8 -5.25209404730473 -5.63877836123612  0.31030806150615
 6 -4.20453403280328 -3.35597138693869  0.57746761206121
 6 -3.55762639353935 -3.69015423672367  1.98319869276928
 8 -3.89012061266127 -3.14802153835384  3.03793647474747
 8 -2.63579477317732 -4.65513023542354  1.75089367026703
 6 -2.08018860676068 -5.21249547864786  2.94998993449345
 6  2.75530804250425 -0.52201999659966 -1.13824502490249
 6  4.10088217721772 -0.33277145344534 -0.51224137313731
 6  5.08081156555656  0.40058632403240 -0.77841761446145
 6  5.15104352735274  1.42585523482348 -2.00512467776778
 6  6.40335466826683  0.35316716691669  0.04850836563656
 6  7.61355889378938 -0.18779912681268 -0.76322327282728
 6  8.97592946554655 -0.03455858625863 -0.10157196999700
 6  10.23061368586859 -0.53035010671067 -0.86759773027303
 6  10.02914961516151 -1.96265720182018 -1.19475294029403
 6  11.42073495039504 -0.23902768356836  0.00610147874787
 6  12.78965387308731 -0.34179823092309 -0.71577160006001
 6  13.89304877327733 -0.07397860066007  0.17789485698570
 6  15.32263838873887 -0.08423215231523 -0.59692793259326
 6  15.60150181908191 -1.53680131393139 -1.11741135883588
 6  16.42078618451845  0.52143650365036  0.35217972517252
 6  17.86688127752775  0.61647304570457 -0.30264607920792
 6  18.92417278677868  1.24622283928393  0.70937137013701
 6  20.34875354455446  1.23286361986199  0.16246100930093
 6  20.66118747254725  1.79460775797580 -1.18333932663266
 6  21.34112504330433  1.90604354065407  1.23692905630563
 1 -4.10549203370337  3.61650717211721  1.51155574247425
 1 -10.02410280298030  3.85668650365036 -0.78862425392539
 1 -10.31948523792379 -2.45778511931193 -1.20119677187719
 1 -2.59563602050205 -1.26224453835384  1.87962865406541
 1 -2.22580618581858  1.58252183478348  1.19436008640864
 1 -2.17355181268127  0.72647310021002  3.70010372387239
 1 -3.37794285428543  2.02496655415542  3.66115828122812
 1 -3.98846228892889  0.41101578557856  3.57578999179918
 1 -2.10767325222522 -1.66556651705170 -0.33767767696770
 1 -2.23204487698770  0.21092834323432 -0.54829486908691
 1 -0.28749226662666  0.52887750165016  1.01803220232023
 1 -0.20600840284028 -1.53927844304430  1.16642059725973
 1 -5.75228400380038  6.85417406150615  0.47094280348035
 1 -5.51523851325133  6.08876223932393  2.33393969106911
 1 -4.42261621762176  5.41638280468047  0.99873304890489
 1 -9.35317737023702  6.06246239433943 -0.63756398459846
 1 -8.87980919681968  8.28900963986399  0.24835445724572
 1 -7.85802526832683  7.40042644214421  1.41519990549055
 1 -12.01166527162716  3.22601292729273 -1.77892089678968
 1 -13.32464213341334  1.98728261946195 -1.57892908440844
 1 -12.44987671877188  2.96536519121912 -0.19764100810081
 1 -12.41317609600960 -1.55339478457846 -0.97951290619062
 1 -13.27891661056106 -0.18113485028503 -1.42632816031603
 1 -13.10692704530453 -1.55006969316932 -3.60143002750275
 1 -12.13957752195220 -0.27797233483348 -4.01459495519552
 1 -11.13715999529953 -1.52489735683568 -3.59473809380938
 1 -8.91704130713071 -5.05376611951195 -2.02141540564056
 1 -8.27399676447645 -5.85840584478448 -0.50698031103110
 1 -9.84571445634563 -4.76850187148715 -0.43198502110211
 1 -3.34277497339734 -3.57277052775278 -0.26736200770077
 1 -1.35530369686969 -4.45787222692269  3.64997791309131
 1 -2.68969857845785 -5.46142776037604  3.73389622852285
 1 -1.41292940444044 -5.94216348954896  2.70346429932993
 1  2.85467477157716 -1.55312714861486 -1.51538550355036
 1  2.56876435403540  0.27436171577158 -1.86038919111911
 1  3.95694660026003 -0.96273848904890  0.43263647964796
 1  4.15269423292329  1.52879158955896 -2.32351072077208
 1  5.58634404610461  2.42662292119212 -1.56658312651265
 1  5.67295460306031  1.10808191569157 -2.98745747674767
 1  6.48260032293229  1.43722772277228  0.56699934273427
 1  6.23429754915492 -0.22283032043204  1.07394711141114
 1  7.36117350205020 -1.16175541074107 -1.08100942454245
 1  7.73205564146415  0.34771797989799 -1.68705162876288
 1  9.13561561316132  1.01777966296630  0.13583121532153
 1  8.97456594529453 -0.48884439063906  0.82118998269827
 1  10.27968551995199 -0.07671513381338 -1.71671656115612
 1  9.22091707720772 -2.08381635813581 -1.80076600140014
 1  10.79067162286229 -2.54487127102710 -1.85433967786779
 1  9.83816670267027 -2.47644958695870 -0.35020446014601
 1  11.39696737763776  1.02059428962896  0.36069755725573
 1  11.43371642504250 -0.89106506780678  0.84288491009101
 1  12.84462778167817 -1.27834599579958 -1.31167883548355
 1  12.52229598209821  0.49043973497350 -1.59228258955896
 1  13.87387882458246  0.93365592159216  0.64309165216522
 1  13.88809156225622 -0.79571917661766  1.00775729222922
 1  15.21911520002000  0.43133261826183 -1.58979333733373
 1  15.58585602850285 -2.09240953305331 -0.06104755865587
 1  14.93095614631463 -1.78714108970897 -1.90939835493549
 1  16.71947157655766 -1.56074159905991 -1.34318578807881
 1  15.91756695739574  1.43699153285329  0.61163770807081
 1  16.57408185538554  0.02948377327733  1.23569633083308
 1  18.02081302000200 -0.56118266566657 -0.54148748914892
 1  18.03880094459446  1.20771809070907 -1.22767634343434
 1  18.39192998559856  2.16777093479348  0.92927093239324
 1  18.93462062236224  0.70194437543754  1.65684568486849
 1  20.68487340004000 -0.00541439323932  0.22178924292429
 1  20.46672077867787  2.90251381328133 -1.13388698209821
 1  21.71843609570957  1.81849850265026 -1.48400976427643
 1  19.91669557395740  1.47101891269127 -1.91206817581758
 1  21.20488646384639  1.33074118321832  2.24243386058606
 1  22.27188889518952  1.84519574927493  0.85515048134813
 1  20.99503923382338  2.93183326662666  1.42014245474547
>>>>>>> 8e03b5b5abfc0030b3aa597dc0de36371bfbd096

