%nproc=4
%Mem=2GB
# td=(NStates=1) CAM-B3LYP/6-31G(d,p) 

TD

0 1
12 -7.20852142514251  0.57350609870987  0.14264195159516
 6 -4.86001061906191 -1.97887906630663  0.45152168486849
 6 -4.86345627452745  2.82902134943494  1.33159952485249
 6 -9.44063879937994  3.05391088658866 -0.42456531623162
 6 -9.59219953365337 -1.75682119311931 -0.67304373347335
 7 -5.04696812141214  0.39233905200520  0.72708312661266
 6 -4.26324603070307 -0.71775159715972  0.75397342054205
 6 -2.85457446284628 -0.40584000970097  1.22472282648265
 6 -2.94547798619862  1.07261993029303  1.72214294499450
 6 -4.32197919281928  1.50250099889989  1.21915894579458
 6 -3.03530861296130  1.13754604270427  3.27163857275728
 6 -2.00116357735774 -0.55308056945695  0.06943090139014
 6 -0.44776219881988 -0.36906125332533  0.50568469776978
 6  0.43966510371037 -0.61597511041104 -0.66792217271727
 8  0.10683192329233 -0.94736014361436 -1.81764809650965
 8  1.67769958045805 -0.43797119351935 -0.33725051395140
 7 -7.14388483638364  2.57968355815582  0.29480817631763
 6 -6.11731101010101  3.30324129992999  0.74217775137514
 6 -6.33436068916892  4.77810209960996  0.81170185738574
 6 -7.65224793179318  4.84649528102810  0.30330872217222
 6 -8.15225949754976  3.49090828612861 -0.01833928762876
 6 -5.41746970367037  5.87933039893989  1.07455221572157
 6 -8.42088988658866  6.04771580528053  0.01150813621362
 6 -8.40464435573557  7.10028614721472  0.84981123092309
 7 -9.16027830043004  0.64200706180618 -0.43300733443344
 6 -9.93256951665166  1.73931388448845 -0.60430675477548
 6 -11.22715181178118  1.48421676077608 -1.23790551005101
 6 -11.21872427632763  0.11785714981498 -1.28272698669867
 6 -9.99409509020902 -0.40138211251125 -0.88668368446845
 6 -12.19903872757276  2.53751432243224 -1.58239501430143
 6 -12.38437298359836 -0.74513192329233 -1.69475028352835
 6 -12.24602209060906 -1.13278568976898 -3.22346746534653
 7 -7.20993046134614 -1.41793140674067 -0.14028870587059
 6 -8.31364160396040 -2.16150132223222 -0.45202015721572
 6 -7.90472661826183 -3.62599086658666 -0.43177045434543
 6 -6.56480036413641 -3.58981331833183 -0.17395912781278
 6 -6.13085568196820 -2.16906518781878  0.10253305750575
 6 -8.83146061346135 -4.66482932533253 -0.74110258865887
 6 -5.35040951125112 -4.38001188468847  0.20657352995300
 8 -5.18100693859386 -5.55405988938894  0.17160419111911
 6 -4.14890847024702 -3.29908569836984  0.63778364366437
 6 -3.50473110401040 -3.75253047434743  1.88305867876788
 8 -3.62475407600760 -3.15643237943794  2.99137181828183
 8 -2.72514370807081 -4.74701942434243  1.69914849574958
 6 -2.10446103400340 -5.29840406950695  2.88010294579458
 6  2.80133264496450 -0.60010780538054 -1.34509570997100
 6  4.12574466346635 -0.49021719801980 -0.66710685968597
 6  5.12933641804180  0.31245751115112 -0.99399917261726
 6  5.06889531253125  1.30788343764376 -2.25218938423842
 6  6.42751708450845  0.32681453165317 -0.24834131933193
 6  7.65484302220222 -0.08343869076908 -0.98019496999700
 6  8.91638351095110 -0.12131726212621 -0.11046285908591
 6  10.15873649814981 -0.59330640234023 -0.85846681718172
 6  10.15428212841284 -2.02485342144214 -1.25756922192219
 6  11.51144402130213 -0.29806358715872 -0.01206033743374
 6  12.77935284298430 -0.50983503460346 -0.61923194609461
 6  13.93532300070007 -0.05687689048905  0.27495456295630
 6  15.38341446634663 -0.19979370847085 -0.33444168396840
 6  15.80060172907291 -1.67860549434943 -0.53871348904890
 6  16.43978808470847  0.60955531553155  0.49021352855286
 6  17.79998458785878  0.53195459385939 -0.16751256585659
 6  18.77409777927793  1.37872608960896  0.69414984798480
 6  20.20220889008901  1.31670200370037  0.14019878307831
 6  20.40198155195520  2.01223952115212 -1.17874886758676
 6  21.22507343814382  1.98327126342634  1.18251361476148
 1 -3.98020950545054  3.56257177857786  1.67856244314431
 1 -10.13478387108711  3.96440727572757 -0.68900429192919
 1 -10.41825511491149 -2.34546388718872 -1.01394804700470
 1 -2.57508396529653 -1.22241055495550  1.87317800900090
 1 -2.10259386458646  1.60747433003300  1.32544319471947
 1 -2.04434889238924  0.93485393829383  3.59032274577458
 1 -2.97486254625463  2.11291534903490  3.57160932633263
 1 -3.84983842654265  0.48290297429743  3.70549296209621
 1 -2.10836332123212 -1.57731769216922 -0.33187709690969
 1 -2.09754142664266  0.30462771317132 -0.82309234883488
 1 -0.38149166656666  0.55820043394339  0.90948134723472
 1 -0.37499530153015 -1.18901341654165  1.31839579477948
 1 -5.88423719911991  6.91055970007001  0.56416212541254
 1 -5.37292428182818  6.01912527562756  2.19421571867187
 1 -4.46932088808881  5.68622978937894  0.49353252885289
 1 -9.21944399689969  5.73927007510751 -0.64515474367437
 1 -9.03841505740574  7.88112885178518  0.49655927772777
 1 -7.84113357915792  7.08002440194019  1.76880526602660
 1 -11.99839394449445  3.15489581558156 -2.21162416711671
 1 -13.21991166036604  1.99811370257026 -1.83772496399640
 1 -12.44142587368737  3.25099375407541 -0.64346559055906
 1 -12.36676145454546 -1.78277772287229 -1.21171612651265
 1 -13.51371008990899 -0.18923566036604 -1.51024655215522
 1 -13.14533088568857 -1.88382306850685 -3.40987087158716
 1 -12.41823538773878 -0.18618315591559 -3.72719621532153
 1 -11.12147842714272 -1.61795666276628 -3.14479309930993
 1 -9.08259786278628 -4.63368411131113 -1.76768003210321
 1 -8.31819118391839 -5.57223722792279 -0.49726933993399
 1 -9.86580646554656 -4.52852787408741 -0.14487631023102
 1 -3.34382507840784 -3.45796904760476 -0.12310758225823
 1 -1.37715588208821 -4.53276971667167  3.36959987528753
 1 -2.78392800140014 -5.40337195479548  3.57044988388839
 1 -1.61957006850685 -6.27111638483848  2.48299225212521
 1  2.45578488258826 -1.53325516141614 -1.94132809780978
 1  2.71901937953795  0.19677395699570 -2.03814696689669
 1  4.05359626522652 -1.07581979717972  0.40497371337134
 1  4.02030099359936  1.40732944334433 -2.38440681038104
 1  5.53893930563056  2.25744600350035 -2.19035550375038
 1  5.50016732433243  0.69913102060206 -3.13630236123612
 1  6.49840190309031  1.18242224222422  0.04498714151415
 1  6.26914103350335 -0.25417345474547  0.64962467916792
 1  7.56717410211021 -0.99212844804480 -1.29749107270727
 1  7.68802123802380  0.63566677477748 -1.92335525912591
 1  9.10844289588959  0.90594847984798  0.43399103130313
 1  8.83632212091209 -0.90654616081608  0.56788465216522
 1  10.10705825722572  0.06123866156616 -1.69570445994600
 1  9.17941292679268 -2.37041501800180 -1.86138206300630
 1  10.95624818051805 -2.24193097699770 -2.04523876777678
 1  10.14061694769477 -2.83146508850885 -0.29528896859686
 1  11.30187786868687  0.70634286448645  0.40526201370137
 1  11.44359741314131 -1.05144110541054  0.89242986458646
 1  12.87452077097710 -1.64147230843084 -1.01028869646965
 1  12.92182593509351 -0.02797210621062 -1.65899926122612
 1  13.71903334003400  0.95978853485349  0.51336867986799
 1  13.88436118921892 -0.53439304400440  1.16584310081008
 1  15.37992128062806 -0.05115563056306 -1.40733509150915
 1  16.10133757665767 -2.15567585968597  0.54930347644764
 1  14.77569061976198 -2.19872224782478 -1.02834024912491
 1  16.61679130853085 -1.76284180908091 -1.45200667016702
 1  16.19754495519552  1.68506634033403  0.78267481178118
 1  16.45843029022902  0.02002282718272  1.43500626182618
 1  18.13968490719072 -0.44871141854185 -0.23918725912591
 1  17.68949601410141  0.89997731663166 -1.14506808260826
 1  18.32990378297830  2.43242740044004  0.69381738703870
 1  18.78568572887289  1.09888406940694  1.76450645094509
 1  20.57275218791879  0.18040418861886  0.11337840184018
 1  19.95363947054705  3.14342790469047 -1.05092868626863
 1  21.44957921002100  2.23071972477248 -1.37607897119712
 1  19.68450235463547  1.48493030383038 -1.96760372937294
 1  21.45838181338134  1.33286139523952  2.06981659885989
 1  22.21946365266527  2.25050628032803  0.71422638893889
 1  20.89174890479048  3.09381946524652  1.71034147464746

