%nproc=4
%Mem=2GB
# td=(NStates=1) CAM-B3LYP/6-31G(d,p) 

TD

0 1
<<<<<<< HEAD
12 -7.13816438943894  0.62444119221922 -0.00503281588159
 6 -4.77726234423442 -1.93046422482248  0.50885741844184
 6 -4.82999292819282  2.84939338663866  1.19913627852785
 6 -9.32091682718272  3.10354585008501 -0.46208906860686
 6 -9.54847516121612 -1.74296980798080 -0.84756118521852
 7 -5.14426785138514  0.41934175227523  0.80047046534653
 6 -4.37924763086309 -0.73512333433343  0.94779280248025
 6 -2.97297630303030 -0.40233965966597  1.27173752795280
 6 -3.11096453485349  1.04786745504550  1.71808253895390
 6 -4.50334732963296  1.46956770557056  1.19786681658166
 6 -2.93533861596160  1.20177246534653  3.23635504440444
 6 -2.01754521552155 -0.52503776517652  0.08396235453545
 6 -0.48275569816982 -0.36628097529753  0.54749887918792
 6  0.47580871807181 -0.70491400430043 -0.51648702920292
 8  0.32730397049705 -1.23236864446445 -1.64536086778678
 8  1.79672148264826 -0.33016041244124 -0.14814160306031
 7 -7.15868631653165  2.64525011481148  0.36074476997700
 6 -6.06070534953495  3.37749872567257  0.81312484608461
 6 -6.42457971107111  4.78818310771077  0.80618130533053
 6 -7.60558326532653  4.87038767026703  0.23679207050705
 6 -8.09414368596860  3.43284247954795  0.07051959825983
 6 -5.45848380508051  5.88492095799580  1.16490125062506
 6 -8.48504630223022  6.04291532523252  0.00057704310431
 6 -8.65111900320032  7.20314643324332  0.75005125492549
 7 -9.09484175677568  0.72499536063606 -0.74329836353635
 6 -9.82380864056406  1.78915886898690 -0.88828515261526
 6 -11.11957105370537  1.49534787388739 -1.25013673317332
 6 -11.28820122402240  0.13291865596560 -1.24125283928393
 6 -9.91485716641664 -0.39256123042304 -1.01595661176118
 6 -12.30566939063906  2.47528809980998 -1.35196197099710
 6 -12.38030257655766 -0.74190160026003 -1.73335414391439
 6 -12.29678716711671 -0.99001141234123 -3.10783590219022
 7 -7.20563003130313 -1.40058967256726 -0.00895557255726
 6 -8.24632487228723 -2.24863003510351 -0.41335629082908
 6 -7.85638178377838 -3.52655092259226 -0.41935921322132
 6 -6.51305518961896 -3.60409474647465 -0.04474620652065
 6 -6.19289188558856 -2.20483876517652  0.16966977117712
 6 -8.71158862626262 -4.74983782618262 -0.71570004840484
 6 -5.37665213551355 -4.34441832533253  0.16311918451845
 8 -5.16123496139614 -5.53475795919592  0.07800483118312
 6 -4.18851243064306 -3.32621841164116  0.61418128342834
 6 -3.44711534243424 -3.66571179247925  1.83582395529553
 8 -3.69472107270727 -3.16073280948095  2.93851653275328
 8 -2.69135032873287 -4.68254297669767  1.61943052395240
 6 -2.14200478837884 -5.33952818191819  2.78618355385539
 6  2.78121063276328 -0.81882967756776 -1.09168036843684
 6  4.13753584258426 -0.46159433573357 -0.46521667066707
 6  5.21833531793179  0.18879514491449 -0.97728750145014
 6  5.10110853385339  1.12872552185219 -2.20767493279328
 6  6.46658099089909  0.31841369156916 -0.17929441464146
 6  7.66251378927893 -0.27156750365036 -0.90359731023102
 6  8.95187706030603 -0.10711584198420 -0.24180599339934
 6  10.27137776227623 -0.62055912761276 -0.90313128362836
 6  10.14899159935993 -2.01910284638464 -1.36207967296730
 6  11.42568544544454 -0.41344512531253  0.16817768636864
 6  12.79087399509951 -0.58075212631263 -0.59049907280728
 6  13.96932640104010 -0.22424362716272  0.26217328482848
 6  15.31796792169217 -0.15630936003600 -0.44155239503950
 6  15.83979564846485 -1.51414904870487 -0.97374699239924
 6  16.33363746964697  0.56294065406541  0.35209971717172
 6  17.78816340574057  0.67314871327133 -0.19002481708171
 6  18.67311768126813  1.39053727072707  0.63744417741774
 6  20.20748941814181  1.41038137163716  0.24863962716272
 6  20.48528988278828  1.99853815101510 -1.20530152285229
 6  20.94610554135414  2.07995093139314  1.24910027342734
 1 -4.05673715821582  3.26678219961996  1.81741632853285
 1 -9.98309870257026  3.97628846384639 -0.67605299679968
 1 -10.41203449284929 -2.34260360116012 -1.18550520272027
 1 -2.87807426432643 -1.12385069896990  2.16476716791679
 1 -2.29365297049705  1.46588017061706  1.19915056545655
 1 -2.02896735423542  0.91893234613461  3.80749446294629
 1 -3.14075913591359  2.14697875537554  3.45672783818382
 1 -3.70421386408641  0.29846453045305  3.67396980978098
 1 -2.21262374727473 -1.31599155955596 -0.50183409260926
 1 -2.34284595709571  0.23889113951395 -0.65477551715172
 1 -0.46335985338534  0.51036565046505  0.97286768586859
 1 -0.25591339333933 -1.10263477867787  1.41014496969697
 1 -5.93392216761676  6.81042968706871  0.92289799899990
 1 -5.16834382378238  5.93679704280428  2.23584988208821
 1 -4.43340729672967  5.62197336373637  0.53957713331333
 1 -9.05971802430243  6.07509365746575 -0.81966219441944
 1 -9.58955017091709  7.87593833273327  0.66750637243724
 1 -8.09713917971797  7.23684008350835  1.69695808130813
 1 -12.24475858095810  3.26248657465747 -1.95433843854385
 1 -13.34007367656766  1.94702859405941 -1.62382357385739
 1 -12.77856958805881  3.09033768846885 -0.37580882488249
 1 -12.43480825922592 -1.54579402450245 -1.07642259715972
 1 -13.41584030293029 -0.30460719751975 -1.26398192569257
 1 -13.12660901350135 -1.59811449764977 -3.37620750525052
 1 -12.56130969516952 -0.18390292789279 -3.80957445314531
 1 -11.44656093539354 -1.54716958405841 -3.47577619761976
 1 -8.81830143314331 -4.58126886978698 -1.84467773187319
 1 -8.12310167496750 -5.70997100130013 -0.65274488748875
 1 -9.74614449934993 -4.72741776307631 -0.32556437903790
 1 -3.46726742264226 -3.33418666936694 -0.17032230373037
 1 -1.32180034653465 -4.78330477017702  3.18824173947395
 1 -2.84606421502150 -5.62980459805981  3.65729856875688
 1 -1.54577268876888 -6.11076034923492  2.31831578447845
 1  2.63407271137114 -1.88015985188519 -1.40262422742274
 1  2.69418689628963 -0.14110983138314 -1.97295044724472
 1  4.48088899449945 -1.16083829902990  0.32039525552555
 1  4.18352731623162  1.15383409380938 -2.91206957665767
 1  5.01175658735874  2.09202946184618 -1.94768123632363
 1  5.95245255285529  0.89821092859286 -2.79336806780678
 1  6.86550861376138  1.33749774977498 -0.06775413261326
 1  6.27011113051305 -0.15514355175518  0.66364608130813
 1  7.63920130483048 -1.37555679087909 -1.22997432103210
 1  7.61942437833783  0.10559376747675 -1.92100502410241
 1  9.09496154775477  0.88124600960096 -0.06786915471547
 1  9.05281377007701 -0.46683218941894  0.81061892559256
 1  10.44027157855786  0.08435097279728 -1.72053694319432
 1  9.38054303980398 -2.17830580708071 -1.87946387118712
 1  10.92953550925093 -2.39954673857386 -1.99150339423942
 1  10.03990687668767 -2.70207214921492 -0.41360079977998
 1  11.54420210111011  0.53126535673567  0.46428791629163
 1  11.22331538493849 -1.03747970927093  0.96842746434643
 1  12.94219753865386 -1.61898005920592 -0.96534420202020
 1  12.74720847334733 -0.04743405240524 -1.51707506880688
 1  13.67159859655966  0.90573312931293  0.77928527152715
 1  14.23781653475348 -0.90765036973697  1.18393490999100
 1  15.22623591209121  0.32559204420442 -1.36942130013001
 1  16.01248869176918 -2.46143643574357 -0.12512396629663
 1  15.18245129582958 -1.98374074967497 -1.71547896299630
 1  16.74251388078808 -1.44480000490049 -1.50835230473047
 1  16.08726392709271  1.64606243994399  0.38785532983298
 1  16.41287573477348  0.25154597949795  1.43674643584358
 1  18.16512745144514 -0.45335188258826 -0.46873021342134
 1  17.66326339083909  1.19788710761076 -1.08728230403040
 1  18.35589638223822  2.37555171287129  0.94035204050405
 1  18.64094125442545  0.81572575357536  1.58412841314131
 1  20.67874278697870  0.35489163736374  0.26551361536154
 1  20.32163627022702  3.16007956985699 -1.10227382078208
 1  21.51335558765876  1.98835548834884 -1.68028939223922
 1  19.44588849324933  1.80344215501550 -1.84953192219222
 1  20.94757073227323  1.63563167226723  2.40882049924992
 1  22.01765347164716  2.01796302600260  1.08333329962996
 1  20.74716444634463  3.11065114841484  1.57516795729573
=======
12 -7.21655222822282  0.67627637573757  0.11064875227523
 6 -4.88700331833183 -1.96742792119212  0.48034456715672
 6 -4.76264619351935  2.75014346164616  1.19371573647365
 6 -9.47815255075508  3.20488598409841 -0.39394225392539
 6 -9.60625093879388 -1.68511402240224 -0.84048047714771
 7 -5.14702812741274  0.37463728182818  0.84635505380538
 6 -4.31527123322332 -0.75081490349035  0.81262928612861
 6 -2.88836784218422 -0.42520194589459  1.25000535473547
 6 -3.01399483788379  1.03728639693969  1.69837056775678
 6 -4.38643563846385  1.40799154795480  1.22795982588259
 6 -3.06046112821282  1.27417970607061  3.22673408230823
 6 -1.85291875287529 -0.76506176757676  0.11690564886489
 6 -0.48916633923392 -0.46291063826383  0.58530265956596
 6  0.54265540274027 -0.73680719361936 -0.53439882038204
 8  0.29105034513451 -1.01799720732073 -1.66775310701070
 8  1.74346615711571 -0.47613500990099 -0.03269005790579
 7 -7.14396484438444  2.61315690549055  0.32881157665767
 6 -6.01703098209821  3.29828080388039  0.78802233583358
 6 -6.43738099119912  4.74080837023702  0.73849453665367
 6 -7.74537724472447  4.80817144864486  0.31797018831883
 6 -8.15203947554756  3.49256845214521  0.01842438873887
 6 -5.46670462716272  5.82886535243524  1.12055681618162
 6 -8.53709150675067  6.03763479717972  0.08759574497450
 6 -8.43888778007801  7.12641876047605  0.80177642744274
 7 -9.08148042064206  0.76706956805681 -0.56821085478548
 6 -9.93716997669767  1.87945789888989 -0.75961228532853
 6 -11.19496859345935  1.49240757985799 -1.22989470897090
 6 -11.12296470037004  0.20827619171917 -1.36006472047205
 6 -9.86898257895790 -0.29016099039904 -0.92441745784578
 6 -12.31915073877388  2.50182075307531 -1.54214098889889
 6 -12.31813635993599 -0.67499490959096 -1.77295810431043
 6 -12.25781326972697 -1.13346575777578 -3.21604672327233
 7 -7.18957842614261 -1.39414902850285 -0.19504418141814
 6 -8.32994323412341 -2.24213938603860 -0.44363931913191
 6 -7.79689583518352 -3.58199646714671 -0.47108438573857
 6 -6.48406229032903 -3.54361869886989 -0.08177990989099
 6 -6.18472106850685 -2.18858714001400  0.10436324052405
 6 -8.46442390979098 -4.81585442784278 -0.87599607800780
 6 -5.37732220252025 -4.33042692619262  0.12002487508751
 8 -5.14789362726273 -5.51450593399340  0.01938896959696
 6 -4.24422800220022 -3.36995278507851  0.54139400470047
 6 -3.52895352625263 -3.64619984128413  1.88844921782178
 8 -3.84626622722272 -3.19872660886089  2.94048672977298
 8 -2.73068426212621 -4.75080980338034  1.75206378727873
 6 -2.15414600250025 -5.38374260336034  2.91695663116312
 6  2.84971748344834 -0.69078687328733 -1.09199039943994
 6  4.15831792079208 -0.43360153645365 -0.42282243124312
 6  5.18057154155415  0.25915218061806 -0.87849762246225
 6  5.20925934893489  0.98574122342234 -2.18569273457346
 6  6.42118645144514  0.52866471667167 -0.11924841004100
 6  7.58650618851885 -0.14118446534653 -0.84848179867987
 6  8.88448032063206  0.01940681028103 -0.07861967476748
 6  10.17783840834083 -0.58237530923092 -0.77223819431943
 6  10.03683038323832 -2.05690662676268 -1.12687615261526
 6  11.52935581248125 -0.46904068486849  0.12162303090309
 6  12.75858076577658 -0.43237728882888 -0.72376239913991
 6  14.03301276967697 -0.04048525132513  0.15162222972297
 6  15.40215634053405 -0.25335906500650 -0.48515675547555
 6  15.65202687158716 -1.71241887568757 -0.89732935063506
 6  16.35478958485849  0.45592995299530  0.43435794299430
 6  17.72807739713971  0.65169656805681 -0.23567938253825
 6  18.72489285878588  1.41737995499550  0.56997743074307
 6  20.18270693989399  1.35986632013201  0.12647741094109
 6  20.43490484428443  2.14453275047505 -1.23714470717072
 6  21.13405433623362  1.97938087438744  1.09177454085409
 1 -4.14290577507751  3.35590111151115  1.70239482638264
 1 -10.03248364106411  4.12762359735974 -0.54511990349035
 1 -10.48397168656866 -2.36653599439944 -0.93543019521952
 1 -2.36506296319632 -1.11715002890289  2.09226991819182
 1 -2.29888349354936  1.76920050265026  1.14267491789179
 1 -2.20752521002100  0.97180763366337  3.64679839333933
 1 -3.29378443844384  2.47057111461146  3.47133929932993
 1 -3.79463290599060  0.97764244824482  3.84858727152715
 1 -2.21581406630663 -1.73673363376338 -0.20069397859786
 1 -2.03828550105011 -0.02184493409341 -0.59768980858086
 1 -0.19334285168517  0.52375698959896  0.91218161726173
 1 -0.43202100410041 -1.18586310151015  1.48603255845585
 1 -5.60882965836584  6.71410005410541  0.69728543774377
 1 -5.15450243964396  6.07105046814682  2.18754505160516
 1 -4.40141409740974  5.47547871427143  0.70525370097010
 1 -9.08457050955096  5.95595174327433 -0.89942017021702
 1 -8.86295751165116  7.99904064296430  0.23151277307731
 1 -7.74303376917692  7.58180457995800  1.72033041854185
 1 -12.05206931203120  3.10243056905691 -2.38569157385739
 1 -13.19465913511351  2.15011890309031 -1.78541973347335
 1 -12.52284401550155  3.14967362206221 -0.68972021602160
 1 -12.54127890629063 -1.46957640274027 -0.99997495239524
 1 -13.16614533343334  0.01097436063606 -1.56707223472347
 1 -13.01118747134714 -2.02492717891789 -3.24192407690769
 1 -12.27307087128713 -0.37358189578958 -4.01325482118212
 1 -11.11195747504751 -1.51861672877288 -3.58639725972597
 1 -8.94944454745474 -4.82581332423242 -1.77046031013101
 1 -7.75493485828583 -5.62050205440544 -0.87414702770277
 1 -9.21109099399940 -5.06651167246725 -0.15952777537754
 1 -3.38606930283028 -3.72120537123712 -0.11074634613461
 1 -1.61151931843184 -4.58499493919392  3.65229814511451
 1 -2.84830443904390 -5.79305092269227  3.56693953285329
 1 -1.47874598609861 -6.05956522972297  2.62477643054305
 1  2.74226353045305 -1.50394223012301 -1.64321828682868
 1  2.29379685728573 -0.04784050445045 -1.78388154035404
 1  4.25501640724072 -1.12138435363536  0.34153736973697
 1  4.02143110661066  0.91836054645465 -2.60894926462646
 1  5.54185959765977  2.08520877977798 -2.12612908110811
 1  5.93777108470847  0.75989709720972 -3.04226295729573
 1  6.38518058095810  1.60686468646865  0.20077272007201
 1  6.20711483088309  0.07576953955396  0.73139285598560
 1  7.44650203490349 -1.16013524872487 -0.99146046964696
 1  7.74479691559156  0.42349555765577 -1.92903582718272
 1  9.08166021762176  1.23430131513151  0.12022965516552
 1  8.73617210591059 -0.56981248744874  1.01536940064006
 1  10.43140069146915  0.00489302700270 -1.59582447194720
 1  9.33992897839784 -2.16512448894890 -1.93985991079108
 1  10.94930748644865 -2.40807759165917 -1.52984722862286
 1  9.44250713671367 -2.67982992499250 -0.30690012971297
 1  11.50263794469447  0.58597082728273  0.59273076057606
 1  11.38481153455346 -1.30544650595059  0.73230385198520
 1  13.28286160506051 -1.47518567976798 -1.13880154775477
 1  12.69745349784978  0.25487617861786 -1.64911827312731
 1  13.97830926762676  1.06662921892189  0.44230157315732
 1  14.23408616171617 -0.63779338403840  1.02431894839484
 1  15.29397268576858  0.37274675967597 -1.59059341734173
 1  15.51933937683768 -2.36013630573057 -0.13456491039104
 1  14.76052910361036 -1.93894627022702 -1.47737515261526
 1  16.62191182058206 -2.06106163106311 -1.41765323482348
 1  16.06728192889289  1.41583941764176  0.77038358265827
 1  16.48718316551655  0.05774659955996  1.45668843004300
 1  17.90428136683668 -0.31260780818082 -0.50496383678368
 1  17.54137120162017  1.00883820272027 -1.09598317411741
 1  18.29069986258626  2.45393955165517  0.42212021732173
 1  18.72853001330133  1.31406558755876  1.78328832913291
 1  20.34777969066907  0.24447059525953  0.24851191519152
 1  20.29149325592559  3.29341290319032 -1.20908450185018
 1  21.50608486058606  2.21972862566257 -1.70531189448945
 1  19.85968987338734  1.54511632243224 -1.93376034503450
 1  21.04624059925992  1.60091820092009  2.20484010121012
 1  22.12373407970797  2.03678490819082  0.71392635893589
 1  20.86019574947495  3.05994607790779  1.36114655515552
>>>>>>> 8e03b5b5abfc0030b3aa597dc0de36371bfbd096

