%nproc=4
%Mem=2GB
# td=(NStates=1) CAM-B3LYP/6-31G(d,p) 

TD

0 1
12 -7.14873544654465  0.61493024112411  0.11213890129013
 6 -4.85435005300530 -1.96392757115712  0.55474200690069
 6 -4.79128905780578  2.86908535583558  1.18689505440544
 6 -9.41923665916592  3.09916541204120 -0.42990585028503
 6 -9.56117643134314 -1.78204371537154 -0.83069949904991
 7 -5.04846827142714  0.43194301240124  0.69566998529853
 6 -4.33776348244824 -0.71680150215021  0.90158818201820
 6 -2.91494049944995 -0.41949137483748  1.23860421462146
 6 -2.99049248764877  1.06751942024202  1.65794652535254
 6 -4.31422841774177  1.52086283508351  1.11436846674667
 6 -2.74015909800980  1.31582387048705  3.13598500740074
 6 -1.92154561556156 -0.77219248064806  0.09523348164816
 6 -0.45097251985199 -0.54911925912591  0.46378050735074
 6  0.59094023122312 -0.81079459235924 -0.64938031853185
 8  0.29813105320532 -1.23381878947895 -1.71925825752575
 8  1.91136294679468 -0.63455085148515 -0.19095588448845
 7 -7.07205765366537  2.61970756055606  0.40245894139414
 6 -6.04110338933893  3.34419539533953  0.77448098169817
 6 -6.41653890699070  4.74084837423742  0.78328901610161
 6 -7.73113582058206  4.82455308680868  0.38679707100710
 6 -8.15982025362536  3.47609680498050  0.08601114741474
 6 -5.50522847954795  5.89989245514551  1.24750951145115
 6 -8.62444024162416  6.03650468416842  0.19400638603860
 6 -8.53662755405541  7.23363948254825  0.78542479227923
 7 -9.11302357495750  0.74611747284728 -0.60018405210521
 6 -9.93399965966597  1.83548350145015 -0.74818114221422
 6 -11.13801289788979  1.51459979907991 -1.22787450695069
 6 -11.19861226512651  0.10272563666367 -1.34752346634663
 6 -9.97548322902290 -0.42511448574857 -0.86446146224622
 6 -12.36989581328133  2.41844241524152 -1.39881665646565
 6 -12.42956750305031 -0.71035844594459 -1.80151095959596
 6 -12.11850933933393 -1.20883329452945 -3.27691280988099
 7 -7.24672414071407 -1.42416202980298 -0.03633831083108
 6 -8.34511475127513 -2.25644081618162 -0.43336829202920
 6 -7.85260140574057 -3.69134740224022 -0.45372264956496
 6 -6.51743562766277 -3.56809114611461 -0.05480721262126
 6 -6.22545514191419 -2.16996527782778  0.11229403360336
 6 -8.63023049044904 -4.73770661306131 -0.90821930033003
 6 -5.38467293759376 -4.32079596309631  0.21386425902590
 8 -5.21570040794079 -5.54196868026803  0.09880691139114
 6 -4.17309088848885 -3.25099088888889  0.62271213651365
 6 -3.57847847874787 -3.59191441274127  1.92817319021902
 8 -3.95646724732473 -3.08524526072607  2.96733941504150
 8 -2.68126932063206 -4.62891761416142  1.77558613951395
 6 -2.26291687958796 -5.09120334943494  3.10296523202320
 6  2.85924843654365 -0.68178597319732 -1.22450365076508
 6  4.13457554655466 -0.52866104240424 -0.54864501350135
 6  5.11869535393539  0.31934820022002 -0.97476724942494
 6  5.16113453645364  1.18962161146115 -2.26727089238924
 6  6.47262159495950  0.41605345554555 -0.21288777397740
 6  7.62940047794779 -0.20396074297430 -1.03508045854585
 6  8.89572144474447 -0.12139727012701 -0.13454526732673
 6  10.16211683618362 -0.37346441814181 -0.85677664816482
 6  10.13234993519352 -1.85338627472747 -1.36121958695870
 6  11.42088496539654 -0.26013979477948 -0.05529466086609
 6  12.81087599529953 -0.44172822392239 -0.69575959885989
 6  13.90244971337134 -0.10961216401640  0.24192125962596
 6  15.30031615651565 -0.15268899799980 -0.46741498129813
 6  15.60633230213021 -1.59719735353535 -0.85602522022202
 6  16.40681478737874  0.47347170717072  0.32391689888989
 6  17.76917150655066  0.54887628602860 -0.21579739433943
 6  18.84358472797280  1.31286950395039  0.71323175617562
 6  20.29493816301630  1.27485781928193  0.20522528572857
 6  20.42326368016802  2.11044934213421 -1.02207320002000
 6  21.22178310911091  1.87087002330233  1.32286765016502
 1 -4.11798328282828  3.53939946134613  1.47176176307631
 1 -10.10520091279128  3.98832966796680 -0.55034042554255
 1 -10.39049233863386 -2.63416275707571 -1.27090374257426
 1 -2.54373082998300 -0.77894620852085  2.24862555375538
 1 -2.21431503670367  1.48979256185619  0.99327997839784
 1 -1.82313677117712  1.06364681758176  3.56819053255325
 1 -3.11225628562856  2.25990004750475  3.15459762516252
 1 -3.59108255095510  0.73920860486049  3.64392680548055
 1 -2.18177066196620 -1.66962692309231 -0.44671858105811
 1 -2.21032270477048 -0.11423417301730 -0.79339937953795
 1 -0.12758627602760  0.54634924882488  0.66412681178118
 1 -0.19159696169617 -1.20992550775078  1.30949490469047
 1 -5.65312408780878  6.89662830693069  0.51579728892889
 1 -5.81314830423042  6.21802516561656  2.26085238233823
 1 -4.37413136913691  5.65675684208421  1.38464163976398
 1 -9.45267732023202  5.83681983008301 -0.52006223442344
 1 -9.23230444634463  8.12923366226623  0.81233085488549
 1 -7.96037550335033  7.53958035753575  1.71023940944094
 1 -12.18712281738174  3.01040136613661 -2.10983398809881
 1 -13.37148681788179  1.86952084328433 -1.57514870637064
 1 -12.52009374047405  3.10217887258726 -0.50894213821382
 1 -12.52056683508351 -1.52395184028403 -1.14793974887489
 1 -13.35200391929193 -0.15808254505451 -1.62984851235124
 1 -12.96356270887089 -2.09664435063506 -3.58997888238824
 1 -12.07994155835584 -0.36898143574357 -4.01390488618862
 1 -11.23845012431243 -1.76988185528553 -3.49036765676568
 1 -9.10258986198620 -4.54096483938394 -2.04622788688869
 1 -7.97747711251125 -5.66550655485549 -0.97887750075007
 1 -9.68360824572457 -4.76361138243824 -0.29719154175418
 1 -3.32216291219122 -3.39641289198920 -0.19597486898690
 1 -1.42142030853085 -4.33926036573657  3.26726964226423
 1 -2.99036864546455 -5.22999461706171  3.64430726962696
 1 -1.88723683518352 -6.10192946614661  2.92771672457246
 1  2.74492379647965 -1.57573940984098 -1.87454141914191
 1  2.74175165276528 -0.05616133653365 -1.90710386258626
 1  3.94997590319032 -1.09167138233823  0.38143135913591
 1  4.26262522602260  1.25508421882188 -2.92197056675668
 1  5.47976338803880  2.22513277217722 -1.87570403860386
 1  5.81812912051205  0.70699180668067 -3.01015974697470
 1  6.62799486238624  1.52023602360236  0.16756939973997
 1  6.48277239663966 -0.19631766916692  0.63657337403740
 1  7.28740612531253 -1.21484071927193 -1.23835515911591
 1  7.90551298719872  0.41994520262026 -2.08965188878888
 1  8.90975302690269  0.86534441944194  0.19960759295930
 1  8.66397488618862 -0.75028053425343  0.82472033573357
 1  10.18822637403740  0.32227476517652 -1.74296918641864
 1  9.40024501000100 -2.02519049554955 -2.21877780258026
 1  11.20832338803880 -1.84994177807781 -1.67571181508151
 1  10.09831271727173 -2.50597253925393 -0.58061750145014
 1  11.37361504240424  0.80778300850085  0.58717020452045
 1  11.12400545394540 -0.87991395269527  0.96342696429643
 1  12.79407272617262 -1.58669683088309 -0.96163383098310
 1  12.87773152565256  0.20437112811281 -1.56491985328533
 1  13.98365980268027  1.08262081808181  0.55936327932793
 1  13.96355910901090 -0.83948355305531  1.03535005150515
 1  15.20405369386939  0.52877236223622 -1.49283364136414
 1  15.66199364226423 -2.26606689878988 -0.04271572547255
 1  14.72575562626263 -2.11046342194219 -1.49645706080608
 1  16.45180480988099 -1.51767729262926 -1.55245671517152
 1  15.81285648634863  1.40106794049405  0.69847639193919
 1  16.40061450865086  0.01485231013101  1.25466822802280
 1  17.99566050475048 -0.52808935633563 -0.46771011141114
 1  17.90106717121713  1.17736505540554 -1.19321289708971
 1  18.39427021962196  2.37017117481748  1.18789679497950
 1  19.02637979827983  0.73374755575557  1.56284628492849
 1  20.77195210791079  0.15439158735874  0.00820788478848
 1  19.99510361696169  3.06631019291929 -0.53219681308131
 1  21.35618987108711  2.38501515431543 -1.56761812511251
 1  19.63687759215922  2.02890470127013 -1.95842281128113
 1  21.24979095429543  1.16483459255926  2.16067568476848
 1  22.23666537283728  1.89436066576658  0.90406537283728
 1  20.87327705760576  2.80362044534454  1.78788922942294

