%nproc=4
%Mem=2GB
# td=(NStates=1) CAM-B3LYP/6-31G(d,p) 

TD

0 1
12 -7.12189276227623  0.59748849694970  0.12852053945395
 6 -4.91170578857886 -1.93118429682968  0.52156868956896
 6 -4.77276720562056  2.84052249954995  1.21188755365537
 6 -9.39470420592059  3.09604510001000 -0.40108296799680
 6 -9.62064237793779 -1.71894740574057 -0.75711214031403
 7 -5.12244566916692  0.42427224532453  0.69640005830583
 6 -4.35429513561356 -0.66385620762076  0.80015803900390
 6 -2.96354535993599 -0.43392281798180  1.28613896809681
 6 -3.06469990839084  1.11744441274127  1.68794952565257
 6 -4.42158915381538  1.44964571337134  1.13472050195020
 6 -2.95123020512051  1.29460174827483  3.19318072697270
 6 -1.81449491049105 -0.59622488388839  0.16260021832183
 6 -0.36238366096610 -0.43039738693869  0.65419954925493
 6  0.62770390759076 -0.71777529042904 -0.56056143664366
 8  0.42168340844084 -1.01226663426343 -1.68779511121112
 8  1.86224803530353 -0.34202159855986 -0.13618040694069
 7 -7.16957740564057  2.57456304610461  0.32532122762276
 6 -6.14065334433443  3.40335131093109  0.77473100670067
 6 -6.47051430453045  4.78303259265927  0.79653034023402
 6 -7.84385709270927  4.88229886138614  0.31564995629563
 6 -8.17051132273227  3.43407260256026  0.01565411171117
 6 -5.53523147984798  5.78776124202420  1.16127088758876
 6 -8.59612741034103  6.07051808550855  0.00026701210121
 6 -8.82629652095209  7.24469058765877  0.67331358115812
 7 -9.15292756535653  0.66929979107911 -0.54543857755776
 6 -9.90045630533053  1.82377233033303 -0.66619294339434
 6 -11.26236533313331  1.51522986208621 -1.00845256475648
 6 -11.31378378227823  0.07820318441844 -1.17520623462346
 6 -9.93413909460946 -0.37539951425143 -0.90534555065507
 6 -12.37704652835284  2.41156172717272 -1.31156793159316
 6 -12.39489403570357 -0.81904931503150 -1.64814562306231
 6 -12.23385087348735 -1.15378778997900 -3.16044116271627
 7 -7.26611607990799 -1.40118973257326 -0.26074075107511
 6 -8.31145138493849 -2.21292646474647 -0.56591154635464
 6 -7.86781292689269 -3.62465073257326 -0.56498377567757
 6 -6.57796168026803 -3.57499183618362 -0.10572230413041
 6 -6.19882247864786 -2.17545582688269  0.10913371757176
 6 -8.70570803820382 -4.89258210061006 -0.79953843224322
 6 -5.38024249454946 -4.35820970447045  0.05640851345135
 8 -5.20039887778778 -5.59575405880588  0.06462349304930
 6 -4.24908848824882 -3.32351814161416  0.50690055535554
 6 -3.66544717561756 -3.68794401570157  1.84110448334834
 8 -3.99299089968997 -3.11412814901490  2.82083476457646
 8 -2.64841603530353 -4.62981770417042  1.67824640554055
 6 -2.13129371727173 -5.12744697379738  2.94254919041904
 6  2.88325083678368 -0.65348314291429 -1.23480468086809
 6  4.17758984798480 -0.46179435573557 -0.53637378637864
 6  5.22577606200620  0.39725599099910 -0.99367914061406
 6  5.19066748974897  1.24888753805381 -2.25048921422142
 6  6.47025135793579  0.52283413361336 -0.13935042024202
 6  7.74785232313231 -0.14563491039104 -0.88303525402540
 6  9.03847572017202 -0.16903203360336 -0.04679649244924
 6  10.22249287378738 -0.61368844054405 -0.85799677017702
 6  10.21803850405040 -2.03755469156916 -1.12615608060806
 6  11.46642951985199 -0.21770555135514  0.00818168676868
 6  12.80604551225123 -0.67509156025603 -0.57697772067207
 6  14.06309577797780 -0.04905610841084  0.10328739623962
 6  15.33275940084008 -0.28391212031203 -0.51359959975998
 6  15.70827249614961 -1.71276891069107 -0.97865748344834
 6  16.47100120602060  0.32697705770577  0.36018052525253
 6  17.92498708810881  0.43487488588859 -0.15795160976098
 6  18.88903927342734  1.24321253825383  0.73088352135214
 6  20.32036070527053  1.42363269676968  0.15721048424842
 6  20.24798615241524  2.19100739793979 -1.09262025472547
 6  21.30010094089409  1.98353128942894  1.29340470387039
 1 -4.07636912141214  3.60210573197320  1.51723631053105
 1 -10.00551094379438  3.90014084908491 -0.49764515601560
 1 -10.39409269866987 -2.37486682748275 -1.19031568376838
 1 -2.63754021092109 -0.95001331523152  2.13616430763076
 1 -2.12603620882088  1.64548813141314  1.27213786418642
 1 -2.10931538903890  0.80273072597260  3.65636935043504
 1 -3.07027208720872  2.38103216071607  3.41356352175217
 1 -3.80988443114311  0.75861054505451  3.51752416521652
 1 -1.77459994489449 -1.68796875727573 -0.18927283648365
 1 -2.04310598309831 -0.12221497109711 -0.70898093769377
 1 -0.23539705710571  0.65379999389939  0.97626802590259
 1 -0.12824062606261 -1.14038855405541  1.51286524172417
 1 -6.04623339873987  6.78168681278128  0.76169187838784
 1 -5.54270125952595  5.86153951705171  2.33725002210221
 1 -4.64639859585959  5.40507167356736  0.60356353195319
 1 -9.09895194769477  5.89088523662366 -0.91004123232323
 1 -9.34009522542254  8.19699043794379  0.04282390419042
 1 -7.94418388418842  7.51561796129613  1.47660604610461
 1 -12.26345045014502  2.94280460646065 -2.26187919261926
 1 -13.18452812201220  1.84559845104510 -1.77605879737974
 1 -12.64679641074108  3.08696735143514 -0.40817206120612
 1 -12.61207598599860 -1.83817326242624 -1.08186314121412
 1 -13.31123984288429 -0.17373411021102 -1.51142667016702
 1 -13.02245859845985 -2.01509619581958 -3.31435131963196
 1 -12.25548911311131 -0.20235477307731 -3.58117161286129
 1 -11.15244152345235 -1.60976584368437 -3.28619723972397
 1 -9.00099970297030 -5.00923166606661 -1.75816908100810
 1 -7.93956332113211 -5.79055906010601 -0.43762337533753
 1 -9.42344222912291 -4.73498852015202 -0.02221404400440
 1 -3.52787348324833 -3.38465171587159 -0.33050832233223
 1 -1.60789895639564 -4.33175961566157  3.38288120342034
 1 -3.12129173777378 -5.36951856945695  3.58913175207521
 1 -1.60868898039804 -6.04180345354535  2.76342029492949
 1  2.78552785688569 -1.70312214811481 -1.63429739473947
 1  2.62684016161616 -0.12296801720172 -2.01688484068407
 1  4.23653455905591 -0.77429964516452  0.32090530653065
 1  4.23404236773677  1.22102081248125 -2.78902727242724
 1  5.33281869356936  2.31113137203720 -1.98014448264826
 1  5.73097040464046  0.84755586308631 -3.10344907590759
 1  6.76383844674467  1.52478647864786  0.09713235603560
 1  6.24211833123312 -0.14655269266927  0.72345206190619
 1  7.50186757145715 -1.10309954515452 -1.16354767836784
 1  7.88412084798480  0.32357556565657 -1.77980090369037
 1  9.10317236883688  0.99306719171917  0.35057268946895
 1  9.00227871657166 -0.89827533373337  0.67776564026403
 1  10.20941849324932  0.00936347404740 -1.81983687318732
 1  9.43985897139714 -2.57253523002300 -1.63204912971297
 1  11.05702825852585 -2.29079586348635 -1.72230647454746
 1  10.40407329332933 -2.54236617861786 -0.22967240694069
 1  11.42578025892589  0.66628885908591  0.33284477197720
 1  11.19661271467147 -0.73008897019702  0.97751837343734
 1  12.79423274217422 -1.72920108130813 -0.59009667726773
 1  12.69214296679668 -0.20274958395840 -1.50608396969697
 1  13.79321075777578  0.97669022502250  0.07034437743774
 1  14.19338209130913 -0.65314491919192  1.13586010251025
 1  15.48898218671867  0.29931941694169 -1.43059741774177
 1  15.49180662356236 -2.27234752685269 -0.06451790569057
 1  14.89562261296130 -2.18643101870187 -1.62812022712271
 1  16.56181581098110 -1.91358688358836 -1.45190666016602
 1  16.41857705840584  1.30465829952995  0.86680322462246
 1  16.46278072527253 -0.07313648874887  1.27030979217922
 1  18.21755269396940 -0.39719626702670 -0.59100244064406
 1  17.72539960446045  1.23810112901290 -1.13229680548055
 1  18.60414120672067  2.21096525422542  1.00365837113711
 1  18.67726488678868  0.75346952795280  1.57741774207421
 1  20.66510142284228  0.39762591079108 -0.16277921392139
 1  19.83843795039504  3.23800736263626 -0.97111070447045
 1  21.33999825192519  2.48399505230523 -1.60836219951995
 1  19.46136004040404  1.77144895569557 -1.82535950495049
 1  21.21684765996600  1.26517462656266  2.08602822002200
 1  22.27965967226723  2.09588081778178  0.87179214551455
 1  21.00468019791979  2.86461654495450  1.53767420792079

