%nproc=4
%Mem=3GB
# td=(NStates=1) iop(3/107=0140000000,3/108=0140000000) CAM-B3LYP/6-31G(d,p) 

TD

0 1
12 -7.14051874357436  0.63990237373737  0.04506087608761
 6 -4.84660347684768 -2.01154838543854  0.66429183158316
 6 -4.66776280688069  2.82902162006201  1.23724382958296
 6 -9.29363612811281  3.20683823682368 -0.41862433773377
 6 -9.55519161716172 -1.68203996969697 -0.72464926982698
 7 -5.01004803600360  0.42204829542954  0.71740956495650
 6 -4.30011225852585 -0.75810695389539  0.76040393509351
 6 -2.83981020162016 -0.42473087108711  1.22727839693969
 6 -2.97878110501050  0.97437613921392  1.65107138643864
 6 -4.34815505020502  1.46974162526253  1.22402679657966
 6 -2.96651283208321  1.04950777007701  3.29922523712371
 6 -1.97850358005801 -0.66276226542654 -0.00442663236324
 6 -0.51341705090509 -0.53228647664766  0.42666604890489
 6  0.49751167436744 -0.68539516141614 -0.76021581168117
 8  0.26424664146415 -0.91014479217922 -1.89319671277128
 8  1.72924152255226 -0.48521846024602 -0.24070945854585
 7 -7.04146178957896  2.64976818671867  0.36547747184718
 6 -6.01369151295130  3.31927569496950  0.70563643974397
 6 -6.26620152855286  4.76273313691369  0.79691795049505
 6 -7.63121790709071  4.91304310951095  0.36215234163416
 6 -8.03686321382138  3.54348128692869  0.08034603320332
 6 -5.28322035593559  5.86199567326733  1.22521267646765
 6 -8.39545955395540  6.05471574117412  0.12276288878888
 6 -8.27461587158716  7.24738388808881  0.68040209950995
 7 -9.05910495159516  0.72557955235524 -0.50052662656266
 6 -9.74681216751675  1.94019734403440 -0.73219603310331
 6 -11.17410136283628  1.57436688118812 -1.13448830853085
 6 -11.29122861006101  0.23171071687169 -1.21578160646065
 6 -9.88927653125313 -0.30097029042904 -0.78678087938794
 6 -12.21162209990999  2.55612085348535 -1.51201065376538
 6 -12.32941673457346 -0.53155927972797 -1.72912224282428
 6 -12.35109701860186 -1.07011720402040 -3.28386903810381
 7 -7.26655961836184 -1.40158499419942 -0.07024970007001
 6 -8.27089141544154 -2.22291083658366 -0.45413699359936
 6 -7.87051909170917 -3.63928447984798 -0.50325062486249
 6 -6.50720851135114 -3.62449543164316 -0.09091117281728
 6 -6.22117584928493 -2.22993094889489  0.13023485888589
 6 -8.68717105660566 -4.88195429382938 -0.82277566066607
 6 -5.38107357025703 -4.36972053545355  0.23088806290629
 8 -5.20776176847685 -5.62046890389039  0.18969491809181
 6 -4.27150165276528 -3.42266971437144  0.63772209380938
 6 -3.55290946774677 -3.80999894259426  2.00046601510151
 8 -3.72717550095010 -3.11304866276628  2.96442980118012
 8 -2.81659701250125 -4.85892451095110  1.99340837833783
 6 -2.16042499949995 -5.25609081498150  3.13324072447245
 6  2.77685400580058 -0.65071336023602 -1.37651116831683
 6  4.13558444364436 -0.48371363926393 -0.67283984678468
 6  5.06490198149815  0.35327185518552 -1.01989486648665
 6  4.91136486208621  1.20477815311531 -2.22582671767177
 6  6.34382066076608  0.35898651465147 -0.27130765516552
 6  7.61986343894389 -0.20785933393339 -1.07838816751675
 6  8.95676338793879 -0.13314513061306 -0.26646274867487
 6  10.25260072067207 -0.57483914711471 -1.07640336033603
 6  10.08350162676268 -2.09931781168117 -1.48599556555656
 6  11.39742440624062 -0.33199809090909 -0.20896885938594
 6  12.75856359185919 -0.62804283778378 -0.81643914901490
 6  13.84946621842184 -0.15095080938094  0.14343075467547
 6  15.28080407140714 -0.12498158175818 -0.52232788528853
 6  15.71883815481548 -1.61214960326033 -0.99669149544954
 6  16.32526951965196  0.35837235453545  0.38555329002900
 6  17.78620620832083  0.63029675927593  0.00032350535054
 6  18.69640005860586  1.37946602510251  0.96303956065607
 6  20.10029283368337  1.42136156865687  0.54891159715972
 6  20.24937778357836  2.22604991009101 -0.86862155805581
 6  20.99942500950095  2.10170187008701  1.49586352635264
 1 -3.92862322582258  3.52571582298230  1.56932302810281
 1 -9.97092921622162  3.98244051855186 -0.59701422762276
 1 -10.34201862596260 -2.30122565766577 -0.85498331773177
 1 -2.58203549074908 -1.04849505220522  2.03345983668367
 1 -2.08639210551055  1.60135219631963  1.31385503450345
 1 -2.01327441384138  0.43017212361236  3.73558389578958
 1 -3.05128223732373  2.10340956375638  3.75469349154915
 1 -3.78176097659766  0.30065521982198  3.56859854505450
 1 -2.11864698369837 -1.45167583838384 -0.55806381348135
 1 -2.22137850685069  0.08782640244024 -0.54127086168617
 1 -0.05901132983298  0.41762134943494  0.86144000700070
 1 -0.16839525982598 -1.31249201580158  1.17242070037004
 1 -5.68812298999900  6.73504101610161  0.66673650495049
 1 -5.36664813611361  6.35490837223723  2.20600261276128
 1 -4.33069791439144  5.33103737173717  0.91333206580658
 1 -9.26918717851785  5.67312069406941 -0.56150750345035
 1 -9.00402946664666  8.01531125212521  0.75654543024302
 1 -7.28174610671067  7.39349618601860  1.35347430773077
 1 -12.00625109810981  2.86882602970297 -2.57931376287629
 1 -13.13035033273327  1.95797453985399 -1.86532226042604
 1 -12.42790382308231  3.29589692379238 -0.58834927442744
 1 -12.51626359125913 -1.46184710751075 -1.02607610851085
 1 -13.23461576067607 -0.09504221472147 -1.57663341774177
 1 -13.42586778597860 -1.36270993309331 -3.50397135523552
 1 -12.10936134183418 -0.22616108740874 -3.88314729312931
 1 -11.51540638003800 -1.97206823402340 -3.29403768196820
 1 -8.90794541314131 -4.86601310211021 -1.95717178017802
 1 -8.09320370557056 -5.77751370467047 -0.44325428052805
 1 -9.72103628262826 -4.93553200160016 -0.25462773147315
 1 -3.55061257975798 -3.58575518111811 -0.17576531463146
 1 -1.56589997759776 -4.34416663006301  3.37324904250425
 1 -2.82615905320532 -5.95645517041704  3.84474551225123
 1 -1.31980250075008 -6.11682246704671  2.78182154325433
 1  2.78387644244424 -1.69207583038304 -1.81347279597960
 1  2.29894633593359 -0.03364527972797 -1.99138019551955
 1  4.28316880358036 -1.14752316611661  0.26165756595660
 1  3.83584889638964  0.70551609430943 -2.67602808850885
 1  5.12943987618762  2.25143556745675 -2.16428386678668
 1  5.79380894939494  0.97001819271927 -3.02012826972697
 1  6.36867505140514  1.36510649124912  0.00796040994099
 1  6.26870474257426 -0.29740707740774  0.41901809730973
 1  7.37668979177918 -1.22006267926793 -1.32277703490349
 1  7.93942650115012  0.39310841384138 -2.05653647654765
 1  9.01012705700570  0.97156665416542 -0.04958253015302
 1  8.89627274807481 -0.65536388908891  0.66068219161916
 1  10.31326595839584 -0.03730758295830 -2.20279543754375
 1  9.34862447154716 -2.12742102560256 -2.15674405630563
 1  11.13374251485149 -2.48324172347235 -1.91914727282728
 1  9.56296849394939 -2.90075419011901 -0.75191258495850
 1  11.42708435003500  0.67022345574557  0.13543131393139
 1  11.35576317181718 -0.96426772437244  0.66914323442344
 1  12.73632158465847 -1.59512693199320 -1.11423369486949
 1  12.92574840474047 -0.28413347734773 -2.09702403610361
 1  13.68299972027203  0.89324468776878  0.37540236893689
 1  14.11647995859586 -0.68134451335134  1.25998837283728
 1  15.32010241164116  0.42703610061006 -1.38723999279928
 1  15.46101989878988 -2.32879222042204 -0.26517465296530
 1  15.13808545294529 -1.90649516951695 -2.05528690219022
 1  16.82543082268227 -1.79262015901590 -1.17999451275128
 1  16.17438071157116  1.68807714141414  0.48856477277728
 1  16.51482556035604 -0.01476776157616  1.43308180288029
 1  18.34139087678768 -0.30248676267627 -0.26339653525352
 1  17.67046435603561  1.03438233233323 -1.06399214281428
 1  18.19043810071007  2.41421268926893  0.94340628742874
 1  18.62028799129913  1.11622646214621  1.80053329882988
 1  20.74620445274527  0.38049904750475  0.40542643484348
 1  19.49625644414441  3.18239901640164 -0.69618180288029
 1  21.33544734553455  2.51018216031603 -1.12056003720372
 1  19.80578897649765  1.79086937713771 -1.72757114151415
 1  21.08479233273327  1.38916455735574  2.34938860766077
 1  21.84301219401940  2.15647611831183  0.90764741834183
 1  20.59606968546855  3.20901701890189  1.66310344704470

