%nproc=4
%Mem=2GB
# td=(NStates=1) CAM-B3LYP/6-31G(d,p) 

TD

0 1
<<<<<<< HEAD
12 -7.01332190519052  0.60556930503050  0.05015270267027
 6 -4.83369798779878 -1.91469264766477  0.46462299499950
 6 -4.73259318821882  2.82150059735974  1.02008837373737
 6 -9.37951268676868  3.07540303580358 -0.37264012371237
 6 -9.63369368306831 -1.76719223022302 -0.78430485958596
 7 -5.10719414401440  0.43123294139414  0.66404682298230
 6 -4.36723642974297 -0.69549937193719  0.68764678787879
 6 -2.86556556195620 -0.28068749444945  1.23225357955796
 6 -3.05213865226523  1.16286895519552  1.68738946964696
 6 -4.40309730463046  1.42872362116212  1.13558058795880
 6 -3.00795587768777  1.35964825292529  3.15271668056806
 6 -1.86390985198520 -0.61546680808081 -0.01205724742474
 6 -0.52121954455446 -0.50726507370737  0.52342647194719
 6  0.53774491169117 -0.75154866776678 -0.61006638713871
 8  0.22801404150415 -1.00406581418142 -1.73024935663566
 8  1.75483729422942 -0.39541693809381 -0.31991878077808
 7 -6.93600404830483  2.58138372817282  0.23038173367337
 6 -6.03188246724673  3.40464143994399  0.67656118971897
 6 -6.36070332343234  4.83938822822282  0.73568425562556
 6 -7.69230193719372  4.87809844134413  0.34011240254025
 6 -8.07006127772777  3.44706390169017  0.06440898719872
 6 -5.47757571427143  5.90148261416142  1.10366512701270
 6 -8.62263006060606  5.99507054075408  0.19735672107211
 6 -8.41191508280828  7.13658977757776  0.79001525132513
 7 -9.11583385598560  0.56253911501150 -0.43603763746375
 6 -9.86774303400340  1.76507646074607 -0.58452477657766
 6 -11.23807290389039  1.41407974707471 -0.96417813731373
 6 -11.37010941484148  0.11924728882888 -1.13458217221722
 6 -9.97706338703870 -0.41191316561656 -0.76132114821482
 6 -12.16582540624062  2.52522309330933 -1.43740051485148
 6 -12.34592913921392 -0.76401381148115 -1.71089189768977
 6 -12.26027351575157 -1.08250066126613 -3.15482060066007
 7 -7.25429489778978 -1.42785239883988 -0.09755443244324
 6 -8.34035427522752 -2.27124229632963 -0.48984393959396
 6 -7.90552669826983 -3.57132540004000 -0.39526680398040
 6 -6.56339022312231 -3.55403974097410  0.03721198929893
 6 -6.19675227162716 -2.21337961926193  0.13849665386539
 6 -8.62561002840284 -4.83095593799380 -0.63924240264026
 6 -5.41823629392939 -4.39861374487449  0.35560843344334
 8 -5.27465630353035 -5.62315679907991  0.20152718341834
 6 -4.20175375477548 -3.31659744954495  0.51119098439844
 6 -3.59049968086809 -3.63218844014401  1.84879525242524
 8 -3.77344894549455 -3.04283101930193  2.84234691579158
 8 -2.64980617431743 -4.65374009640964  1.61293987488749
 6 -1.98831941984198 -5.14115834493449  2.80640557605761
 6  2.80116262796280 -0.58748654325433 -1.40204140454045
 6  4.08326041504150 -0.49793797009701 -0.63628377737774
 6  5.16349983438344  0.27299356475648 -1.07223699639964
 6  5.19229765276528  1.05566821612161 -2.36331049634963
 6  6.39453378617862  0.48039989018902 -0.24128061326133
 6  7.71846938483848 -0.09248959585959 -0.99868681918192
 6  8.95465733833383 -0.05356048644864 -0.11875368816882
 6  10.14167479197920 -0.58344541624162 -0.87974894539454
 6  9.95818251845184 -2.12027296339634 -1.31053451845185
 6  11.43746662356236 -0.45778955975598  0.00574144274427
 6  12.74406931463146 -0.60950500160016 -0.61878190109011
 6  13.95622509090909 -0.19348055085509  0.23879094659466
 6  15.33187931283128 -0.18295202430243 -0.39914815461546
 6  15.76824849374937 -1.51012864666467 -1.07721733943394
 6  16.38188229412941  0.38058241824182  0.50675518271827
 6  17.81357594699470  0.62099349774978  0.02200638603860
 6  18.76923729322932  1.30479869686969  0.97641807480748
 6  20.20265893509351  1.42414274777478  0.29705446864686
 6  20.20026137993800  2.23914221142114 -1.03194418711871
 6  21.14702563336334  1.92638557485749  1.27795315871587
 1 -3.97200868536854  3.60948647004700  1.40198478537854
 1 -9.98311870457046  3.90757159215922 -0.44484987648765
 1 -10.17430071947195 -2.47441678247825 -1.16079273147315
 1 -2.50825728262826 -1.03925223912391  2.03845453665366
 1 -2.08814241944194  1.55988957155716  1.05832648304830
 1 -1.96355081258126  0.93815426832683  3.62000571407141
 1 -3.14504956495650  2.42805686318632  3.41826399179918
 1 -3.66222966566657  0.79741442544254  3.87515992879288
 1 -1.98736122102210 -1.50429038943894 -0.45989989918992
 1 -1.90932260476048  0.01044829522952 -0.72822286188619
 1 -0.20077359475948  0.49394400830083  0.96215661476148
 1 -0.40108791079108 -1.48233274847485  1.19975393059306
 1 -5.62666144154415  6.87300594469447  0.28720442964296
 1 -5.81102809220922  6.33183654675468  2.17648394549455
 1 -4.58824278027803  5.88036920332033  1.22872604820482
 1 -9.50337238973897  6.08262441054105 -0.33742397059706
 1 -9.13410462636264  8.06860759965997  0.81501112291229
 1 -7.49479894569457  7.44363076257626  1.29492787828783
 1 -11.82909701480148  3.18755908190819 -2.29703270797080
 1 -13.19279894909491  1.96216010721072 -1.66294748624862
 1 -12.57201893299330  3.13140179487949 -0.59830107410741
 1 -12.67451222962296 -1.73093253835383 -1.19095405030503
 1 -13.37910662956296 -0.47815455225523 -1.53790931843184
 1 -13.16803315591559 -1.48517320352035 -3.58849873437344
 1 -11.91777534173417 -0.17653219081908 -3.64153764946495
 1 -11.48884516381638 -1.85367023412341 -3.38251687168717
 1 -8.81949155215522 -4.82502324522452 -1.69430269436944
 1 -8.24870423522352 -5.77936794099410 -0.59183879687969
 1 -9.68060794569457 -4.78255327662766  0.00211838923892
 1 -3.45233592949295 -3.48661191189119 -0.46420169166917
 1 -1.00875904240424 -4.42776921662166  3.26418933423342
 1 -2.47606721532153 -5.41964358195820  3.72304514341434
 1 -1.47494560606061 -6.07642691589159  2.66110006290629
 1  2.51813111721172 -1.49946178207821 -2.06306027102710
 1  2.58767624522452  0.27636191579158 -1.98006115831583
 1  4.15765667126713 -1.00063227842784  0.37995121112111
 1  4.29378834233423  0.80045875627563 -2.93674204390439
 1  5.23486889858986  2.24492475137514 -2.11171763996400
 1  6.06480378797880  0.59835094259426 -3.02560129112911
 1  6.71450351325132  1.63435743574357 -0.08455581278128
 1  6.39468358775878 -0.00585862326233  0.69216893359336
 1  7.37477486218622 -1.12437167236724 -1.47203852745275
 1  7.90759319521952  0.53418662676268 -1.85630855445545
 1  8.91662371397140  0.98353623862386  0.15755338753875
 1  8.70417890659066 -0.68946445264526  0.76880474417442
 1  10.16378392979298 -0.11543900620062 -1.88538342784278
 1  8.99520450595059 -2.48229620612061 -1.94681060586059
 1  10.74806736243624 -2.63927071097110 -1.85394963886389
 1  9.85687857385739 -2.72570451245124 -0.37553699339934
 1  11.46910459135914  0.40328255845585  0.56748823632363
 1  11.44438749214922 -1.14329029032903  0.92289291089109
 1  12.98772209110911 -1.57204536573657 -1.27472514011401
 1  12.59973372587259  0.04207489848985 -1.74757811911191
 1  13.52400383708371  0.73225578157816  0.88788613161316
 1  14.10042279537954 -0.84034363906391  1.10229674617462
 1  15.25460874937494  0.64726421142114 -1.31703606160616
 1  15.88913635653565 -2.26139643174317 -0.36492794669467
 1  14.99304235493549 -1.89724209980998 -1.87064447954795
 1  16.75188481788179 -1.31620714561456 -1.63733520302030
 1  16.06822202290229  1.27288512221222  0.77619416371637
 1  16.31198564576458 -0.28698787388739  1.56477923912391
 1  18.24027496619662 -0.14451099849985 -0.67116045644564
 1  17.73588065256526  1.23147046594659 -1.06658023382338
 1  18.24612540514051  2.15629978767877  1.36591459675968
 1  19.06727388768877  0.81531571257126  1.95622562286229
 1  20.51409632233223  0.33188933713371  0.22323938793879
 1  20.12812691929193  3.31291485338534 -0.95814940834083
 1  21.20741499359936  2.17746439923992 -1.34272563586359
 1  19.51754565896590  2.02423423422342 -1.77216418541854
 1  21.14037001220122  1.39926803590359  2.37858747594759
 1  22.30460216651665  1.88768999869987  0.86416138243824
 1  20.90210994089409  2.86124620792079  1.74899534003400
=======
12 -7.11443201620162  0.58455720382038  0.07165485288529
 6 -4.86984160216022 -1.92954413281328  0.56555308800880
 6 -4.77125705460546  2.86044449174917  1.18866523142314
 6 -9.37226196169617  3.21505700120012 -0.34443730343034
 6 -9.51610192389239 -1.65471098209821 -0.82698912801280
 7 -5.04062748734873  0.43431324942494  0.71478189648965
 6 -4.25367507360736 -0.73812363436344  0.83787181038104
 6 -2.83698270367037 -0.40653007870787  1.23754410861086
 6 -3.00232367076708  1.13666633493349  1.70585131583158
 6 -4.34306130103010  1.50501124992499  1.22354938483848
 6 -2.84697978007801  1.41166345444544  3.20046145504550
 6 -1.83643710471047 -0.61365662706271  0.13168712701270
 6 -0.39111653425343 -0.51380572777278  0.56431056035604
 6  0.48387952515252 -0.80024353725373 -0.55656103660366
 8  0.21569280938094 -1.24855026262626 -1.68757508920892
 8  1.86180799129913 -0.50442783918392 -0.19075586448645
 7 -7.07160760866087  2.54532012181218  0.43589228472847
 6 -6.03537281628163  3.35241621742174  0.83103663726373
 6 -6.40563781688169  4.79167345674567  0.89432011921192
 6 -7.66499920692069  4.81839247074707  0.39430782208221
 6 -8.18064233583358  3.49690888618862  0.13865641194119
 6 -5.39291724842484  5.83060552645265  1.24174893539354
 6 -8.38901669926993  6.08937997169717  0.04458144354435
 6 -8.44637852915292  7.22300841944194  0.75276152595260
 7 -9.14421669426943  0.74531739283928 -0.51771580528053
 6 -9.88769502920292  1.88994894799480 -0.63560988508851
 6 -11.07361645824582  1.51032937203720 -1.23211493099310
 6 -11.21210361426143  0.13288865296530 -1.38627734173417
 6 -9.88722440314031 -0.35825780008001 -0.79979499559956
 6 -12.23112193589359  2.59826039703970 -1.48162493729373
 6 -12.35262980928093 -0.62457986808681 -1.91808261676168
 6 -12.17367485588559 -0.93085549674967 -3.36683180178018
 7 -7.17464693299330 -1.41169078267827 -0.30513519051905
 6 -8.23109334913491 -2.19557472957296 -0.62854780998100
 6 -7.81697784338434 -3.57892616011601 -0.50204748204820
 6 -6.54122800690069 -3.58895323232323 -0.04282601450145
 6 -6.14433703010301 -2.20068835013501  0.10545334953495
 6 -8.70864833223322 -4.84301714411441 -0.79203768216822
 6 -5.32332680298030 -4.31851573507351  0.22517539013901
 8 -5.23125196309631 -5.53895837923792  0.33239026972697
 6 -4.20140371977198 -3.31931772157216  0.64412427772777
 6 -3.57647827872787 -3.79143436473647  1.89629000190019
 8 -3.79825142574257 -3.25021175737574  2.99229191029103
 8 -2.78689988368837 -4.83905862826283  1.73636221712171
 6 -2.30285087298730 -5.35247947704771  3.03505844134413
 6  2.71393390509051 -0.88340613521352 -1.10439163956396
 6  4.10824291329133 -0.59669784608461 -0.64354450345035
 6  5.10963444784478  0.27942420782078 -1.19585935863586
 6  5.14632305530553  1.00703335263526 -2.40314447974797
 6  6.34052838563856  0.27465931613161 -0.26258274347435
 6  7.55764330223022 -0.28938928582858 -0.96784373487349
 6  8.78753062566257 -0.24411954235424 -0.16464827762776
 6  10.14890551505150 -0.70309738143814 -0.86024699519952
 6  10.11513821402140 -2.18497943404340 -1.28779224422442
 6  11.41821469836984 -0.40301408220822  0.03025389398940
 6  12.78356326402640 -0.53739779087909 -0.76439646254625
 6  13.96067553595359 -0.09766096889689  0.13949101660166
 6  15.39889601450145 -0.10478420752075 -0.51897013681368
 6  15.71565323422342 -1.55857349114911 -0.91043066076608
 6  16.31647575347535  0.50852521252125  0.54175868306831
 6  17.70388497789779  0.83930532893289 -0.19147496209621
 6  18.70389075857586  1.54191240824082  0.76978741174117
 6  20.10057872707270  1.50935126862686  0.30193495669567
 6  20.25815716951695  2.25172346954695 -1.10772176487649
 6  21.06360729152916  2.16088902520252  1.24170953435344
 1 -4.07001848634864  3.51990751215121  1.63347793469347
 1 -9.90315070777078  4.02471330633063 -0.79090448194819
 1 -10.21736502590259 -2.52804214501450 -1.30613726592659
 1 -2.62750920782078 -1.04087240114011  2.02790348154815
 1 -2.33389699489949  1.72083566616662  1.08071872227223
 1 -1.71694615211521  1.06794724762476  3.46957067056706
 1 -3.09261432143214  2.48672272977298  3.55168733413341
 1 -3.44620806350635  0.67915259925993  3.81229364216422
 1 -1.90427291219122 -1.65624558495850 -0.57685159435944
 1 -2.04190586308631  0.07700495089509 -0.68054809440944
 1 -0.16855037243724  0.37915252915292  1.02625302440244
 1 -0.46288409040904 -0.99096361156116  1.43927788298830
 1 -5.73067184258426  6.74995363946395  0.67609331853185
 1 -5.08561555095510  6.00942430553055  2.36143244034403
 1 -4.35507946394640  5.57309847624763  0.91836501210121
 1 -9.00534258675868  6.16694284238424 -0.83787401560156
 1 -9.06208742464247  8.13013375227523  0.33618324012401
 1 -7.86023548934894  7.39929632913291  1.73071145664566
 1 -11.92347645274528  3.26208653465347 -2.08974197889789
 1 -13.24997466666667  2.18388227942794 -1.82829402090209
 1 -12.47023875497550  3.10939959465947 -0.60748199219922
 1 -12.49684446284629 -1.67308675377538 -1.53652860776078
 1 -13.37877659655966 -0.11596833363336 -1.51512704020402
 1 -13.09299565216522 -1.53888857505751 -3.78825871037104
 1 -11.97271083528353 -0.03849838743874 -4.03104660036004
 1 -11.34288056735674 -1.49107397449745 -3.55869448944894
 1 -9.00284988798880 -5.08399914281428 -1.87025028912891
 1 -8.10761012581258 -5.74359436363636 -0.54590420342034
 1 -9.35084496939694 -4.99149417071707 -0.06736855945594
 1 -3.31357205310531 -3.57783103380338 -0.16328159965997
 1 -1.75710387688769 -4.58586502620262  3.58675159045905
 1 -3.19263887248725 -5.77216883448345  3.61092393129313
 1 -1.58320643214321 -5.97933720692069  2.70417437033703
 1  2.61642094619462 -2.05020685658566 -1.38911287628763
 1  2.60703818141814 -0.24707042744274 -2.04651780398040
 1  4.53951485708571 -1.11949416461646  0.19191240724072
 1  4.03654261776178  1.27965667606761 -2.74512288198820
 1  5.55459087078708  1.88458871777178 -2.22208867706771
 1  5.52302961056106  0.47590869836984 -3.32862159315932
 1  6.66603866676668  1.32027602760276  0.08515115791579
 1  6.17010112951295 -0.49513755115512  0.56176589328933
 1  7.15185256995700 -1.31558079327933 -1.04148547214721
 1  7.73488592449245  0.19500270837084 -1.96705962956296
 1  8.83582563416341  0.76897478247825  0.16152378457846
 1  8.43428191689169 -0.77243274947495  0.82711057475748
 1  10.12198975037504  0.02198473617362 -1.69098398789879
 1  9.17168215371537 -2.20200817731773 -1.81884780958096
 1  10.98740129582958 -2.54884166806681 -1.87698194209421
 1  10.13980686668667 -2.84114605660566 -0.54150359005901
 1  11.35311299219922  0.77060929112911  0.28055954345435
 1  11.19530258365837 -0.88491445274527  1.08078870047005
 1  13.05843916281628 -1.49639780098010 -1.34953262086209
 1  12.79687343984398  0.30624131513151 -1.47281064236424
 1  13.82724416111611  1.06246880288029  0.37225456845685
 1  13.88531128422842 -0.64723432813281  1.00218673517352
 1  15.37951123962396  0.40687017201720 -1.57946230423042
 1  15.62522996589659 -2.35960625272527 -0.04212566646665
 1  15.16735978667867 -1.95228760436044 -1.67918533363336
 1  16.55866549594960 -1.81826735163516 -1.30476194569457
 1  15.85769096979698  1.39569740344034  1.14112065636564
 1  16.44243869106911 -0.25461463656366  1.18462122332233
 1  18.08023896259626 -0.18678522592259 -0.49819315971597
 1  17.62221928642865  1.40863818271827 -1.13202677847785
 1  18.28198899149915  2.55360951865187  0.90406841214121
 1  18.64150131043105  1.01866604760476  1.71851185148515
 1  20.51219613231323  0.37647379557956  0.03118018201820
 1  19.75051915851585  3.16418998089809 -0.87908150155016
 1  21.28032228432843  2.45727238003800 -1.52578394169417
 1  19.69788369276928  1.61805361616162 -1.80094706370637
 1  21.05233120832083  1.82299040814081  2.39837945514551
 1  22.18944065036504  2.09647087678768  1.00828579487949
 1  20.84727445734574  3.20726080938094  1.34071451195120
>>>>>>> 8e03b5b5abfc0030b3aa597dc0de36371bfbd096

