%nproc=4
%Mem=2GB
# td=(NStates=1) CAM-B3LYP/6-31G(d,p) 

TD

0 1
12 -7.11048162116212  0.53467221532153  0.01319900730073
 6 -4.87800241824182 -1.97229840824082  0.48409494219422
 6 -4.87697762666267  2.87699614691469  1.16537290219022
 6 -9.38569330483048  3.09684518001800 -0.50330319001900
 6 -9.57642795649565 -1.80437594859486 -0.96733316241624
 7 -5.13123654825483  0.38472829092909  0.70473089138914
 6 -4.33289299539954 -0.73335315731573  0.70840886408641
 6 -2.96683568896890 -0.38659808550855  1.17303765796580
 6 -2.95630906930693  1.07012968126813  1.65346607730773
 6 -4.44326132103210  1.42623337213721  1.14399142904290
 6 -2.91654673677368  1.20568285638564  3.17983939283928
 6 -1.87263072407241 -0.64363962536254  0.09801375967597
 6 -0.40553797639764 -0.45614996219622  0.68371250055005
 6  0.54623576077608 -0.53675718861886 -0.45127050755076
 8  0.34023526362636 -0.85539094669467 -1.63770010171017
 8  1.81294310481048 -0.22347974437444 -0.03776056495650
 7 -7.08471891979198  2.57747333713371  0.27145584108411
 6 -6.00789006800680  3.36964794059406  0.72050558415842
 6 -6.43521077417742  4.70610489988999  0.78384907210721
 6 -7.68567127412741  4.84856548804880  0.31758014931493
 6 -8.20525479707971  3.38089728502850  0.00715326162616
 6 -5.54441239793979  5.89076154205421  1.03980874137414
 6 -8.50252805040504  6.11321235493549  0.11204819021902
 6 -8.64879877117712  7.17547366596660  0.94695094489449
 7 -9.13455572817282  0.62662552365237 -0.53925795949595
 6 -9.88670493019302  1.70368032113211 -0.70678700280028
 6 -11.27461655825582  1.45639397849785 -1.14977669716972
 6 -11.24782718661866  0.09817518161816 -1.25339405340534
 6 -9.98816449714971 -0.44933690799080 -0.98626364246425
 6 -12.29677850155015  2.46735730673067 -1.32868964376438
 6 -12.42486703300330 -0.83802121222122 -1.83855466396640
 6 -12.18741623002300 -1.15711812301230 -3.31424654325433
 7 -7.29070853915392 -1.39966958055806 -0.12784746174617
 6 -8.30826106590659 -2.25064023612361 -0.57523247844784
 6 -7.82377852345235 -3.60017828532853 -0.58785606290629
 6 -6.54073795789579 -3.55420975797580 -0.09236096799680
 6 -6.20994359075908 -2.17480576187619  0.05466827102710
 6 -8.61452892029203 -4.84324716711671 -0.90220869926993
 6 -5.30760523082308 -4.35214909840984  0.20974384698470
 8 -5.15158399629963 -5.61139562296230  0.24559158985899
 6 -4.21370494989499 -3.33467925772577  0.53698356365637
 6 -3.73500413131313 -3.71066628792879  1.99205957885789
 8 -4.00982258285829 -3.11759849604961  2.94677735883588
 8 -2.87140833453345 -4.73111783418342  1.86671525242524
 6 -2.39218980688069 -5.21350557965797  3.19645458095810
 6  2.81113362506251 -0.55659345394539 -1.05412661306131
 6  4.19590167916792 -0.25778395469547 -0.40965111411141
 6  5.13054653905391  0.48082434783478 -0.75164493719372
 6  5.19402782578258  1.29541219051905 -2.03421758705871
 6  6.44878921172117  0.56951880208021  0.02080559535954
 6  7.63003054095410 -0.28780912781278 -0.79045599609961
 6  9.02744461706171 -0.25561069146915 -0.09383119591959
 6  10.17228785328533 -0.51043811551155 -0.97042801330133
 6  10.09992669286929 -1.95651658775878 -1.42907637263726
 6  11.48644152105211 -0.41616539733973 -0.01011014241424
 6  12.80520542824282 -0.51370542164216 -0.75305532843284
 6  14.02781224962496 -0.09126032883288  0.11700876837684
 6  15.37155328022802 -0.04781851095109 -0.63075131493149
 6  15.63030469936994 -1.55533316711671 -0.94813443114311
 6  16.45652975887589  0.55191955195520  0.25743025022502
 6  17.87806239563956  0.54566596499650 -0.36274208880888
 6  18.88914928442844  1.18790700770077  0.67400783378338
 6  20.32617128632863  1.17593792729273  0.20507527072707
 6  20.53070442424243  2.03252154935494 -1.13582457515752
 6  21.16350728152815  1.89833276957696  1.29294465786579
 1 -4.05407689218922  3.58813433483348  1.58604319121912
 1 -10.02275266796680  3.90956179117912 -0.77113250475048
 1 -10.34276756615662 -2.51216055685569 -1.32628928112811
 1 -2.59281573847385 -1.00852916681668  1.97444813601360
 1 -2.25444905010501  1.88700228282828  1.32022267266727
 1 -1.84626908440844  1.07370782368237  3.40751446494649
 1 -3.08294335433543  2.30503456095610  3.47598976437644
 1 -3.47205064776478  0.57432211621162  3.82505491829183
 1 -2.02756524142414 -1.64995495589559 -0.50504441364136
 1 -1.97451912441244  0.06228347874788 -0.65626566616662
 1 -0.23056657405741  0.59484409830983  0.86579697879788
 1 -0.18019582158216 -1.11759627482748  1.55155911111111
 1 -5.86040481588159  6.68992763686369  0.41893760296030
 1 -5.37634462386239  6.06278964206421  2.06587288438844
 1 -4.40059401540154  5.78217938433843  0.80615379097910
 1 -9.15729778227823  5.93442959105911 -0.79422965116512
 1 -9.26453766966697  7.97263800270027  0.57440706250625
 1 -8.21351081688169  7.13272967246725  1.94485287078708
 1 -11.84160826592659  3.44925525152515 -1.84791779647965
 1 -13.14814448364836  1.97716160736074 -2.20139133063306
 1 -12.98407013811381  2.44793344804480 -0.12906415041504
 1 -12.51250602900290 -1.67490693579358 -1.40057501240124
 1 -13.27821654055406 -0.21142787958796 -1.66084161166117
 1 -13.04696104870487 -1.91533621982198 -3.51425130963096
 1 -12.21730529472947 -0.25061959955996 -3.90706420212021
 1 -11.24647092639264 -1.62952781988199 -3.54775339533953
 1 -8.96178578157816 -4.70554129702970 -2.01892515661566
 1 -8.03090245504550 -5.71056106030603 -0.65707532053205
 1 -9.49361924682468 -4.87570259155916 -0.25105692829283
 1 -3.48255895179518 -3.43914716541654 -0.16425169666967
 1 -1.26563472997300 -4.53489992969297  3.44243715901590
 1 -3.09468907750775 -5.15890750835084  4.05931877077708
 1 -2.22224033553355 -6.28548782198220  2.87521147404741
 1  2.93272257635764 -1.63899573547355 -1.16525049004900
 1  2.66717419501950 -0.10868658905891 -1.94589774197420
 1  4.20348125372537 -0.76598881408141  0.61573478947895
 1  4.07655661916192  1.34239294969497 -2.25367373707371
 1  5.73898931063106  2.27562782168217 -1.81160762896290
 1  5.91798910651065  0.72187329482948 -2.77774650565057
 1  6.83665572847285  1.71223522352235 -0.06060341754175
 1  6.34942906230623  0.23372533513351  1.20063978067807
 1  7.45161254595460 -1.33235247044705 -0.87665898949895
 1  7.66483891979198  0.37007021512151 -1.67422034563456
 1  8.94727677927793  0.81996988198820  0.40768840104010
 1  8.91270975967597 -0.81321682788279  0.85285314901490
 1  10.40800835223522  0.02456499419942 -1.78232312181218
 1  9.42941792729273 -2.16708468496850 -2.28784470927093
 1  11.03648620432043 -2.29080586448645 -1.99411365526553
 1  9.79659254525453 -2.71908385038504 -0.60147958765877
 1  11.29711739263926  0.43929615981598  0.41170265776578
 1  11.37076012941294 -1.03306926822682  0.94905552715272
 1  12.88898221712171 -1.46037419861986 -0.93981164876488
 1  13.02837659015901  0.09351004200420 -1.69225258655866
 1  13.67022845954595  0.85766832283228  0.53753109610961
 1  14.10790354345434 -0.66904650935093  1.00564708120812
 1  15.31214450295029  0.55050453545355 -1.63391774977498
 1  15.83922136503650 -2.30990128222822 -0.32123357725773
 1  14.88087113781378 -1.97707008260826 -1.59882729782978
 1  16.35201483088309 -1.84109963486349 -1.73789525902590
 1  16.26444164486449  1.60627846154615  0.52536908120812
 1  16.37546199339934 -0.13064223932393  1.15459822102210
 1  18.19688062676268 -0.37812435983598 -0.54945828622862
 1  17.76550361486149  1.10904822372237 -1.31442501830183
 1  18.55326611921192  2.25299945764576  0.75658366366637
 1  18.77323448374838  0.85838001900190  1.70986098639864
 1  20.73257817051705  0.27099324752475  0.04976204020402
 1  20.23302740934093  2.99848341024102 -0.97121071447145
 1  21.59079333143314  1.95769242204220 -1.45927729102910
 1  19.97819172357236  1.41841365216522 -1.92958992799280
 1  21.04941091629163  1.34812292139214  2.30128974617462
 1  22.26091779807981  1.76422765246525  0.98291325762576
 1  20.75106483638364  2.80946102940294  1.52707314781478

