%nproc=4
%Mem=2GB
# td=(NStates=1) CAM-B3LYP/6-31G(d,p) 

TD

0 1
12 -7.09553012601260  0.65662441054105  0.11576926432643
 6 -4.83038765676568 -1.97511869026903  0.56077260996100
 6 -4.73707363626363  2.90312876017602  1.20591695659566
 6 -9.36124085958596  3.12282777827783 -0.56743960366037
 6 -9.58374868856886 -1.74436994799480 -0.80923735283528
 7 -5.08216164076408  0.36887670577058  0.69184960326033
 6 -4.30206991309131 -0.66761658365837  0.82360038323832
 6 -2.95241424682468 -0.31702112781278  1.20909126332633
 6 -2.97433087148715  1.10180284858486  1.69340007070707
 6 -4.40359735463546  1.50807155595560  1.21326835673567
 6 -2.98694377647765  1.16403869196920  3.30781219011901
 6 -1.85110857185719 -0.54180944234423  0.09180313861386
 6 -0.51745916851685 -0.13706805400540  0.52954708400840
 6  0.45561669886989 -0.52608612151215 -0.68517389788979
 8  0.14535577567757 -1.00930633823382 -1.75774210591059
 8  1.72357416791679 -0.45468286468647 -0.24231102000200
 7 -7.11590203810381  2.57087267706771  0.31640033553355
 6 -6.08257753675368  3.32197317311731  0.86141967556756
 6 -6.54274152725272  4.75847013641364  0.85311599879988
 6 -7.75458816581658  4.79471010251025  0.23620201150115
 6 -8.07743201480148  3.50295949124913 -0.06013346704670
 6 -5.65057301400140  5.86198866476648  1.36261102160216
 6 -8.53554135173517  5.94606564026403  0.21089807520752
 6 -8.49106299759976  7.08656477507751  0.88918516831683
 7 -9.10580285288529  0.62397525862586 -0.54726876057606
 6 -9.81294755445544  1.73422337543754 -0.74842116621662
 6 -11.20049914651465  1.45181352045205 -1.26165788528853
 6 -11.20730313421342  0.02723808790879 -1.31289000300030
 6 -9.93200888158816 -0.37409938423842 -0.92530754685469
 6 -12.28781760546055  2.39853042404240 -1.66497327212721
 6 -12.33127767406741 -0.80509791989199 -1.78599940844084
 6 -12.33778126652665 -0.99828223942394 -3.31798691729173
 7 -7.17990745904591 -1.38339795339534 -0.26082075907591
 6 -8.30014025382538 -2.23530870297030 -0.47642259745975
 6 -7.93519966556656 -3.62819108660866 -0.44649192649265
 6 -6.49265314941494 -3.42713705070507 -0.04823655555556
 6 -6.19099169556956 -2.11694997629763  0.08938174237424
 6 -8.55642310971097 -4.90283312571257 -0.65477395579558
 6 -5.35152962326233 -4.34486837033703  0.21474434703470
 8 -5.13486232413241 -5.56435091849185  0.11753878457846
 6 -4.14503808320832 -3.31400719051905  0.66761662696270
 6 -3.65275590649065 -3.67567278857886  1.92439281218122
 8 -3.74354595519552 -3.06048278447845  3.04333701480148
 8 -2.86618781248125 -4.87829255165517  1.86860544144414
 6 -2.29696028392839 -5.33473770287029  3.16641157665767
 6  2.74587709940994 -0.60764855945595 -1.29678087848785
 6  4.07408949794980 -0.49119729602960 -0.61650179917992
 6  5.13807729212921  0.32403866926693 -0.95689546224622
 6  5.07224564756476  1.11092374167417 -2.26334049934993
 6  6.42411674447445  0.31983383358336 -0.24711119631963
 6  7.62466000390039 -0.32030237713771 -1.04870182068207
 6  8.94881675427543 -0.02098722912291 -0.18533034583458
 6  10.15564618911891 -0.52332940464046 -0.87483845434543
 6  10.21131783198320 -2.05555649174917 -1.17867133213321
 6  11.36307918481848 -0.08506228702870 -0.10306943834383
 6  12.76811171887189 -0.36050010111011 -0.74159418231823
 6  13.99585905430543  0.01186998419842  0.13687075457546
 6  15.32674879977998 -0.20020374947495 -0.53846208600860
 6  15.68831049994999 -1.70281791559156 -0.99219883758376
 6  16.48382248814881  0.43108746874687  0.32980748794879
 6  17.89559414881488  0.49159055745575 -0.21751756635664
 6  18.84657502700270  1.28248646564656  0.75228566156616
 6  20.32471114031403  1.31514184768477  0.27248201140114
 6  20.48296965076508  2.10810910811081 -0.98615960866087
 6  21.30824175497550  1.88868180448045  1.42597796119612
 1 -3.98300978547855  3.55414093549355  1.57281186808681
 1 -10.04804519721972  3.84403523852385 -0.70079547104710
 1 -10.26071936133613 -2.49095843664366 -1.23113976617662
 1 -2.85187164406441 -0.91848016191619  2.24079477067707
 1 -2.12833643884388  1.89696327892789  1.27449810021002
 1 -2.12372683018302  0.47506795969597  3.79135284878488
 1 -2.85222028202820  2.27167122462246  3.64069623502350
 1 -4.05034847754775  0.76246093009301  3.69324173697370
 1 -1.75704818971897 -1.62074203460346 -0.12293620282028
 1 -2.06832850535054  0.16839408980898 -0.79180922052205
 1 -0.26888040544054  0.83269788368837  0.84187458655866
 1 -0.11505930793079 -0.71597611281128  1.27259121432143
 1 -6.17471624702470  6.89936858095809  0.82172788198820
 1 -5.82583957335734  6.18343170627063  2.41647794489449
 1 -4.59440339633963  5.63165433183318  1.19014218981898
 1 -9.47696974947495  5.91047719581958 -0.56911713991399
 1 -9.22180339623962  7.76038677757776  0.91442106390639
 1 -7.67581704750475  7.52691909140914  1.48074646014601
 1 -12.12539664476448  3.15708603460346 -2.54160716541654
 1 -13.11863153235323  1.86437032823282 -2.12327351885188
 1 -12.62602433353335  3.02311096579658 -0.84965620962096
 1 -12.44293907230723 -1.77638708380838 -1.30879583448345
 1 -13.28256697559756 -0.46003274007401 -1.34344987248725
 1 -13.00227658025802 -1.67837252345234 -3.84115399989999
 1 -12.19060262446245 -0.01119565716572 -3.90866436213621
 1 -11.22651893119312 -1.33240810791079 -3.63559217921792
 1 -9.27742734573457 -4.73326406930693 -1.47104036813681
 1 -7.72367173197320 -5.71032103630363 -0.82050166316632
 1 -9.39831971687169 -5.12967798909891  0.13172134953495
 1 -3.34286498239824 -3.62698594929493 -0.00863613511351
 1 -1.44222238873887 -4.53862030173017  3.39175209050905
 1 -3.05267487608761 -5.61467308490849  3.88260109900990
 1 -1.94312242374237 -6.40370964416442  2.61453540644064
 1  2.68927823192319 -1.57691952785278 -1.86764072907291
 1  2.52457993559356  0.13555783538354 -2.08649180138014
 1  4.20754165976598 -1.13216543174318  0.22060527652765
 1  3.99088805230523  1.32633134353435 -2.43671204090409
 1  5.50469588128813  1.96687694659466 -2.10094656285629
 1  5.55485279287929  0.38860996849685 -3.18563729472947
 1  6.62444450735074  1.36999099909991  0.13252589538954
 1  6.12437655705571 -0.22287032443244  0.83056277297730
 1  7.33637102180218 -1.31638087328733 -1.47510883448345
 1  7.64623705960596  0.05842905100510 -2.05939886348635
 1  8.81447349894989  1.08373625862586  0.21528916111611
 1  8.93031151985199 -0.58856436263626  0.70016788048805
 1  10.20474802620262 -0.01940940324032 -1.88904379387939
 1  9.31998698419842 -2.25740371687169 -1.82324824962496
 1  11.13560611631163 -2.37727451135113 -1.69039328322832
 1  10.15597848384839 -2.66728867086709 -0.14074351405141
 1  11.41755943684369  1.08867109730973  0.19355084258426
 1  11.26522957635764 -0.60775673697370  0.86422704430443
 1  12.79257257615762 -1.51847000820082 -1.07528519611961
 1  12.88773252575258  0.30702139313931 -1.74998836013601
 1  13.93904534123412  0.98231078707871  0.40014735773577
 1  14.20235298839884 -0.63263286798680  1.02282879937994
 1  15.43328661716172  0.34190367536754 -1.58509286728673
 1  15.87256469936994 -2.25503579567957 -0.21150260416042
 1  14.86352940364037 -2.05925830143014 -1.54873228832883
 1  16.67967759715972 -1.75424094899490 -1.44373584308431
 1  16.25277047774777  1.55956379007901  0.77067361166117
 1  16.49015346254625 -0.28979815491549  1.34380714191419
 1  18.21080201890189 -0.62002855025503 -0.30773411381138
 1  18.00589765426543  0.86715403430343 -1.45759933573357
 1  18.54844563716372  2.45288944664466  0.56083408870887
 1  18.63894105440544  0.82895707670767  1.67432743304330
 1  20.48904381708171  0.15426157435743  0.24259132313231
 1  20.32024613121312  3.04918848074807 -0.86698029142914
 1  21.54213846594660  2.38820547334733 -1.24718608190819
 1  19.87773167756776  1.67312912371237 -1.73162013101310
 1  21.11278725392539  1.50705881498150  2.39292891009101
 1  22.31900360666067  1.97999922962296  0.89306427272727
 1  20.98789851975198  2.90258034133413  1.59354979547955

