%nproc=4
%Mem=3GB
# td=(NStates=1) iop(3/107=0140000000,3/108=0140000000) CAM-B3LYP/6-31G(d,p) 

TD

0 1
12 -7.16314100580058  0.58785716921692  0.12164853485349
 6 -4.95562437893789 -1.97341457205721  0.47377277967797
 6 -4.80336636723672  2.92162087998800  1.02178228342834
 6 -9.42364912941294  3.07394494749475 -0.39935241054105
 6 -9.52480857885789 -1.80493225892589 -0.92808961386139
 7 -5.09460649184919  0.43609970057006  0.74354217821782
 6 -4.33945619291929 -0.67169831303130  0.94962285698570
 6 -2.95921214181418 -0.37885628362836  1.27458312741274
 6 -3.08448167506751  1.06443514511451  1.65282156145615
 6 -4.35644587928793  1.56133078417842  1.08808320222022
 6 -3.03921010181018  1.21656447574757  3.16508182278228
 6 -1.94553028272827 -0.52657864706471 -0.02826901660166
 6 -0.56950265946595 -0.47191043904390  0.50055343764376
 6  0.53539546274627 -0.54373099499950 -0.67623741384138
 8  0.28200841764176 -0.73676745444544 -1.81527892099210
 8  1.73493209160916 -0.24168410681068 -0.18638402600260
 7 -7.14576221962196  2.70464367426743  0.29186011011101
 6 -6.07330747454746  3.39442320972097  0.68622449854986
 6 -6.44567947634763  4.78821568516852  0.80789904860486
 6 -7.74247903320332  4.88310011521152  0.30023615001500
 6 -8.20807033453345  3.49417635643564  0.09240723932393
 6 -5.47590962486249  5.98272774647465  1.20653080828083
 6 -8.66185619361936  6.04443471307131  0.32331294379438
 6 -8.34722313231323  7.24633378307831  0.79783384268427
 7 -9.15798483958396  0.64280127452745 -0.62171874577458
 6 -9.85334282058206  1.73694701900190 -0.70399321282128
 6 -11.21801575427543  1.41912135663566 -1.09907476717672
 6 -11.34977446464646  0.13663120892089 -1.26210623892389
 6 -10.01898950255026 -0.47363755715572 -0.87830003130313
 6 -12.34373531123112  2.37666290769077 -1.33038249094909
 6 -12.41887568046805 -0.77367349114911 -1.69424875547555
 6 -12.31832374127413 -1.28602879517952 -3.18533918511851
 7 -7.28396135853585 -1.44771960766077 -0.26393906900690
 6 -8.25009933623362 -2.23332187768777 -0.63362494239424
 6 -7.73271531133113 -3.65460601200120 -0.54945524532453
 6 -6.47375516601660 -3.58701168326833 -0.10323240494049
 6 -6.21878561026103 -2.20017797359736  0.13460529592959
 6 -8.66766910641064 -4.78577467586759 -0.81525490859086
 6 -5.25824128702870 -4.34313787718772  0.16762173627363
 8 -5.18932992529253 -5.59567642464246  0.16366231483148
 6 -4.15227973057306 -3.35648309570957  0.56895521712171
 6 -3.54615879267927 -3.73666160886089  1.89251522002200
 8 -3.72921570497050 -3.16178353625363  2.87692105030503
 8 -2.62536788958896 -4.71256987548755  1.74608364586459
 6 -2.17900685768577 -5.30133533943394  2.92402980338034
 6  2.76561288168817 -0.46443473237324 -1.14665818301830
 6  4.19315020022002 -0.33247851575158 -0.52725528832883
 6  5.23572906420642  0.42721924992499 -0.92899577657766
 6  5.24844857045704  1.33124079937994 -2.09870400540054
 6  6.53099937863786  0.47183779977998 -0.17352787718772
 6  7.66869832243224 -0.07670621862186 -0.89335966466647
 6  8.96637434903490 -0.16328814491449  0.01434533213321
 6  10.16078153875388 -0.58047971117112 -0.76826254625463
 6  10.08401167776778 -2.01473935383538 -1.22927989398940
 6  11.50684534833483 -0.35915080618062  0.05441747924792
 6  12.76571430693069 -0.54310434393439 -0.77484498959896
 6  13.92138341014101 -0.21022673697370  0.19895630723072
 6  15.48029402040204 -0.27610669426943 -0.48554420692069
 6  15.77187345834584 -1.80864925322532 -0.80512233853385
 6  16.45641263396340  0.28377489478948  0.49456419111911
 6  17.78881646934693  0.57329105870587 -0.24744127112711
 6  18.72046246484648  1.20352843134313  0.63313657035704
 6  20.24851765616562  1.27640707320732  0.16932363836384
 6  20.41401424722472  2.00748805390539 -1.11924662056206
 6  21.23385845284528  1.89194089398940  1.25280922092209
 1 -4.00088045154515  3.59425267666767  1.40065616141614
 1 -10.15749787308731  3.71063333783378 -0.80479500570057
 1 -10.21271569566957 -2.49738527362736 -1.18518633803380
 1 -2.55664295149515 -1.19351955465547  1.92874936563656
 1 -2.27134060036004  1.62504456555656  1.23708735773577
 1 -1.85947903430343  1.23518262466247  3.73336367376738
 1 -3.31269837893789  2.17771699449945  3.72442046424642
 1 -3.55360816131613  0.52324747904791  3.76268795399540
 1 -2.10944606360636 -1.35558622942294 -0.68051605870587
 1 -2.04946131513151  0.37641526132613 -0.69823655825583
 1 -0.31173660236024  0.44714430173017  1.13849771277128
 1 -0.38063648394839 -1.37073784038404  1.10011346964696
 1 -5.29169334703470  6.72734024602460  0.27660749204920
 1 -5.70547201850185  6.40651353275328  2.10622263476348
 1 -4.41094593919392  5.69271353935394  1.19094982758276
 1 -9.70664092389239  5.85733911591159 -0.27505885858586
 1 -9.31153021672167  7.97225694669467  0.60297007270727
 1 -7.35404333643364  7.48158499489949  1.25583454375438
 1 -12.25351582458246  2.97303645074507 -2.39447527902790
 1 -13.51589888758876  2.15343408580858 -1.44713044124412
 1 -12.10216124882488  3.26158349244924 -0.49375981548155
 1 -12.42908487338734 -1.61294221702170 -1.15192869376938
 1 -13.31579387848785 -0.12715542604260 -1.41891764616462
 1 -13.28096329552955 -1.94441810391039 -3.38200915901590
 1 -12.49094950065006 -0.50584905620562 -3.68956793519352
 1 -11.43912875227523 -1.84505553275328 -3.35202348054805
 1 -8.88899351795179 -4.71660816161616 -1.89496555955596
 1 -8.46060044524452 -5.80045599889989 -0.15756571167117
 1 -9.65485966496650 -4.54670311871187 -0.19084135283528
 1 -3.18228574707471 -3.41246785238524  0.00806306820682
 1 -1.42288567616762 -4.75317753115312  3.59884160176018
 1 -3.00243668096810 -5.41639116401640  3.51633267096710
 1 -1.69741026152615 -6.41621240604060  2.66247960906091
 1  2.74504255905591 -1.47394401720172 -1.72673412211221
 1  2.40753719501950  0.20762884768477 -1.84870592809281
 1  4.18891937863786 -0.87168558235824  0.42209360956096
 1  4.22963827532753  0.92556809950995 -2.80263074877488
 1  5.16866379857986  2.40309073297330 -1.93734117251725
 1  6.14767433593359  0.99521071197120 -2.67924418131813
 1  6.63200138403840  1.61627160776078  0.08272788668867
 1  6.26144401650165 -0.05403273997400  0.86665286078608
 1  7.37663978677868 -1.17284795779578 -1.39009376657666
 1  7.99014157265727  0.56612571557156 -1.81510233313331
 1  8.93086913121312  1.02637213471347  0.37933036113611
 1  8.52334545534553 -0.72481083378338  0.93536966036604
 1  10.18586321812181  0.07813396119612 -1.64958011601160
 1  9.17426703580358 -2.01834011751175 -1.90165854775478
 1  10.92275141574157 -2.33337673697370 -1.96865222332233
 1  10.05774797189719 -2.90504461916192 -0.43413080678068
 1  11.23459510111011  0.64780121352135  0.63532130293029
 1  11.51192878837884 -1.14412571017102  0.96140246034604
 1  12.86614456695670 -1.54652207150715 -1.10094236573657
 1  12.82438826872687 -0.01630669466947 -1.76835116881688
 1  13.72740416071607  0.64469983328333  0.47788261696170
 1  13.90067837843784 -0.98983536243624  1.01839421342134
 1  15.46727712911291  0.30971436843684 -1.49068033683368
 1  15.81884568136814 -2.50199954115412 -0.00192832833283
 1  14.97265891029103 -2.22185670567057 -1.45497687118712
 1  16.77937621722172 -1.86833773077308 -1.13651016431643
 1  16.16236951045104  1.41203953765377  0.75553146944694
 1  16.48954303210321 -0.07153343814381  1.50619911461146
 1  18.33849058675868 -0.45412192619262 -0.52097229282928
 1  17.74953226282628  1.13047194129413 -1.17967371097110
 1  18.30773983088309  2.24767603560356  0.71969391619162
 1  18.68949491199120  0.80494533403340  1.53257650315031
 1  20.53754358665867  0.18483948154816  0.05546143834383
 1  20.19189600810081  3.06728750525053 -0.90035221992199
 1  21.48617241804180  1.89358050015002 -1.53159114031403
 1  19.93767216481648  1.66148643884389 -1.98724710911091
 1  20.98043189668967  1.27744338523852  2.12601627042704
 1  22.29708760156015  1.79126959765977  1.06806345994599
 1  20.92192227072707  2.89159527672767  1.26124326102610

