%nproc=4
%Mem=3GB
# td=(NStates=1) iop(3/107=0140000000,3/108=0140000000) CAM-B3LYP/6-31G(d,p) 

TD

0 1
12 -7.15635032673267  0.65415379887989 -0.02996662666267
 6 -4.84416323282328 -1.97214444504450  0.50212561496150
 6 -4.85305133573357  2.87098581648165  1.25732583778378
 6 -9.44432119661966  3.13793134613461 -0.41016349164917
 6 -9.47390348834884 -1.76411817751775 -1.06010281518152
 7 -5.18115514671467  0.49039513011301  0.74759258325833
 6 -4.39824207150715 -0.69910105330533  0.91007890259026
 6 -2.96348256885689 -0.42987138513851  1.32990865996600
 6 -3.05350857775778  1.12920162176218  1.79129540884088
 6 -4.46419665436544  1.52824747584758  1.25311970587059
 6 -3.06080226102610  1.25084790409041  3.35531084568457
 6 -1.97466319601960 -0.55823181238124  0.17892170247025
 6 -0.53986969616962 -0.43785703370337  0.65074845714571
 6  0.50399232243224 -0.63649027092709 -0.39299909000900
 8  0.19470968776878 -0.85277905560556 -1.55550294339434
 8  1.76656525492549 -0.42533247164716 -0.04546993459346
 7 -7.13075071847185  2.61927513741374  0.26189711381138
 6 -6.17362750655066  3.35717948534854  0.82773864996500
 6 -6.42800770917092  4.79136600020002  0.78848710741074
 6 -7.75205999129913  4.86686849204921  0.31049717611761
 6 -8.24119364686469  3.43640057885789  0.03175117371737
 6 -5.50845287918792  5.96557603130313  1.21554170937094
 6 -8.53630363836383  6.04564483408341  0.09097971047105
 6 -8.51689009900990  7.22521167086709  0.81176523582358
 7 -9.07628666976698  0.60870786518652 -0.51891846574657
 6 -9.89678716501650  1.83700702500250 -0.67943075657566
 6 -11.24590854355436  1.42425186968697 -1.14981984168417
 6 -11.22366185338534  0.09203674947495 -1.29446947524752
 6 -9.91249885348535 -0.37493768716872 -0.94572677397740
 6 -12.30011094879488  2.51079632103210 -1.37244669736974
 6 -12.27267106000600 -0.74002012581258 -1.87923725432543
 6 -12.03592550145015 -1.12609280158016 -3.38282893409341
 7 -7.22142510491049 -1.40136497219722 -0.17305998109811
 6 -8.23035736203620 -2.20872941844184 -0.60476205610561
 6 -7.76789882968297 -3.58961951335134 -0.59765006480648
 6 -6.51464925542554 -3.53616659875988 -0.13721580328033
 6 -6.17161089278928 -2.19016697249725  0.11458329372937
 6 -8.59187152665267 -4.89026512491249 -0.78043142624262
 6 -5.36816227912791 -4.43418698209821  0.17785275937594
 8 -5.29455044734473 -5.63955081208121  0.27653360196020
 6 -4.21467597019702 -3.37230467786779  0.54211253285329
 6 -3.61445562236224 -3.66562450515051  1.88518448694870
 8 -3.85906869026903 -3.18176553445345  2.96950030823082
 8 -2.79347470027003 -4.72314093259326  1.71775081258126
 6 -2.01198015501550 -5.15321052695270  2.87803520392039
 6  2.81681800220022 -0.60789907880788 -1.10205372257226
 6  4.15179606480648 -0.43381864976498 -0.42895545834583
 6  5.07552304360436  0.33377990599060 -0.97335021202120
 6  5.01490521612161  1.18822649794979 -2.19957409240924
 6  6.45782206090609  0.31127174317432 -0.20626115051505
 6  7.71369282188219 -0.16903545154515 -1.08653898259826
 6  8.97412512411241 -0.16896871297130 -0.25991209360936
 6  10.23938939953995 -0.54352601580158 -0.96703242324232
 6  10.13580685728573 -1.90907878777878 -1.51130809680968
 6  11.50049471327133 -0.24963985508551 -0.10060802330233
 6  12.86336407190719 -0.47249728322832 -0.68718622372237
 6  13.94952622442244 -0.12049776407641  0.26181259285929
 6  15.39836582758276 -0.16203528712871 -0.54119977247725
 6  15.80411668266827 -1.56759514781478 -0.88208003430343
 6  16.44155114781478  0.32739925722572  0.54600933563356
 6  17.79873746144614  0.50433416301630 -0.16521304830483
 6  18.90336075467546  1.21089916841684  0.68507176387639
 6  20.32584538893889  1.23405283778378  0.15455216121612
 6  20.31277412321232  2.03105041014101 -1.12397709360936
 6  21.33808887588759  1.82353405330533  1.14592853285329
 1 -4.10839120262026  3.60322357375738  1.52178827462746
 1 -10.15489761306131  3.85852812731273 -0.62881740794079
 1 -10.19877430153015 -2.64627016211621 -1.16880469986999
 1 -2.82546983418342 -1.09877007970797  2.20931742244224
 1 -2.22863632993299  1.58350041114111  1.48722237123712
 1 -2.11092417881788  0.97373648004801  3.79740007740774
 1 -3.34340144924492  2.22625184798480  3.62769079127913
 1 -3.61383418391839  0.60030518481848  3.83269495469547
 1 -2.25794091309131 -1.48834950575057 -0.33656166326633
 1 -2.31550791979198  0.28019563936394 -0.55552228682868
 1 -0.19437486618662  0.34664425172517  1.44289815281528
 1 -0.39564798509851 -1.33468423502350  1.33299675797580
 1 -5.79626380408041  6.89088660066007  0.53817364866487
 1 -5.57044851615161  6.14498738013801  2.26456846934693
 1 -4.40443528812881  5.83629789778978  0.76400713331333
 1 -9.39539979977998  6.09320270227023 -0.61137248994899
 1 -9.14136320002000  8.08908862986299  0.40829060476048
 1 -7.87921585368537  7.43798063446345  1.56682564286429
 1 -11.85601607460746  3.01057020412041 -2.39317514901490
 1 -13.23952124982498  1.95889463186319 -1.69207493569357
 1 -12.32998403110311  3.14134146824682 -0.56527696719672
 1 -12.58734069896990 -1.71965288808881 -1.34597809870987
 1 -13.19971227032703  0.09378666816682 -1.86903265766577
 1 -12.85008020722072 -1.64906856895690 -3.78642960106011
 1 -11.89077948364836 -0.25335380668067 -3.84683366176618
 1 -11.20597543694369 -1.93234426162616 -3.49765804400440
 1 -9.01446606520652 -4.86765326612661 -1.80424648764877
 1 -7.89603398859886 -5.70743669696970 -0.69314927002700
 1 -9.39884406340634 -4.96130457885789  0.02070980228023
 1 -3.42406992549255 -3.48127473307331 -0.29892763086309
 1 -1.32629601720172 -4.23339555295530  3.22122383998400
 1 -2.62584902220222 -5.52784230913091  3.81818285598560
 1 -1.28481900240024 -5.90618140294029  2.85016837793779
 1  2.72807086188619 -1.67786440924092 -1.35564701340134
 1  2.63311975327533  0.01429951475148 -1.83690474797480
 1  4.31614210091009 -1.35100351415141  0.35477687788779
 1  3.97772308380838  1.07383292599260 -2.44504499019902
 1  5.21736866906691  2.26606703060306 -2.15372281068107
 1  5.64962453095310  0.89717090799080 -3.03354961186119
 1  6.94304248814881  1.32208218881888  0.34210382428243
 1  6.32129000110011 -0.53292062876288  0.71228742424242
 1  7.40535265806581 -1.10762143514351 -1.27922267946795
 1  7.89985254375437  0.52065116811681 -2.07303812671267
 1  9.02915896019602  0.80467996549655  0.25510793889389
 1  8.88346146694670 -0.83053140584058  0.56687281068107
 1  10.30584521632163  0.05925207300730 -1.87349250725073
 1  9.33707331643164 -1.97146543004300 -2.22851123302330
 1  10.96725586618662 -2.10661406070607 -2.26318167626763
 1  9.70192238933893 -2.67548166286629 -0.90038743244324
 1  11.24664630623062  0.74083051645165  0.33383115391539
 1  11.38723631913191 -0.62300359795980  0.80950727082708
 1  13.03561151365137 -1.60027744704470 -0.79697196869687
 1  12.64335016491649  0.05219015501550 -1.53104743844384
 1  13.62629404970497  0.87130249354936  0.83619844854485
 1  13.83066137673767 -0.88650502940294  1.08149052305230
 1  15.21543194459446  0.44821821882188 -1.35184645344534
 1  16.03597739453945 -2.15233457465747  0.06968883338334
 1  14.95451709610961 -2.07678219821982 -1.46917829132913
 1  16.71750002960296 -1.47232812981298 -1.53908042134213
 1  16.14968824232423  1.41931026472647  0.90768668496850
 1  16.51308538633863 -0.19122540734073  1.36710520522052
 1  18.12135887358736 -0.56612312631263 -0.18934913051305
 1  17.70966827642764  0.87544643874387 -1.23873961756176
 1  18.65071412831283  2.31614288228823  0.84489643644364
 1  19.21675763826383  0.65329016851685  1.80329357485749
 1  20.55576540884088  0.04525552315232  0.01337722992299
 1  19.92216903540354  3.00180095659566 -0.84011619631963
 1  21.29302310311031  1.97188833093309 -1.62754073527353
 1  19.49654805240524  1.61480177037704 -1.78166655105511
 1  21.25639949344934  1.09588522942294  2.05401907070707
 1  22.46752464526453  1.59212968366837  0.78344499809981
 1  21.16524660316032  2.88588470567057  1.49012614931493

