%nproc=4
%Mem=3GB
# td=(NStates=1) iop(3/107=0140000000,3/108=0140000000) CAM-B3LYP/6-31G(d,p) 

TD

0 1
12 -7.13760845254525  0.60622900640064  0.08338470847085
 6 -4.93331214771477 -1.99492672327233  0.54044944734473
 6 -4.73637966856686  2.81062978087809  1.09137924312431
 6 -9.29370613511351  3.17123467646765 -0.35404788008801
 6 -9.61765786378638 -1.65926769246925 -0.98308511341134
 7 -5.12705973717372  0.40348643924392  0.67368519251925
 6 -4.32608485578558 -0.72031317451745  0.84213210791079
 6 -2.98072429302930 -0.46919531753175  1.27494316341634
 6 -2.98602182908291  0.96942564416442  1.74878115741574
 6 -4.36126636133613  1.48790344144414  1.12790718461846
 6 -2.93910009080908  0.97469028832883  3.27910322492249
 6 -1.95671140084008 -0.74856084528453  0.12295610591059
 6 -0.57297300650065 -0.57014026202620  0.57289067136714
 6  0.49965188838884 -0.76630325222522 -0.53490328042804
 8  0.21945216201620 -1.03530730843084 -1.66085347844784
 8  1.75739433783378 -0.48581852025203 -0.07938332593259
 7 -6.98420606400640  2.57961117101710  0.30672159625963
 6 -5.93846399019902  3.32068583598360  0.75838171427143
 6 -6.31462637103710  4.71432829642964  0.77127538623862
 6 -7.63727851315131  4.80106191139114  0.28638476487649
 6 -8.01453098059806  3.48711565036504  0.13803180178018
 6 -5.32152418631863  5.86067554125413  0.95590574577458
 6 -8.44789479747975  6.01219148874887  0.17501811431143
 6 -8.35073348334833  7.31568071777178  0.74470853015302
 7 -9.04557359845985  0.70366736113611 -0.49703627752775
 6 -9.75644313061306  1.84329765406541 -0.69873268676868
 6 -11.21387534023402  1.53743318781878 -1.09371423112311
 6 -11.24837432463246  0.20423796959696 -1.32242227052705
 6 -9.88320592419242 -0.32513270667067 -0.91658385968597
 6 -12.21090202790279  2.57596283768377 -1.51952140484048
 6 -12.29286307920792 -0.73964008780878 -1.81160049064906
 6 -12.29737164606461 -0.88079827212721 -3.28425907710771
 7 -7.35225818821882 -1.43302813851385 -0.18711138623862
 6 -8.35974030033003 -2.21723026852685 -0.54838641854185
 6 -7.85969800960096 -3.59628017941794 -0.49872017181718
 6 -6.62806059655966 -3.62534551665167 -0.08866094779478
 6 -6.21510524222422 -2.20571852765277  0.10064189958996
 6 -8.74739707920792 -4.81160725912591 -0.92075545864586
 6 -5.37288275117512 -4.34801836523652  0.14478945304530
 8 -5.16352734503450 -5.62599945694569 -0.01279533093309
 6 -4.18273277587759 -3.38987643504350  0.50320864246425
 6 -3.56749092589259 -3.70990893359336  1.90829679817982
 8 -3.94908769216922 -3.19936729462946  2.96894025222522
 8 -2.76552190499050 -4.76741536003600  1.90485952345235
 6 -2.30004896189619 -5.35420062596260  3.15905330573057
 6  2.89302562296230 -0.63530181908191 -1.10637415461546
 6  4.17920880608061 -0.41319658755876 -0.36796935973597
 6  5.08180367166717  0.41834836283628 -0.80814369136914
 6  5.01302502810281  1.42867054235424 -1.99113324832483
 6  6.47182346104610  0.52374299029903 -0.09986051045105
 6  7.60233168576858 -0.17517606560656 -0.86961729042904
 6  8.91134884648465 -0.17422923902390 -0.11534763716372
 6  10.11672713331333 -0.61807347054705 -0.89862558255826
 6  10.22033531013101 -2.14067194709471 -1.19963692969297
 6  11.47174183798380 -0.30540543164316 -0.10081804430443
 6  12.79576731223122 -0.56120615411541 -0.68738624372437
 6  13.91502277407741  0.02521680738074  0.19005541714171
 6  15.37228321932193 -0.08516760036004 -0.50495614811481
 6  15.64606087708771 -1.55699408770877 -0.86483831013101
 6  16.33022001470147  0.56364288158816  0.40651538623862
 6  17.73672125982598  0.64753848344834 -0.24458098509851
 6  18.79709012761276  1.35212329082908  0.61275453215322
 6  20.21967477187719  1.32023145564556  0.08452515851585
 6  20.31693453925392  2.18281558665867 -1.22939763566357
 6  21.18554362136214  1.81471317121712  1.19355329532953
 1 -3.96789715321532  3.41223447484749  1.56243233903390
 1 -9.94304642794279  3.90059233373337 -0.87374190039004
 1 -10.18495291939194 -2.35862139723972 -1.44327214661466
 1 -2.80181746894689 -1.09957015971597  2.12608909960996
 1 -2.25371883818382  1.48615067616762  1.18560220922092
 1 -1.91521460786079  0.49290839723972  3.60888122552255
 1 -3.09361647074708  2.02368159095910  3.69881790399040
 1 -3.77141994249425  0.35056021032103  3.71694337953795
 1 -2.18980409940994 -1.65491616241624 -0.46162416951695
 1 -1.80935730473047  0.09371699149915 -0.53639037363736
 1 -0.44133956265627  0.40843043034303  1.00606446944694
 1 -0.18665708600860 -0.92977374397440  1.39728318661866
 1 -5.26672084978498  6.83381089308931  0.37760759205921
 1 -5.39342081338134  6.06230911231123  1.94445645814581
 1 -4.39404424902490  5.46114038203820  0.71502223482348
 1 -9.34481474127413  5.91743512551255 -0.53504485718572
 1 -9.05872493619362  8.11025074607461  0.26548632433243
 1 -7.55565349744974  7.46551338773877  1.46913587388739
 1 -11.83023349634963  3.19841898899890 -2.37554338583858
 1 -13.18558585628563  2.01867060946095 -1.66811253945395
 1 -12.26925795849585  3.34883221732173 -0.57681812131213
 1 -12.27649961486149 -1.42771369416942 -1.24045754665467
 1 -13.20503280238024 -0.41273398389839 -1.44822057645765
 1 -13.10319551875188 -1.62305596769677 -3.61446240434043
 1 -12.52689309500950  0.01877340604060 -3.92863184158416
 1 -11.32213705310531 -1.52494352155216 -3.73591186938694
 1 -9.24486910551055 -4.67296379717972 -1.90746680968097
 1 -8.12462684788479 -5.62086804010401 -1.22533248834883
 1 -9.42104628362836 -5.01253970237024 -0.05289755845585
 1 -3.32185970447045 -3.51270787638764 -0.19949768786879
 1 -1.38132151975198 -4.73953616701670  3.51055277287729
 1 -3.22590902820282 -5.44310383528353  3.80923196089609
 1 -1.79664018451845 -6.39894067886789  2.86202956405641
 1  2.78560661546155 -1.72184880768077 -1.43920536923692
 1  2.57187362866287  0.21380946574657 -1.85086614411441
 1  4.44457494419442 -1.06645505930593  0.52579397959796
 1  4.04574988648865  1.48064360706071 -2.28914940064006
 1  5.33247017921792  2.29141956585659 -1.74629206760676
 1  5.63417298579858  1.10866205710571 -2.76783304020402
 1  6.61979016291629  1.53572355295530  0.03796341024102
 1  6.22356022812281  0.09667233053305  0.98354454995500
 1  7.42049417221722 -1.26122679567957 -1.09347410461046
 1  7.68701125962596  0.39946904990499 -1.73564438733873
 1  9.04788083238324  0.93438293579358  0.30097252535254
 1  8.75341846264626 -0.90504885758576  0.57391351475147
 1  10.07339197099710  0.01576772457246 -1.95001015901590
 1  9.15252486158616 -2.51187947144715 -1.63337171907191
 1  10.95972511311131 -2.44108750805080 -1.75404076217622
 1  10.16508870597060 -2.55293940864086 -0.29964735843584
 1  11.56202784438444  0.74066049944994  0.11817958875888
 1  11.29881747724773 -1.13519481708171  0.65697201730173
 1  13.03570152265227 -1.70971839113911 -0.77898016951695
 1  12.93767959785979 -0.24800986498650 -1.83747808150815
 1  13.92501392169217  1.21253661696170  0.29192402110211
 1  13.87999631023102 -0.50646702560256  1.14009638363836
 1  15.27761816321632  0.48319171617162 -1.57038830763076
 1  15.52178597539754 -2.18903824502450  0.07685955045505
 1  14.84019566396640 -1.94841936193619 -1.61054242774277
 1  16.77942622222222 -1.84152504950495 -1.14701121442144
 1  16.08910218371837  1.61575990969097  0.73007892419242
 1  16.33601767956796 -0.18468475327533  1.29034752945295
 1  18.19018575627563 -0.18340485448545 -0.74562475807581
 1  17.46042335193519  1.33700259435944 -1.09767551115111
 1  18.60205926282628  2.30152142014201  0.92513446024602
 1  18.66345230773078  0.82591743124312  1.59637288278828
 1  20.32103193549355  0.30178117571757 -0.32769687748775
 1  19.84728154665467  3.27593837033703 -1.08688087278728
 1  21.46047984878488  2.22300344244424 -1.35370335153515
 1  19.72505090269027  1.73135342554255 -2.11562994739474
 1  21.30502435593559  1.13745938683868  2.09797346614662
 1  22.15575346814681  1.76454692539254  0.54245089868987
 1  20.73736381488149  2.95989210641064  1.51581871857186

