%nproc=4
%Mem=2GB
# td=(NStates=1) CAM-B3LYP/6-31G(d,p) 

TD

0 1
12 -7.12977355035504  0.61610035813581  0.11169885728573
 6 -4.83387800580058 -1.93224440284028  0.46987352005201
 6 -4.75524545344534  2.91297974527453  0.98690505540554
 6 -9.38099283478348  3.04437993349335 -0.33845670537054
 6 -9.48751906560656 -1.79598510951095 -0.85923235233523
 7 -5.01877530213021  0.44486430453045  0.65838625692569
 6 -4.29619932603260 -0.72161198319832  0.75334335753575
 6 -2.93680268566857 -0.41007043274327  1.03692404660466
 6 -3.03392683108311  1.11418408670867  1.49579030973097
 6 -4.35941293619362  1.51432218101810  1.05526255615562
 6 -2.84113919601960  1.42988527662766  2.99495090399040
 6 -1.94715817681768 -0.60631589298930 -0.10484652635264
 6 -0.47469489208921 -0.44101844904490  0.39623375267527
 6  0.54311544874487 -0.59104261716172 -0.79955533603360
 8  0.25765700580058 -1.03587899549955 -1.85814214591459
 8  1.75752756325633 -0.48585598199820 -0.43373016191619
 7 -7.20471091899190  2.63157874767477  0.34486318181818
 6 -6.06711599059906  3.41094207000700  0.78299183278328
 6 -6.39217647074707  4.95434972437244  0.76347703490349
 6 -7.69871257825783  4.96898753025302  0.37313570487049
 6 -8.18377264886489  3.47880707600760  0.10542308860886
 6 -5.45298325502550  6.04957742364236  1.10262502300230
 6 -8.60651844944494  6.11571260496050  0.18111509690969
 6 -8.45821971327133  7.32682880148015  0.84218046784678
 7 -9.08039031163116  0.63051591269127 -0.58452248594860
 6 -9.81102736243624  1.73030298339834 -0.65569189328933
 6 -11.17526662326233  1.43981232033203 -1.02733445294529
 6 -11.22807521142114  0.07547291139114 -1.20009872387239
 6 -9.94927060776078 -0.43529550385039 -0.80218523462346
 6 -12.28134695839584  2.40452102310231 -1.27418419321932
 6 -12.42929747604760 -0.75434284438444 -1.48812962146215
 6 -12.45135262366237 -1.22723513471347 -2.93536865546555
 7 -7.21165063336334 -1.45067468106811 -0.04452912991299
 6 -8.22001224102410 -2.29978515061506 -0.52190714591459
 6 -7.79628577417742 -3.66975524302430 -0.56096337363736
 6 -6.47180106420642 -3.59516385338534 -0.11047277917792
 6 -6.13036563296330 -2.24333261456146  0.07214001820182
 6 -8.68907637503750 -4.87344018641864 -0.88847732613261
 6 -5.29023349364936 -4.41004488798880  0.19734260686069
 8 -5.17518635653565 -5.57664214761476  0.20033706440644
 6 -4.18495207460746 -3.32370816061606  0.52327219251925
 6 -3.72702333323332 -3.75330055135514  1.90453082598260
 8 -3.85993759435944 -3.24378111431143  3.04364704580458
 8 -2.85375656935694 -4.81766648904890  1.81325990689069
 6 -2.44423501140114 -5.34846907600760  3.08355329082908
 6  2.84210672237224 -0.72853064766477 -1.37782898329833
 6  4.11825391439144 -0.37266544284428 -0.65570571957196
 6  5.08417190159016  0.43175944134413 -1.04586435913591
 6  5.05749417241724  1.33909655895590 -2.13378754405441
 6  6.51550588338834  0.45918776897690 -0.18148463366337
 6  7.70521805970597 -0.20217056395640 -0.86728367886789
 6  9.00014188678868 -0.11094622502250 -0.06537835063506
 6  10.25360598509851 -0.60658773047305 -0.87076804730473
 6  10.17473417361736 -2.08971990809081 -1.06428989398940
 6  11.41975485238524 -0.32800658145815  0.03560442904290
 6  12.78118302600260 -0.58600265136514 -0.67878790169017
 6  13.99143861226123 -0.19147034983498  0.19330639813981
 6  15.33217934283428 -0.13041677077708 -0.55732397219722
 6  15.80125179407941 -1.53039067286729 -1.04190380808081
 6  16.37155126102610  0.45441980198020  0.39357386458646
 6  17.80317490689069  0.50935233363336 -0.16861267586759
 6  18.87268763826383  1.22135035203520  0.76773720672067
 6  20.28524719391939  1.39508984248425  0.25420018321832
 6  20.36746810061006  2.22995129232923 -0.95581657435744
 6  21.05520645144514  2.00032296859686  1.45294065746575
 1 -4.09697118161816  3.62098762016202  1.56173075997600
 1 -10.11656204890489  3.97411824682468 -0.55777116861686
 1 -10.48011130053005 -2.64532387318732 -1.24916156835684
 1 -2.71833829072907 -1.15435374927493  1.77077776897690
 1 -2.14353795899590  1.72486606920692  0.93067371777178
 1 -1.82994745224522  1.08308876177618  3.26915062856286
 1 -2.72709776977698  2.64100815831583  3.20420258565857
 1 -3.49587303000300  0.90564524852485  3.83296570937094
 1 -2.01669415431543 -1.59475943634363 -0.43429733893389
 1 -2.03572524502450  0.14078132853285 -0.88006804640464
 1 -0.12844636203620  0.59956457035704  0.83721412051205
 1 -0.25058286028603 -1.05453996919692  1.42016597179718
 1 -5.97521629702970  7.05156380048005  0.56497220642064
 1 -5.27289427882788  6.04946830993099  2.15058135523552
 1 -4.55947990399040  5.91825299169917  0.58685186078608
 1 -9.50576262876288  6.21729787788779 -0.68129835803580
 1 -9.08791000690069  8.10590132903290  0.43031265306531
 1 -7.88945841164116  7.21859825932593  1.66909529502950
 1 -11.98560266536654  2.94322464846485 -2.16737974267427
 1 -13.40289995919592  2.12652654385439 -1.56832802430243
 1 -12.37791952305231  3.34710336503650 -0.59965120912091
 1 -12.62361714011401 -1.57232667776778 -0.83480843574357
 1 -13.32930164906491 -0.23631036783678 -1.39955548304830
 1 -13.30216656925693 -1.95045973217322 -2.94558444294429
 1 -12.95218878307831 -0.24997953555355 -3.51854535023502
 1 -11.52559883918392 -1.74207907500750 -3.27949656965697
 1 -8.73237284028403 -4.78236897979798 -1.99259252335234
 1 -7.99695906070607 -5.80964096829683 -0.59511912491249
 1 -9.65090497539754 -5.00149517081708 -0.25343716631663
 1 -3.27889858575858 -3.64772802350235  0.04005873437344
 1 -1.84530269676968 -4.75612205190519  3.58996191149115
 1 -3.30702031063106 -5.45083670127013  3.81744458335834
 1 -2.00537864936494 -6.41855112831283  2.97844179707971
 1  2.64176348044804 -1.69368120402040 -1.86087005200520
 1  2.70277775537554 -0.01540726112611 -2.20671382358236
 1  4.29778068366837 -1.20930314551455  0.16437965396540
 1  4.12420138363836  1.28528723912391 -2.81155952565257
 1  5.16836224792479  2.41327158605861 -1.94649111731173
 1  5.98627593519352  1.12159326682668 -2.79048777977798
 1  6.39838190109011  1.43873787378738  0.28112075487549
 1  6.43981810121012 -0.25329336673667  0.64076379307931
 1  7.25661304600460 -1.25175441064106 -1.16348767236724
 1  7.95931836773677  0.37110031813181 -1.85571849544954
 1  9.32219427102710  0.80462834783478  0.23909154135414
 1  8.99723821252125 -0.77038254445445  0.71190905460546
 1  10.42020957235724  0.01399393709371 -1.83590848034803
 1  9.44802978847885 -2.59290726722672 -1.90372629742974
 1  11.05248780448045 -2.88412519641964 -1.15706995089509
 1  9.98607149314932 -2.86466840884088 -0.30382982268227
 1  11.43676135703570  0.70336256645665  0.36362785028503
 1  11.31797485088509 -0.89591555285529  0.88608923052305
 1  12.94522784168417 -1.81018918011801 -0.72840050765076
 1  12.91638539103910  0.06952764376438 -1.64738810011001
 1  13.88089952665267  0.88226078207821  0.61823916691669
 1  13.91203395649565 -0.77912751745174  1.15571208770877
 1  15.44564785328533  0.39573905890589 -1.31415577357736
 1  15.95085252815282 -2.10378067016702 -0.01717317121712
 1  15.07972102280228 -2.12617499309931 -1.67801521662166
 1  16.85084471387139 -1.40706623152315 -1.54337580708071
 1  16.13116831753175  1.44747258095810  0.67359390369037
 1  16.31823627082708 -0.08966814191419  1.34598735993599
 1  18.12710364906491 -0.64102064946495 -0.26988032843284
 1  17.68514557905791  0.88653597249725 -1.21485506130613
 1  18.53866465906591  2.09680383808381  1.19786779207921
 1  18.81728888918892  0.67613179417942  1.66724672497250
 1  20.94306921962196  0.47438358655866  0.11153821782178
 1  19.59885399199920  3.26061962386239 -0.83713730713071
 1  21.45550980308031  2.87184383718372 -1.18349971327133
 1  20.07876178057806  1.58482029282928 -1.89773674267427
 1  20.83425940114011  1.40231834093409  2.44830444764476
 1  22.12147385368537  1.83783501320132  1.39876484278428
 1  20.73588331823182  2.92060214351435  1.61188162866287

