%nproc=4
%Mem=2GB
# td=(NStates=1) CAM-B3LYP/6-31G(d,p) 

TD

0 1
12 -7.20264083708371  0.59026777487749 -0.00994330693069
 6 -4.80134475247525 -1.97901908030803  0.36402293499350
 6 -4.73381331023102  2.77499594689469  1.12688905380538
 6 -9.43113784928493  3.11356685218522 -0.35495835553555
 6 -9.46207652135214 -1.74378988998900 -0.78382481158116
 7 -5.15213863846385  0.48908872697270  0.69317973627363
 6 -4.35498520462046 -0.73652347434743  0.81651967516752
 6 -2.95004400980098 -0.45839526522652  1.21780213441344
 6 -3.06365980438044  1.07805047334733  1.71009173987399
 6 -4.41292828772877  1.51495224402440  1.14040107000700
 6 -3.08477355945595  1.17244953305331  3.25889729862986
 6 -2.07159062006201 -0.68771403280328  0.02631658995900
 6 -0.49824724732473 -0.62213656085609  0.52488661796180
 6  0.54326546374637 -0.65416892979298 -0.59035441594159
 8  0.22109334943494 -0.94049945754575 -1.79752608430843
 8  1.78325013551355 -0.20199759615962 -0.18404519341934
 7 -7.03819426732673  2.72512810261026  0.28346704220422
 6 -5.99406868586859  3.37582855865587  0.69980351395140
 6 -6.37882513561356  4.81647593699370  0.78344903210321
 6 -7.62381508850885  4.87085771727173  0.19169756105611
 6 -8.12740701230123  3.56514570987099  0.00463300960096
 6 -5.37630558725873  5.89317178307831  1.10053481398140
 6 -8.49040683828383  6.00443147684769 -0.03342635723572
 6 -8.56140003130313  7.18139425802580  0.71594784458446
 7 -9.17763003560356  0.70293315441544 -0.50845487918792
 6 -9.89143540324032  1.82621257435744 -0.59476580068007
 6 -11.13459255585559  1.45427376647665 -0.99472119161916
 6 -11.21648405230523  0.08085344944494 -1.23156187018702
 6 -9.90578625932593 -0.37144911921192 -0.80682569866987
 6 -12.33142196589659  2.34772534353435 -1.21813858865887
 6 -12.45530007630763 -0.74129153925393 -1.71287209570957
 6 -12.29804729312931 -1.04394680588059 -3.24452957155716
 7 -7.15563503180318 -1.37285689928993 -0.14771944894489
 6 -8.15987622742274 -2.20314548664867 -0.40977593279328
 6 -7.78718486408641 -3.63080134763476 -0.50032731003100
 6 -6.50129401350135 -3.51457579457946 -0.04319605150515
 6 -6.14419701610161 -2.21048933023302  0.02255505970597
 6 -8.61838930633063 -4.88463130553055 -0.64325280368037
 6 -5.40882535283528 -4.25993987748775  0.17966083868387
 8 -5.27498633653365 -5.53651813521352  0.21009804050405
 6 -4.22483606300630 -3.40764655445545  0.40839070437044
 6 -3.57394802570257 -3.75333055435544  1.79933030593059
 8 -3.98719031963196 -3.32809954615462  2.89470215131513
 8 -2.56225741944194 -4.60836555895590  1.71088966986699
 6 -2.11052164006401 -5.20579480858086  2.94774971047105
 6  2.78742125382538 -0.48084587918792 -1.12260346074607
 6  4.12468455745574 -0.42903107940794 -0.51588173717372
 6  5.18694217861786  0.46042230763076 -0.84235400810081
 6  5.11585000800080  1.29166181548155 -2.11130529582958
 6  6.50473480628063  0.39816166636664 -0.10155664086409
 6  7.60682822072207 -0.25187553445345 -0.86445339583958
 6  8.94535640824082 -0.17536266666667 -0.13400521332133
 6  10.17396802130213 -0.59543661536154 -0.92465343584358
 6  10.02937963816382 -2.03407434353435 -1.43083654865487
 6  11.46580945784578 -0.43058683948395 -0.08836796819682
 6  12.74353926162616 -0.59324337543754 -0.67585760866087
 6  14.02058152655266 -0.22399360216022  0.22403947144714
 6  15.43872999789979 -0.31923565266527 -0.45876411621162
 6  15.81528319721972 -1.86934456825683 -0.85398501620162
 6  16.46489059495950  0.45293965396540  0.39689419661966
 6  17.89311390079008  0.46620801920192 -0.22004781938194
 6  18.80492086158616  1.29617783478348  0.75783621662166
 6  20.19837850705071  1.46375670917092  0.17981274447445
 6  20.27895924972497  2.18808710591059 -1.06708770147015
 6  20.99730066086609  2.27755069136914  1.29152451585158
 1 -4.17754923942394  3.58463398479848  1.74887947484748
 1 -10.13236362906291  3.88148898389839 -0.28987437893789
 1 -10.19852314171417 -2.58115745654566 -1.15010166236624
 1 -2.49084554145415 -1.19072738663866  2.01156184738474
 1 -2.16773037823782  1.47022060466047  1.27883853425343
 1 -2.11050550805081  0.84620507340734  3.47182089558956
 1 -3.38608366836684  2.16696075357536  3.72878504390439
 1 -3.77611105380538  0.21400608460846  3.60446285908591
 1 -2.44891737663766 -1.78992895329533 -0.17776168536854
 1 -2.26136780928093 -0.25204795439544 -0.95101514111411
 1 -0.37822133953395  0.40784539843984  0.76357675677568
 1 -0.12544034603460 -1.34515903110311  1.42096605180518
 1 -5.65691446684668  6.84295293939394  0.42548825802580
 1 -5.26416340574057  6.10265362846285  2.26964326142614
 1 -4.28207216321632  5.43104427082708  0.94384756035604
 1 -9.25273732623262  6.05411155925593 -1.08900912911291
 1 -9.17734895079508  7.90501124002400  0.33491311311131
 1 -8.01505097089709  7.40705710521052  1.58911729722972
 1 -12.30742484758476  2.90859118511851 -2.10537354205421
 1 -13.29493916311631  1.85928982018202 -1.12996418791879
 1 -12.18712044314432  3.18218687338734 -0.51938318231823
 1 -12.38321309970997 -1.69766921202120 -1.21523647854786
 1 -13.40440915981598 -0.16381311811181 -1.71802733023302
 1 -12.98197455005501 -1.77121180738074 -3.40734061856186
 1 -12.22059562376238 -0.00926546414641 -3.71409490519052
 1 -11.30717699699970 -1.57626249334933 -3.49997861786179
 1 -8.84526412941294 -5.02619336223622 -1.76745000910091
 1 -7.98202756755675 -5.68224822902290 -0.32471208420842
 1 -9.65731561646164 -4.66913193449345 -0.18377019961996
 1 -3.42137283318332 -3.56903015371537 -0.32712798429843
 1 -1.41136930343034 -4.55526196589659  3.60866378167817
 1 -2.90881048964896 -5.47061867946795  3.61993483238324
 1 -1.29490760226023 -6.10353962716272  2.56036998989899
 1  2.51203050715071 -1.42987482338234 -1.56316028102810
 1  2.81263874147415  0.03468774837484 -2.07826097829783
 1  4.39643054865487 -0.94110632583258  0.54743795979598
 1  4.08234719821982  1.46192490289029 -2.53316168586859
 1  5.09818523022302  2.36372663156316 -1.79711617981798
 1  5.89288659625963  1.07330843834383 -2.68933766476648
 1  6.94698676157616  1.34824882488249 -0.14428178537854
 1  6.39599371877188 -0.04920295769577  0.91204092079208
 1  7.47875526022602 -1.39588882408241 -0.76017734133413
 1  7.76206864276428  0.12077528562856 -1.76810973457346
 1  9.08135018661866  0.90191807680768  0.35118275047505
 1  9.00307879657966 -0.81590709690969  0.89823768746875
 1  10.22841039243924  0.03428596629663 -1.86369125862586
 1  9.24952993849385 -2.25021299779978 -2.26533245804580
 1  10.94779733543354 -2.38836562046205 -1.79283352725273
 1  9.75120800680068 -2.65722766476648 -0.62814225392539
 1  11.40891857275728  0.54484671487149  0.43531501900190
 1  11.35443849724973 -0.99280524182418  0.72081270287029
 1  13.13317663656366 -1.64656281748175 -1.00985865346535
 1  12.82110586308631 -0.15367467646765 -1.61067442874287
 1  13.79734117081708  0.73463601960196  0.45661300430043
 1  14.09590234333433 -0.83794339903990  1.04310082658266
 1  15.17148043654365  0.27335682068207 -1.34888924692469
 1  15.76932437533753 -2.46178647074707  0.13548209430943
 1  14.98618166886689 -2.27347972357236 -1.42705012011201
 1  16.89818944834484 -2.09108463336334 -1.14724619411941
 1  16.25426062676268  1.42306013971397  0.71772831713171
 1  16.32864731193119 -0.00376955205521  1.53275603680368
 1  18.16611755045504 -0.44695124252425 -0.29820316071607
 1  17.70636770127013  0.76468378727873 -1.20988456425643
 1  18.32134292689269  2.37685184288429  0.82169017431743
 1  18.73166032633263  1.04308848984898  1.81689168946895
 1  20.60259517221722  0.36616276447645  0.06477354135414
 1  19.85134924152415  3.23847740964096 -1.03281687508751
 1  21.31774602670267  2.19011566436644 -1.52877424072407
 1  19.52620652505251  1.76614842564256 -1.91464843384338
 1  21.19316529172917  1.67338544764476  2.28427804500450
 1  22.03879558585858  2.35737696739674  0.99018398469847
 1  20.48687841774177  3.35060514381438  1.47354779527953

