%nproc=4
%Mem=3GB
# td=(NStates=1) iop(3/107=0140000000,3/108=0140000000) CAM-B3LYP/6-31G(d,p) 

TD

0 1
12 -7.18291298299830  0.62539092259226  0.02193856385639
 6 -4.81998081458146 -2.04558178877888  0.55001040344034
 6 -4.83100913151315  2.78837755565557  1.08431853705371
 6 -9.38035479998000  3.26351390439044 -0.37129960526053
 6 -9.55306140414041 -1.65433719941994 -0.78706551145115
 7 -5.11031806300630  0.38461455205521  0.56186401040104
 6 -4.24127637493749 -0.77308845204520  0.70191808650865
 6 -2.87947416801680 -0.45106350435044  1.12494816391639
 6 -3.04238746564656  0.99624832643264  1.61590787008701
 6 -4.40264049874988  1.39179383048305  1.09611400530053
 6 -2.92927910871087  1.04861768106811  3.05967128172817
 6 -1.85894162386239 -0.55293128232823 -0.09341553125313
 6 -0.51777748694869 -0.46215946394639  0.37730111241124
 6  0.50031195439544 -0.79777639953995 -0.78221801190119
 8  0.28510872767277 -1.15304908260826 -1.91230862396240
 8  1.70117871627163 -0.65620555895590 -0.20941632923292
 7 -7.07998564196420  2.63748695859586  0.28245917001700
 6 -6.03525366916692  3.41960572797280  0.81180705680568
 6 -6.36121102950295  4.80639750335034  0.81469972867287
 6 -7.64712949824983  4.95303710891089  0.40719684608461
 6 -8.06828635613561  3.55685262406241  0.10606860546055
 6 -5.29500153405341  5.96267574127413  1.08758891409141
 6 -8.41364137213721  6.18525879547955  0.19160977347735
 6 -8.32308071807181  7.38691784148415  0.77980203950395
 7 -9.09197823892389  0.81673866826683 -0.52030860476048
 6 -9.84146163246325  1.94512783708371 -0.65076789028903
 6 -11.19304325702570  1.62870231473147 -1.00487534723472
 6 -11.21895138233823  0.20059760556056 -1.19011904020402
 6 -9.91307891149115 -0.34443463686369 -0.83341554285429
 6 -12.37712865056506  2.56943218461846 -1.25865531823182
 6 -12.35369916281628 -0.68837496129613 -1.65222455305531
 6 -12.28617052595260 -1.12281247354735 -3.12223287448745
 7 -7.19219218161816 -1.42815765146515 -0.16821949704970
 6 -8.29699402570257 -2.19208775427543 -0.56037761766177
 6 -7.91587362716272 -3.58524907630763 -0.58413871367137
 6 -6.47351514201420 -3.61627460956096 -0.19016109780978
 6 -6.19682341404140 -2.16942489828983  0.09752158755876
 6 -8.77442978247825 -4.76348244664466 -0.97347073017302
 6 -5.38154361726173 -4.48297186058606  0.08923389748975
 8 -5.26856784908491 -5.64897175417542  0.13129907850785
 6 -4.20257476007601 -3.48510595799580  0.63322164376438
 6 -3.60105428222822 -3.75274321702170  1.94454042254225
 8 -3.78757154055406 -3.13960131803180  2.96757011521152
 8 -2.84058941174117 -4.88302692119212  1.85366440394039
 6 -2.19630858785879 -5.18055326122612  3.15645304570457
 6  2.79490581098110 -0.83767205610561 -1.14791830903090
 6  4.12931381658166 -0.66660192809281 -0.55956851965196
 6  5.12152764406441  0.12118864686469 -0.88203108010801
 6  5.03145687128713  0.98729640494049 -2.15323945894589
 6  6.34375065376538  0.36480709670967 -0.14887541194119
 6  7.59804125672567 -0.16454500250025 -0.94326465516552
 6  8.98326603820382 -0.12272408850885 -0.14636073847385
 6  10.27950341094109 -0.55251691489149 -0.73746946694669
 6  10.12541581818182 -2.08480636053605 -1.09898686468647
 6  11.46552121592159 -0.34044893599360  0.03526556405641
 6  12.77840557605761 -0.42747278077808 -0.65926343144314
 6  13.99837110891089 -0.16518223252325  0.27453386498650
 6  15.30306629762976 -0.02194127772777 -0.51248690119012
 6  15.60769704070407 -1.42297068536854 -1.05865769206921
 6  16.38093508620862  0.50513703100310  0.43955869056906
 6  17.80382797049705  0.70339406900690 -0.24255078207821
 6  18.82479289788979  1.35598367686769  0.83220647734773
 6  20.22739554395440  1.40273970647065  0.23754046004600
 6  20.35726857265727  2.18835614071407 -1.13513820972097
 6  21.21907697469747  2.08046974687469  1.27675161516152
 1 -4.03587395089509  3.33521677307731  1.52316841264126
 1 -10.21975409870987  3.83317559205921 -0.77033155935594
 1 -10.32573699779978 -2.39122465756576 -1.04130194959496
 1 -2.56839412661266 -1.29953015571557  1.77585407610761
 1 -2.21956542284228  1.61705376647665  1.18579222822282
 1 -1.98312139853985  0.65863496989699  3.55119545694569
 1 -3.16887399649965  2.02162138493849  3.65534355655566
 1 -3.78867166766677  0.32963811811181  3.44841652685269
 1 -2.04122924192419 -1.51644231503150 -0.61846985408541
 1 -2.15144151315131  0.33843146294629 -0.78295503010301
 1 -0.23463889258926  0.51174076137614  0.94186804980498
 1 -0.32917133743374 -1.21096186278628  1.03138659695970
 1 -5.68267244494449  6.98061557355736  0.67477730903090
 1 -5.38885035633563  6.17908078947895  2.13526553905391
 1 -4.22900774537454  5.63312758075807  0.78669940254025
 1 -9.17378763856386  6.15263864586459 -0.47800915361536
 1 -9.06334539823982  8.30422014301430  0.47230700640064
 1 -7.56970490259026  7.71083792019202  1.59138809910991
 1 -12.25730620362036  3.12383153025303 -2.30467629912991
 1 -13.45137243494349  2.08524726712671 -1.38027375557556
 1 -12.24774580728073  3.42030936503650 -0.60495093459346
 1 -12.43264522942294 -1.59154007680768 -1.10782428332833
 1 -13.26168846794680  0.05237252675267 -1.31203695809581
 1 -13.12355755495550 -1.63206686878688 -3.54342530063006
 1 -12.28528893459346 -0.19495796709671 -3.62390136853685
 1 -11.37105194459446 -1.65102612981298 -3.24090236843684
 1 -9.00122474107411 -5.01771827262726 -2.16314237723772
 1 -8.14122850805080 -5.62055800910091 -0.78836879197920
 1 -9.68103228222822 -4.86188463686369 -0.27883015171517
 1 -3.30778829732973 -3.53743034863486 -0.06597433553355
 1 -1.56152954055406 -4.54461667506751  3.63636535413541
 1 -3.08041447874788 -5.44354387928793  3.76244728242824
 1 -1.75266578707871 -6.07163794859486  2.98117147824783
 1  2.73461151595160 -1.80130675347535 -1.47913936263626
 1  2.53684012531253 -0.21692360756076 -1.98511956945695
 1  4.38343883058306 -1.26120453425343  0.31742314251425
 1  4.05228053955395  1.01982752545255 -2.76070655635564
 1  5.14437136933693  2.16290671457146 -1.93961139953995
 1  5.68022759125913  0.74527571847185 -3.08989524642464
 1  6.45779396329633  1.47063704430443  0.03241285518552
 1  6.31829970207021 -0.16370370707071  0.66908310381038
 1  7.41910403320332 -1.30593126612661 -1.09748450565057
 1  7.71607416591659  0.49357846084608 -1.76654747764776
 1  8.91001704600460  0.85304480198020  0.40874330243024
 1  8.78863198399840 -0.82508086078608  0.50441656505651
 1  10.40291492329233  0.01974812261226 -1.80057521552155
 1  9.20464007310731 -2.27431571507151 -1.80414879677968
 1  11.16531567216722 -2.56913031233123 -1.32657801590159
 1  9.64519671677168 -2.53171728642864 -0.04520191389139
 1  11.41190283188319  0.68547498089809  0.52208997979798
 1  11.51309890539054 -0.83350464806481  1.06393271337134
 1  12.77551550405041 -1.55770318961896 -1.06951922342234
 1  12.82542837273727  0.24924986098610 -1.50268460216022
 1  13.74914633493349  0.86282164546455  0.95137996669667
 1  14.10064837543754 -0.96448282718272  1.00387276127613
 1  15.19877027842784  0.71668506550655 -1.34106537533753
 1  15.34764856165617 -2.20285962716272 -0.17999613511351
 1  14.99740138453845 -1.78465298529853 -1.79333070657066
 1  16.59523780338034 -1.56624752175217 -1.41194770807081
 1  16.05001827532753  1.44292262596260  0.68596451275128
 1  16.57853193099310 -0.02484876967697  1.46141463616362
 1  18.51019775747575 -0.27891440544054 -0.47093728932893
 1  17.63461077067707  1.19498839293929 -1.18059380298030
 1  18.37281633853385  2.37771903990399  0.84662660946095
 1  18.64571053355336  0.87564240374037  1.96176942244224
 1  20.50231006330633  0.17648864646465  0.09814570677068
 1  19.87194401290129  3.18908968546855 -0.73148533323332
 1  21.39500330113011  2.30725186728673 -1.36503448464846
 1  19.81636003360336  1.84928521872187 -2.07240562496250
 1  21.29384323782378  1.30985662656266  2.12789645844584
 1  22.09199709250925  2.16342681338134  0.78086474007401
 1  20.78231831033104  2.87669378657866  1.62152928962896

