%nproc=4
%Mem=3GB
# td=(NStates=1) iop(3/107=0140000000,3/108=0140000000) CAM-B3LYP/6-31G(d,p) 

TD

0 1
12 -7.09721441314131  0.61614999849985  0.09363573357336
 6 -4.86133494999500 -1.94446167676768  0.43853925632563
 6 -4.75872190279028  2.76637535543554  1.01942204740474
 6 -9.37573433793379  3.11702925592559 -0.27174965026503
 6 -9.56584268226823 -1.81815358105811 -0.91400820572057
 7 -5.19256628782878  0.48293438403840  0.73226105010501
 6 -4.42513476077608 -0.67493863706371  0.75646354105411
 6 -2.84919113971397 -0.49723812181218  1.26317198629863
 6 -3.00146337323732  0.99456815841584  1.73739001830183
 6 -4.35042527722772  1.46049070017002  1.07533192709271
 6 -3.03056923772377  1.17538035733573  3.26242155675568
 6 -1.91446717641764 -0.55848183738374  0.09362317261726
 6 -0.57780348954895 -0.43108635663566  0.52494587688769
 6  0.43191511471147 -0.70374699659966 -0.64373416351635
 8  0.11568178497850 -1.18344212191219 -1.72534992809281
 8  1.73589218761876 -0.41628156655666 -0.29445483308331
 7 -7.09203684708471  2.58472168206821  0.39780070417042
 6 -6.03460360416042  3.37014078147815  0.83817969406941
 6 -6.29766467486749  4.71437830143014  0.86388464716472
 6 -7.74586937223722  4.87718952415242  0.44665079147915
 6 -8.09485901340134  3.50420735953595  0.05612361096110
 6 -5.38687072097210  5.86793626732673  1.05490564576458
 6 -8.43094310231023  5.98389865946595  0.15152576507651
 6 -8.27121553155316  7.19790894059406  0.70667472677268
 7 -9.06404544564456  0.63648064246425 -0.43815038893889
 6 -9.86517400370037  1.81012433673367 -0.53041585508551
 6 -11.12441639433943  1.47651709620962 -1.13311817151715
 6 -11.24257374457446  0.16120366616662 -1.40904093239324
 6 -9.81374897849785 -0.40506069946995 -0.97905010631063
 6 -12.22575351305131  2.56780202160216 -1.28333778647865
 6 -12.40262405530553 -0.70860698449845 -1.80858018861886
 6 -12.22763467236724 -1.22187237953795 -3.23141379257926
 7 -7.17915087748775 -1.40304514021402 -0.20402307740774
 6 -8.29197352365237 -2.20024857035704 -0.58648022792279
 6 -7.86719875967597 -3.55833638503850 -0.47513781358136
 6 -6.51657944844484 -3.62731571367137 -0.10907298899890
 6 -6.23890762246225 -2.18417637343734  0.13966580198020
 6 -8.66692903240324 -4.74170026842684 -0.78104148724872
 6 -5.35736119901990 -4.40452401580158  0.24339931403140
 8 -5.17696868916892 -5.62592944994499  0.39687563616362
 6 -4.24464896749675 -3.35376282368237  0.53563188478848
 6 -3.66713088988899 -3.67097504020402  1.88446441494149
 8 -3.77527031043104 -3.04060141804180  2.93914727292729
 8 -2.78736408920892 -4.64585320382038  1.82925196269627
 6 -2.28082703970397 -5.17520272617262  3.04406180658066
 6  2.83306962736274 -0.57701599049905 -1.24569808700870
 6  4.18094898009801 -0.40212548044804 -0.65918848164816
 6  5.14964045534553  0.32981950995100 -0.98002087908791
 6  5.01885561116112  1.30861853715372 -2.14632876787679
 6  6.46388266696670  0.34399501550155 -0.22596312071207
 6  7.59230068266827  0.05675712771277 -1.10515084378438
 6  8.86675438703870 -0.04550636673667 -0.29246534893489
 6  10.18872433303330 -0.50247191039104 -1.04252997299730
 6  10.04492776937694 -1.99618749864986 -1.44297126312631
 6  11.46978164196419 -0.27761265236524 -0.22432039453945
 6  12.91097883338334 -0.59961999549955 -0.92280978607861
 6  13.92841411321132 -0.30662637693769  0.08145455705571
 6  15.43478946994700 -0.32744182778278 -0.48154380688069
 6  15.79887615861586 -1.70646903520352 -0.95776760306031
 6  16.40509750245025  0.39744626192619  0.44411914661466
 6  17.83992157985799  0.45991972157216 -0.06670319731973
 6  18.71523194179418  1.38130620912091  0.89029228592859
 6  20.24415722012201  1.42289172167217  0.36437314331433
 6  20.29867271307131  2.16705401050105 -0.87394209010901
 6  21.15121018801880  1.95896759665967  1.49303324332433
 1 -4.12899326282628  3.63569682108211  1.38805490129013
 1 -10.18321044434443  4.01688396289629 -0.47403192939294
 1 -10.37988241234124 -2.48850438553855 -1.37452527192719
 1 -2.42141942914291 -1.25768597129713  1.89303579427943
 1 -2.31472493879388  1.67551961306131  1.18738238723872
 1 -2.09661274767477  0.65105421182118  3.69904024142414
 1 -2.99568667776778  2.21006022882288  3.58403642584258
 1 -3.81816461696170  0.69149430373037  3.86692837803780
 1 -2.22613773277328 -1.66267693849385 -0.28110611771177
 1 -2.38072444144414  0.11701932173217 -0.58997573217322
 1 -0.41685711441144  0.60439002630263  0.74124798779878
 1 -0.20715913621362 -0.86624739133913  1.42503596189619
 1 -5.57381155885589  6.77581509350935  0.48833866516652
 1 -5.32474394569457  6.20537341874188  2.06651866436644
 1 -4.32826767136714  5.67114138213821  1.03633436603660
 1 -9.23245350515051  5.86220960296030 -0.58769012171217
 1 -8.90935999969997  8.07700742174217  0.65252502820282
 1 -7.57740567266727  7.36585342174217  1.57974693499350
 1 -12.15223569656966  3.43923307040704 -2.21857768926893
 1 -12.97044434213421  2.13645238763876 -1.44139986818682
 1 -12.60753178587859  3.25705303940394 -0.35205564506451
 1 -12.36327829272927 -1.52945386818682 -1.09080258115812
 1 -13.35465776487649 -0.15365807630763 -1.59014476887689
 1 -12.99419461866187 -1.85433909600960 -3.53993495159516
 1 -12.13567397309731 -0.22045051635163 -3.90975995439544
 1 -11.35380021942194 -1.93160418761876 -3.43995227342734
 1 -9.14218883748375 -4.57161366216622 -1.77093315631563
 1 -8.03902828802880 -5.62790874417442 -0.85217517261726
 1 -9.44157833683368 -5.23152160056006 -0.09022129082908
 1 -3.41643916241624 -3.22267887348735 -0.14627236533653
 1 -1.48078146574657 -4.43844605800580  3.35838755635564
 1 -3.14061049834984 -5.45295482038204  3.62427346504650
 1 -1.81536205670567 -6.25996678147815  2.93927728882888
 1  2.71947000180018 -1.58563518631863 -1.61470291899190
 1  2.40055649694970 -0.09729164436444 -2.24877593509351
 1  4.53151363806381 -1.22147056085609  0.05555695589559
 1  4.01695700720072  1.67606314901490 -2.55471595729573
 1  5.52429936213621  2.25814623852385 -1.99828726712671
 1  5.54304387288729  0.98108929982998 -3.06702295919592
 1  6.83308149204921  1.42426240684068  0.01512112601260
 1  6.29820769286929 -0.45288262496250  0.66435263076308
 1  7.54890701350135 -1.01158183118312 -1.56693145034503
 1  7.63037559605961  0.98765786878688 -1.90553137603760
 1  9.18327437173717  0.93441293879388  0.07713014111411
 1  8.66336945774577 -0.44488284098410  0.71494761816182
 1  10.11339597139714  0.13783993179318 -1.92162732073207
 1  9.07752736183618 -1.98437672117212 -1.93095147704770
 1  10.92329146974697 -2.28018141744174 -2.22846820492049
 1  10.31469366646665 -2.90670478517852 -0.72687008070807
 1  11.60351199279928  0.77707414081408  0.31767953875388
 1  11.21195879137914 -1.07140843844384  0.54422074217422
 1  12.71384933743374 -1.74638205750575 -1.11801407290729
 1  12.82861869176918 -0.08969403340334 -1.80735506920692
 1  13.79422084238424  0.72836820012001  0.62531736043604
 1  13.75587389798980 -0.85864224312431  0.92624499849985
 1  15.31624202560256  0.28864226122612 -1.24352562136214
 1  15.97453124992499 -2.42060140134013 -0.14570270577058
 1  14.91136278067807 -2.13754827482748 -1.72037341084108
 1  16.67635591519152 -1.84287518451845 -1.41972848614862
 1  15.91049432293229  1.42006033973397  0.54156007230723
 1  16.38074215201520 -0.11415770057006  1.38333682838284
 1  18.26265300300030 -0.55032154615462 -0.23781397699770
 1  17.69678698829883  1.03945283938394 -1.13729947354735
 1  18.27502655955595  2.37933920192019  0.99222116891689
 1  18.69649561206121  0.78367320682068  1.87041028652865
 1  20.56587641994200  0.40459145674567  0.21426731893189
 1  19.83245006350635  3.15887666416642 -0.79115129982998
 1  21.27299109990999  2.54530567266727 -1.33529151035103
 1  19.65534393199320  1.54700499069907 -1.67876626102610
 1  21.04477833133313  1.36941258215822  2.37110077887789
 1  22.22525041784178  2.02824329502950  1.24640129372937
 1  21.01001107960796  2.92238835603560  1.89026616331633

