%nproc=4
%Mem=2GB
# td=(NStates=1) CAM-B3LYP/6-31G(d,p) 

TD

0 1
12 -7.12351292429243  0.60349909800980  0.11083877127713
 6 -4.85173979197920 -1.90717189558956  0.46539307200720
 6 -4.73973390229023  2.86995544284428  0.98413477837784
 6 -9.39656439193919  3.18681417691769 -0.38615147484748
 6 -9.58507882158216 -1.69376488748875 -0.85834226332633
 7 -5.01934535913591  0.50195001310131  0.59013943224322
 6 -4.37299700580058 -0.68460828282828  0.76415443864386
 6 -2.93227223262326 -0.38914834053405  1.15864621882188
 6 -2.98657209560956  1.11280394869487  1.57251798249825
 6 -4.25920291519152  1.44217496629663  0.99536656655666
 6 -2.90222530463046  1.37047933603360  3.08875028392839
 6 -1.97176063706371 -0.65011027242724  0.03552751105111
 6 -0.44050147274727 -0.69490383758376  0.51441557085709
 6  0.55379651685168 -0.74132764566457 -0.68583396389639
 8  0.28463970407041 -1.15011041864186 -1.76200253195320
 8  1.82115392589259 -0.42174957135714 -0.24748153705371
 7 -7.03970441834183  2.59094468426843  0.30395909140914
 6 -6.05330460946095  3.34083505930593  0.70621415501550
 6 -6.40912816591659  4.71800609000900  0.70955164236424
 6 -7.70108281528153  4.86213684518452  0.28522691399140
 6 -8.10335460706071  3.43753294859486  0.10040258655866
 6 -5.48153611031103  5.84084655055506  1.08388314881488
 6 -8.62199999759976  6.05939697339734  0.28856584198420
 6 -8.44869876117612  7.13838995759576  1.06001225102510
 7 -9.10629290189019  0.69340220132013 -0.47445147884788
 6 -9.84688094779478  1.77537749084908 -0.67991431553155
 6 -11.19324842144214  1.48739707880788 -1.16625834533453
 6 -11.26216862076208  0.08671403550355 -1.26167488148815
 6 -10.00694637533753 -0.39603157745775 -0.80597561366137
 6 -12.28483730743074  2.42304287528753 -1.47838461326133
 6 -12.39117366366637 -0.70640805090509 -1.63200400890089
 6 -12.43882137053705 -1.01241365256526 -3.15816093469347
 7 -7.24161362966297 -1.41395100870087 -0.18065274227423
 6 -8.24533477327733 -2.21421659375938 -0.48899385458546
 6 -7.82892903850385 -3.63103137063706 -0.38829610691069
 6 -6.50217410151015 -3.59576391339134 -0.01862359425943
 6 -6.18697129352935 -2.21496977827783  0.11465426962696
 6 -8.63417088448845 -4.83449629202920 -0.75063354175418
 6 -5.30311478177818 -4.44429831333133  0.18108098069807
 8 -5.10097893579358 -5.58311279467947  0.28205523622362
 6 -4.11362494189419 -3.26737252705270  0.47434730003000
 6 -3.55371600250025 -3.71356657795780  1.88254862776278
 8 -3.62644424502450 -3.15118185438544  2.95406808790879
 8 -2.70583177687769 -4.75239996239624  1.71249983088309
 6 -2.22156274417442 -5.35564979407941  2.95365030053005
 6  2.80365287698770 -0.55598339293929 -1.26358755915592
 6  4.14816690569057 -0.34596277257726 -0.56386653565357
 6  5.14658814321432  0.41464773017302 -0.99991976467647
 6  5.04896331933193  1.25144779407941 -2.24129829512951
 6  6.38941327412741  0.52465431563156 -0.21571805700570
 6  7.65979351725173 -0.03568391529153 -0.90574752525253
 6  8.90394226682668  0.03595846544654 -0.09721153395340
 6  10.11689231373137 -0.58115518721872 -0.80069103960396
 6  10.12318901910191 -2.15437637373737 -1.00658412341234
 6  11.41912478937894 -0.29371315211521 -0.04393352475248
 6  12.78611351905190 -0.51684573567357 -0.68254827772777
 6  13.90231970037004 -0.12820402320232  0.14170123762376
 6  15.29838596349635 -0.29196292539254 -0.43559179897990
 6  15.64162583148315 -1.70136777057706 -0.67283690139014
 6  16.40102420832083  0.35144950495049  0.42986749394939
 6  17.73705829522952  0.60072147054705 -0.19963577817782
 6  18.78797916741674  1.32813103010301  0.65594602760276
 6  20.23030169936994  1.35432576607661  0.17805256845685
 6  20.23229458325833  2.18820711791179 -1.06600759345935
 6  21.10216114691469  1.89407234353435  1.38443380678068
 1 -4.02519400390039  3.55036055745575  1.39601418831883
 1 -10.05497589028903  3.98956979197920 -0.58940433193319
 1 -10.31393468286829 -2.32523186398640 -1.26494314651465
 1 -2.74405086198620 -0.87185549944995  2.06512720392039
 1 -2.43939754495449  1.64841842444244  0.89501015141514
 1 -1.95089954745475  1.15147560046005  3.31180489398940
 1 -2.93401846184619  2.47809186668667  3.07817998339834
 1 -3.56341978467847  0.86582126612661  3.71023343614361
 1 -2.07849033393339 -1.51908186858686 -0.43200710991099
 1 -1.97573924642464  0.09787703810381 -0.66242628222822
 1 -0.23644716211621  0.16541115501550  1.22134253335334
 1 -0.33019082108211 -1.48380289548955  1.21814576977698
 1 -6.00689946534653  6.77473611771177  0.57055276447645
 1 -5.54985197459746  5.89284264736474  2.14347064416442
 1 -4.43370732673267  5.58767993439344  0.64353752935294
 1 -9.30868292079208  5.94271041914191 -0.32626285448545
 1 -9.11796301220122  7.93981472037204  1.00942056385639
 1 -7.60947041284128  7.20258665816582  1.79188757425743
 1 -12.06680078517852  2.96695702170217 -2.61296430113011
 1 -13.14196386558656  1.93982787398740 -1.39543073457346
 1 -12.07453918501850  3.19051770647065 -0.68145938993899
 1 -12.19326410481048 -1.74245369046905 -1.17666262116212
 1 -13.29874859375938 -0.18677541434143 -1.34184971247125
 1 -13.30390674327433 -1.67449213541354 -3.51556144064406
 1 -12.41208477267727 -0.07389192679268 -3.79268276397640
 1 -11.59432571187119 -1.54241910901090 -3.42812143214321
 1 -9.09117872087209 -4.74946568946895 -1.75136840094009
 1 -8.02439180398040 -5.75910591479148 -0.63840345334533
 1 -9.53967385228523 -4.84847986928693 -0.10739256185619
 1 -3.47649834573457 -3.62888613931393 -0.32994826632663
 1 -1.99038720522052 -4.62522896259626  3.72772568786879
 1 -2.98131774037404 -5.97572919051905  3.64822766166617
 1 -1.45255336683668 -6.04753402660266  2.71261521442144
 1  2.81298060216022 -1.57237907380738 -1.81978594359436
 1  2.48132561016102  0.01742602220222 -2.11667481968197
 1  4.29242014761476 -0.91406362156216  0.29418263426343
 1  4.03749271277128  1.11118982938294 -3.02161053075308
 1  5.16367177887789  2.21777203610361 -2.12105857405740
 1  5.89027633523352  1.02309341684168 -2.93421215221522
 1  6.45691775467547  1.61601560156016  0.05582822562256
 1  6.17374149354935 -0.12858089548955  0.71702141884188
 1  7.45940332503250 -1.11419065426543 -0.92150347394739
 1  7.78411084698470  0.73288649674968 -1.84754767836784
 1  9.18639069066907  1.06920480548055  0.09006663886389
 1  8.60497898659866 -0.34012951915191  0.82798066176618
 1  10.10831838323832 -0.21039850215021 -1.84461935143514
 1  9.41009599509951 -2.51971994849485 -1.67358328312831
 1  11.15871842754275 -2.24006078997900 -1.42434667856786
 1  10.12896578257826 -2.73010495249525 -0.12331177087709
 1  11.47540522142214  0.82855508570857  0.18706019351935
 1  11.52887594099410 -0.98004396569657  0.84891551315132
 1  12.71880519941994 -1.48044620582058 -0.91123879147915
 1  12.60604435693569  0.01725241624162 -1.56807016831683
 1  13.68648008470847  1.03041559755976  0.13169051205120
 1  14.00211296439644 -0.57595720042004  1.04359087558756
 1  15.33975726422642  0.17511699669967 -1.53545790379038
 1  15.61560900380038 -2.36319661176118  0.21946049214921
 1  14.93053610431043 -1.98436081168117 -1.44820223532353
 1  16.70635026442644 -1.84510003490349 -1.21705317481748
 1  15.93071827252725  1.40274810851085  0.91429797409741
 1  16.41592603980398 -0.20075925102510  1.39075183638364
 1  18.21258219691969 -0.59383593099310 -0.52722606300630
 1  17.67065412991299  0.91587890679068 -1.27793136893689
 1  18.35506629922992  2.27063122082208  0.71011901720172
 1  18.90714787508751  0.86943112411241  1.61545154545455
 1  20.62648756145614  0.33596974517452 -0.06666960296030
 1  19.74288839543954  3.15248881078108 -0.99604319771977
 1  21.20132438453846  2.50046669946995 -1.55815717901790
 1  19.77381128552856  1.81744355515552 -2.05315228422842
 1  21.19299527472747  1.07345545464546  2.11925154235424
 1  22.14357606390639  2.22123335303530  1.00732569886989
 1  20.68451818171817  2.83375345864586  1.75853629412941

