%nproc=4
%Mem=3GB
# td=(NStates=1) iop(3/107=0140000000,3/108=0140000000) CAM-B3LYP/6-31G(d,p) 

TD

0 1
12 -7.15450014171417  0.50102848634864  0.12775914591459
 6 -4.87018583508351 -1.94455168576858  0.56678208060806
 6 -4.78277430803080  2.73116183408341  1.17452755795580
 6 -9.44201096559656  3.11230878387839 -0.34367684298430
 6 -9.51580767876788 -1.73826559225923 -0.88434523942394
 7 -5.12069910111011  0.39545563616362  0.79173699769977
 6 -4.31600384768477 -0.74268541174117  0.79946784148415
 6 -2.96740296089609 -0.40619901790179  1.29489515861586
 6 -3.00805403230323  1.01928062966297  1.69578585788579
 6 -4.37067730243024  1.42542719381938  1.17969236313631
 6 -3.07693387418742  1.19217203650365  3.17356267086709
 6 -1.98399412911291 -0.54392038123812  0.11557536783678
 6 -0.47763347254725 -0.47310055805581  0.49886326862686
 6  0.43758568176818 -0.63029965186519 -0.62955274537454
 8  0.18156837363736 -0.87113089078908 -1.73032042514251
 8  1.78562716111611 -0.43876381478148 -0.24896028362836
 7 -7.03169081248125  2.57947115701570  0.30258118221822
 6 -6.00755089888989  3.34869863726373  0.80824670077008
 6 -6.38267317571757  4.79496636023602  0.88297655635564
 6 -7.67286207150715  4.87576938213821  0.38519464586459
 6 -8.08594812231223  3.40788772757276 -0.03990599199920
 6 -5.42462449634964  5.86900637433743  1.16199635483548
 6 -8.54406441444144  6.07981825142514  0.10090070257026
 6 -8.46750516051605  7.14673382308231  0.88219227852785
 7 -9.15480452155215  0.68448544294429 -0.58313488738874
 6 -9.90870835713571  1.83578690299030 -0.76812962646265
 6 -11.27191114381438  1.46163560806081 -1.15853071277128
 6 -11.25749523672367  0.06824437023702 -1.35925595389539
 6 -9.97515511911191 -0.33700389378938 -0.91138333963396
 6 -12.31485242294229  2.53767900930093 -1.42230168286829
 6 -12.36571036393639 -0.74610073387339 -1.74689402000200
 6 -12.44274618351835 -0.98734892719272 -3.27698835003500
 7 -7.29238220062006 -1.36923175887589 -0.08919159425943
 6 -8.26847117341734 -2.11322986848685 -0.59926150605060
 6 -7.87367940774077 -3.53832438383838 -0.47050735053505
 6 -6.56906469696970 -3.55938892099210 -0.03543562526253
 6 -6.15529926162616 -2.20688864466447  0.17323915931593
 6 -8.79536187568757 -4.72350844924492 -0.89640302340234
 6 -5.36611207410741 -4.43181674507451  0.30517549164916
 8 -5.18772976527653 -5.62401925892589  0.23332928152815
 6 -4.15347985058506 -3.29357680508051  0.64999332093209
 6 -3.41309548634863 -3.71820976367637  1.92147811631163
 8 -3.68996177957796 -3.20885824372437  2.98100145834583
 8 -2.54890024282428 -4.68371699019902  1.75928496599660
 6 -2.01108006500650 -5.14319952585258  2.90901830223022
 6  2.73032935333533 -0.49114740364036 -1.28445196239624
 6  4.10308119331933 -0.34445971387139 -0.74291685448545
 6  5.16176166746675  0.28859538753875 -1.17035991299130
 6  5.05232895849585  1.30669834513451 -2.37925206020602
 6  6.45641191989199  0.30934155015502 -0.36816734113411
 6  7.70009146174617 -0.04789333733373 -1.10091041974197
 6  8.95436314791479 -0.01255307140714 -0.14301040344034
 6  10.33833929452945 -0.51779344254425 -0.79505522552255
 6  10.25030830743074 -1.99101698159816 -1.31526849284929
 6  11.42534719851985 -0.27916280738074  0.18467050455046
 6  12.86604433993399 -0.51331136463646 -0.58210571567157
 6  14.04809608140814 -0.22748846314631  0.28426483808381
 6  15.28753474447445 -0.38999808340834 -0.38918457095710
 6  15.70599687068707 -1.83209159745975 -0.72888471477148
 6  16.46507350005001  0.29685620292029  0.44976971167117
 6  17.75476306400640  0.53254698429843 -0.17660418741874
 6  18.76760717931793  1.20561864036404  0.77122037873787
 6  20.18300110451045  1.36044547704770  0.16691339733973
 6  20.24591743754376  2.04185149024902 -1.15043973987399
 6  21.18846391339134  2.03514521442144  1.24638857885789
 1 -4.11733209670967  3.64244749614961  1.62517861366137
 1 -10.19390151345135  4.07190946544655 -0.50751527772777
 1 -10.14271869596960 -2.35687122222222 -1.63667148654865
 1 -2.78624591179118 -1.10698090079008  2.13860035073507
 1 -2.19649311561156  1.75042710381038  1.39360300930093
 1 -2.10344343074307  0.85616472287229  3.61668200560056
 1 -3.21149825892589  2.37753697649765  3.42543056525653
 1 -4.02583538403840  0.75587074137414  3.72366405160516
 1 -1.87715283428343 -1.51327199799980 -0.65293330043004
 1 -2.23254962396240  0.24887250705070 -0.77374410901090
 1 -0.23499892859286  0.40651023832383  0.87024088708871
 1 -0.21160958125813 -1.32629339593959  1.15912937123712
 1 -5.67842201990199  6.86374388638864  0.81882171347135
 1 -5.10020149144914  6.01176405780578  2.33325533803380
 1 -4.33992883748375  5.78466273427343  0.76200693329333
 1 -9.36875713551355  5.81874525652565 -0.62166351905191
 1 -9.13984304800480  7.84464418541854  0.68650842654265
 1 -7.80338827092709  7.30049688608861  1.55685464576458
 1 -12.03003347634763  3.32781192829283 -2.16594242574257
 1 -13.15843314101410  2.07623636603660 -1.62433816201620
 1 -12.55083611631163  3.04577191129113 -0.47457789728973
 1 -12.16766873177318 -1.80924184698470 -1.36292979387939
 1 -13.37971027012701 -0.33463617411741 -1.62009776417642
 1 -13.54299949914992 -1.69657331943194 -3.37505846394640
 1 -12.65869627532753 -0.04112258355836 -3.90765974437444
 1 -11.60933577297730 -1.45502652985298 -3.68271654985499
 1 -9.20005462406241 -4.62616911771177 -1.79208527152715
 1 -8.30382476767677 -5.68853480678068 -0.70440039513951
 1 -9.55475965496550 -4.76151459985999 -0.18182045074507
 1 -3.26197371587159 -3.40267687328733 -0.30145788388839
 1 -1.67417080468047 -4.39649186258626  3.67715943354336
 1 -2.92598903620362 -5.66512603750375  3.37293833153315
 1 -1.10203072357236 -5.87402818761876  2.67824118521852
 1  2.53186124092409 -1.43572019481948 -1.84452590129013
 1  2.47024346564656  0.57559564436444 -1.91848290579058
 1  4.16362684938494 -0.80338875267527  0.19258065826583
 1  4.09029434093409  1.30540608330833 -2.73267375307531
 1  5.49839677187719  2.24200462436244 -1.98705614401440
 1  5.62033160166017  0.84857604850485 -3.03666992389239
 1  6.51766995089509  1.25503548414841 -0.17002738883888
 1  6.22256012811281 -0.24896223292329  0.57314350985098
 1  7.71582370517052 -1.00620129312931 -1.73881863906391
 1  7.90778333683368  0.66680578357836 -2.03241406430643
 1  9.08544458875888  1.04578407590759  0.48374080218022
 1  8.74727784858486 -0.70135848854885  0.68357448084808
 1  10.23973860566057  0.20643679147915 -1.65526068406841
 1  9.28404801390139 -2.33789207270727 -1.88512689458946
 1  11.19690883148315 -2.22934633393339 -1.75216057415742
 1  10.02181437853785 -2.73102721742174 -0.40854824852485
 1  11.54289593119312  0.82820925432543  0.44888265906591
 1  11.42023961946195 -1.01126242384238  1.06247256735674
 1  13.11353930643064 -1.60598801810181 -0.86306857835784
 1  12.90621645154515  0.00879581558156 -1.57857219091909
 1  14.01436285658566  0.78119348264826  0.49750457915792
 1  13.94070238083808 -0.70549692859286  1.32453482748275
 1  15.12503290469047  0.24187758475848 -1.38256952575258
 1  16.11451524832483 -2.41338067926793  0.27413927842784
 1  14.78330997539754 -2.38158267826783 -1.32488386188619
 1  16.60796907650765 -1.72068296529653 -1.40315682898290
 1  16.10537381088109  1.33998233193319  0.85172108840884
 1  16.47234131193119 -0.21068735353535  1.39366786148615
 1  18.20979771747175 -0.40602711671167 -0.45561575717572
 1  17.65663297289729  1.28349724382438 -1.02300804440444
 1  18.56907596449645  2.48063933193319  1.08748069486949
 1  18.90834679717972  0.62395723522352  1.80101334683468
 1  20.68339817211721  0.40144114171417  0.06486237843784
 1  20.07647446594660  3.12683345984598 -0.83217540224022
 1  21.10289409020902  1.95884702680268 -1.79975795699570
 1  19.24846324392439  1.73046333653365 -1.82852123652365
 1  21.28014186768677  1.60372601350135  2.25454912371237
 1  22.19139703250325  2.13091356205621  0.91503815741574
 1  20.70349042754275  3.07633375057506  1.49211634833483

