%nproc=4
%Mem=3GB
# td=(NStates=1) iop(3/107=0140000000,3/108=0140000000) CAM-B3LYP/6-31G(d,p) 

TD

0 1
12 -7.13977866956696  0.67047543104310  0.08871524152415
 6 -4.81306012251225 -1.96112334293429  0.66327172957296
 6 -4.66510254085409  2.80809952785278  1.18302840804080
 6 -9.37231399589959  3.09435698869887 -0.45971844714471
 6 -9.50452655065507 -1.75748751445145 -0.83149995489549
 7 -5.14440147134713  0.39497558815882  0.70783860786079
 6 -4.36457870517052 -0.71220236343634  0.81311920662066
 6 -2.96180240084008 -0.48956735473547  1.25593126222622
 6 -3.05454868176818  0.98487718931893  1.66424270357036
 6 -4.39242947764776  1.47483213431343  1.08345273917392
 6 -2.91338751955195  1.16066888618862  3.22645796039604
 6 -1.90625635533553 -0.55004099329933  0.01365517581758
 6 -0.52416812601260 -0.59232248024802  0.53514689698970
 6  0.54151607480748 -0.75389201110111 -0.63748353845385
 8  0.28497871467147 -1.18729250695069 -1.74056144924492
 8  1.80785938433843 -0.40157009540954 -0.26455184278428
 7 -7.05803344674468  2.60498370827083  0.37587851195119
 6 -6.01126126992699  3.39635340274027  0.91218709480948
 6 -6.36118102650265  4.72318918251825  0.94748300700070
 6 -7.63107789308931  4.85607741294129  0.36770289668967
 6 -8.06002553005301  3.47118405720572  0.00892889148915
 6 -5.49348138203820  5.84546402010201  1.33487364256426
 6 -8.53492350035003  5.95724599419942  0.20040065256526
 6 -8.27466587658766  7.24764391409141  0.70593465276528
 7 -9.00401944304430  0.68492548694869 -0.62195876977698
 6 -9.81264875117512  1.84322764706471 -0.75157797129713
 6 -11.15290924362436  1.51661110561056 -1.18214307400740
 6 -11.30673016021602  0.14006155195520 -1.25947597589759
 6 -9.93978158175818 -0.33893408680868 -0.94455665696570
 6 -12.24099503720372  2.59097433883388 -1.54903435613561
 6 -12.35070886378638 -0.70261638543854 -1.68599793039304
 6 -12.19187109600960 -1.13949414171417 -3.22536318751875
 7 -7.27629059145915 -1.35659049474947 -0.01666434153415
 6 -8.24702902920292 -2.17711625712571 -0.45805738563856
 6 -7.86218825862586 -3.62963351475148 -0.37168746854685
 6 -6.49737752825283 -3.53256623872387  0.05863378167817
 6 -6.14207793949395 -2.18010596639664  0.20899273467347
 6 -8.62320465996600 -4.83905000340034 -0.67857124022402
 6 -5.32796825972597 -4.35237880128013  0.20878585268527
 8 -5.23914490679068 -5.56204306130613  0.15876182478248
 6 -4.21319582218222 -3.30454790219022  0.60214853645365
 6 -3.59631380818082 -3.70915885858586  1.90103607210721
 8 -3.79941272467247 -3.13716107400740  2.94266762496250
 8 -2.77739309210921 -4.80361898039804  1.74935397289729
 6 -2.12677163416342 -5.30183538943894  2.96318371877188
 6  2.79868618901890 -0.52120040894089 -1.35861937913791
 6  4.11134201940194 -0.36144141204120 -0.78984154695470
 6  5.06236172747275  0.51984851285129 -1.18526140314031
 6  5.15642936853685  1.15243291859186 -2.47303143814381
 6  6.37835411411141  0.42418303430343 -0.32568309270927
 6  7.63784523712371 -0.24626317431743 -1.03530385908591
 6  8.85305301690169 -0.05614743084308 -0.19363546594659
 6  10.13428888948895 -0.50013167636764 -0.89839555955596
 6  10.03650692729273 -2.03748162806281 -1.49232619861986
 6  11.37002166596660 -0.26708159925993 -0.06022398489849
 6  12.75032276777678 -0.40936096959696 -0.71707921302130
 6  13.88975024682468 -0.07674338863886  0.20102651425143
 6  15.26951294229423 -0.05887497109711 -0.51524717721772
 6  15.71431770277028 -1.57144553285329 -0.80738256455646
 6  16.34593158585859  0.55705222252225  0.34997973267327
 6  17.73899148684869  0.52902663226323 -0.15031155815582
 6  18.71612203080308  1.24937301580158  0.85202845954595
 6  20.16254905930593  1.28892832533253  0.37537424342434
 6  20.45409825562556  2.02865017011701 -0.96729142504250
 6  21.00811587858786  1.69987168706871  1.52369630963096
 1 -4.02303266676668  3.59053230463046  1.71642773857386
 1 -10.13920604390439  4.02623489798980 -0.61881640784078
 1 -10.18860328442844 -2.66159169426943 -1.16876469586959
 1 -2.44865215241524 -1.26513671637164  1.88115460616062
 1 -2.31930539683968  1.50550261136114  1.25247889688969
 1 -2.05132821922192  0.72797190359036  3.60539087648765
 1 -2.86991410051005  2.19134835763576  3.52367038923892
 1 -3.72731553205321  0.79078423272327  3.75968765396540
 1 -2.11339645864586 -1.56965763656366 -0.33571157825783
 1 -2.20460682968297  0.15624324412441 -0.79465620022002
 1 -0.25881130983098  0.43648323562356  1.10570443344334
 1 -0.33427184748475 -1.31277204380438  1.28130158845885
 1 -5.80749492719272  6.76450396239624  0.52834266556656
 1 -5.32614408570857  6.13814669606961  2.39094110661066
 1 -4.42666751135113  5.59990425842584  1.03116384898490
 1 -9.45421568136814  5.83727710971097 -0.59355070777078
 1 -8.84058312201220  8.10583030403040  0.35883565926593
 1 -7.54289222132213  7.55553238963896  1.26549550985099
 1 -11.97298777177718  3.28277742484248 -2.25157098859886
 1 -13.16420371807181  2.13251199359936 -1.81125685388539
 1 -12.28028906160616  3.07814514861486 -0.58865930543054
 1 -12.37687965286529 -1.57976889968997 -1.13786728762876
 1 -13.32081438053805 -0.17185989648965 -1.70804655905591
 1 -12.99919511871187 -1.89305296739674 -3.43333429152915
 1 -12.21375178087809 -0.20207867916792 -3.76207518591859
 1 -11.10111495089509 -1.62612363956396 -3.25606388458846
 1 -8.67010162876288 -5.15323182398240 -1.94516057905791
 1 -8.25161954715472 -5.89561551485149  0.00371041594159
 1 -9.75545972497250 -4.59003745214522 -0.27851011971197
 1 -3.43214073257326 -3.54580118571857 -0.39039677777778
 1 -1.73188657625763 -4.46017823122312  3.39264098169817
 1 -2.98221465876588 -5.76538606350635  3.60151118881888
 1 -1.27538805930593 -5.98190897569757  2.72047540864086
 1  2.72934098889889 -1.55161178397840 -1.80267171587159
 1  2.48362480378038  0.24850293509351 -2.18421947944794
 1  3.98412889958996 -0.69264767856786  0.13953535373537
 1  4.19722503400340  1.33972951565156 -2.88780926662666
 1  5.74610154235423  2.21342176607661 -2.41779921832183
 1  5.74851441994199  0.56824801570157 -3.42527878477848
 1  6.67495567946795  1.55455543614361  0.08454806870687
 1  6.23960183228323 -0.09715705240524  0.63560975647565
 1  7.32141426422642 -1.28332900590059 -1.50051480868087
 1  8.00648320682068  0.49264836783678 -1.89560038293829
 1  8.97147319161916  1.03723322082208  0.03998642674267
 1  9.00469359015902 -0.62049040174017  0.71114723812381
 1  10.20186481828183  0.16559270707071 -1.86940209820982
 1  9.21510111921192 -2.30170845434543 -2.17441582348235
 1  10.91730087068707 -2.22972637193719 -2.05043040114011
 1  10.14260645774578 -2.65415953065306 -0.76076347004700
 1  11.29776141774177  0.80008644204420  0.18653642444244
 1  11.31720931643164 -0.96690798839884  0.84674099419942
 1  12.83173112561256 -1.28908632793279 -1.07931020252025
 1  12.71442727262726  0.32369730573057 -1.58496282998300
 1  13.80848226852685  0.99134449774977  0.42860768946895
 1  13.99253756435644 -0.71339771867187  1.24304667866787
 1  15.23930433183318  0.38180157715772 -1.50998226702670
 1  15.67512130893089 -1.99192853405341  0.29656152065207
 1  15.17219886428643 -2.22491701170117 -1.52673404690469
 1  16.70661894149415 -1.75799669666967 -1.33809032233223
 1  15.86704997849785  1.53478181188119  0.86030194649465
 1  16.20825490329033  0.00558427362736  1.28551704640464
 1  18.02637937563756 -0.40227674167417 -0.44916511211121
 1  17.82526983658366  1.23159205330533 -1.22232797639764
 1  18.14302335923592  2.27548881688169  0.93366531333133
 1  18.77363332583258  0.70655549504950  1.85452869836984
 1  20.14331416371637  0.18932993059306  0.27356324852485
 1  20.17695451395140  3.12738351485148 -0.84703688838884
 1  21.53656745754575  1.88924006610661 -1.14406238743874
 1  19.75387378497850  1.62098238843884 -1.74071245564556
 1  21.04194804830483  1.14214985588559  2.30870453925393
 1  22.05584347714771  1.66911738243824  1.30105675927593
 1  20.81532161066107  2.79653577077708  1.99633677037704

