%nproc=4
%Mem=2GB
# td=(NStates=1) CAM-B3LYP/6-31G(d,p) 

TD

0 1
12 -7.04275484848485  0.62058080618062 -0.01314362696270
 6 -4.85080969896990 -1.99186036443644  0.53729026172617
 6 -4.82906283518352  2.80003845114511  1.06120248514851
 6 -9.44771950745075  3.06930242574257 -0.54430729042904
 6 -9.49887020072007 -1.69032454345435 -0.91908833793379
 7 -5.02104552915292  0.44095391349135  0.71922234053405
 6 -4.27070677677768 -0.74340416241624  0.82561058425843
 6 -2.87986699209921 -0.37392681838184  1.20875122932293
 6 -3.00614405280528  1.01254392269227  1.65170590129013
 6 -4.30689768466847  1.43453420222022  1.08379540944094
 6 -3.04050913301330  1.27031932003200  3.11844325322532
 6 -1.88976243724372 -0.71588685008501  0.17826178447845
 6 -0.45330275287529 -0.52830717791779  0.56874100340034
 6  0.43134427162716 -0.71281479437944 -0.53472885338534
 8  0.23605484558456 -1.11815722332233 -1.60978731043104
 8  1.75796760726073 -0.51734913131313 -0.07443423232323
 7 -7.07311775967597  2.53972956275628  0.38901759725973
 6 -6.07393667266727  3.25183615941594  0.83128666226623
 6 -6.45723297639764  4.76757104650465  0.80798148534853
 6 -7.75102780978098  4.80636126762676  0.31721011231123
 6 -8.12351662326233  3.41996119141914  0.00459300560056
 6 -5.48354631133113  5.89438190409041  1.24354911541154
 6 -8.67032483008301  5.90315134883488  0.20300728612861
 6 -8.62431632293229  7.21525764436444  0.80699694949495
 7 -9.06205847844785  0.70472333343334 -0.80363439713971
 6 -9.89512577227723  1.82467242034203 -0.77374369846985
 6 -11.11634073067307  1.46130446954695 -1.17641936143614
 6 -11.24370677457746  0.07119248334833 -1.24283299729973
 6 -9.87288296899690 -0.38610058435844 -0.97001201730173
 6 -12.37630645434543  2.43521409240924 -1.42199897469747
 6 -12.43574812111211 -0.75568297839784 -1.64076488498850
 6 -12.53602109050905 -0.97288970017002 -3.29693481208121
 7 -7.17123659195920 -1.44371398499850 -0.18133281028103
 6 -8.18360860066007 -2.21805697779778 -0.58553350855085
 6 -7.78964511011101 -3.53281154865487 -0.60082736003600
 6 -6.44002788688869 -3.60464480148015 -0.15651738363836
 6 -6.12019461586159 -2.22118039933993  0.10718352255226
 6 -8.72661012841284 -4.82875571797180 -0.84991346974697
 6 -5.23197766806681 -4.31601548504850  0.23376624922492
 8 -5.12443128102810 -5.49156363976398  0.30916794749475
 6 -4.15947952735273 -3.33474926472647  0.59104897019702
 6 -3.46192682358236 -3.64575979727973  1.84094446734673
 8 -3.72775437603760 -3.11465820202020  2.95049773087309
 8 -2.61134232793279 -4.65539026142614  1.82739132003200
 6 -2.26690727862786 -5.22548677777778  3.14037897339734
 6  2.75202771447145 -0.82746054065407 -1.15138633903390
 6  4.06343843284328 -0.47979615591559 -0.58364851385139
 6  5.03900738513851  0.34389065446545 -1.02701247394739
 6  5.00394881788179  1.42330497979798 -2.12680684598460
 6  6.34404873767377  0.50497234743474 -0.19436592179218
 6  7.60817835573557 -0.07062740964096 -0.83754070457046
 6  8.85018689128913  0.03541841144114  0.01187937513751
 6  10.15748637313731 -0.44143121482148 -0.73144411491149
 6  10.13184988518852 -1.89992092819282 -1.06972043704370
 6  11.36290916781678 -0.03548732953295  0.05443631223122
 6  12.65215012271227 -0.36279033013301 -0.65606562946295
 6  13.92269173757376  0.02622141934193  0.13679074657466
 6  15.33600972587259 -0.15935966506651 -0.61959019881988
 6  15.68144981388139 -1.61379901370137 -0.93236285398540
 6  16.46783088898890  0.37977233723372  0.35722022922292
 6  17.79915450485048  0.53542494089409 -0.28334414901490
 6  18.86211658115812  1.10336855385539  0.61233166616662
 6  20.36755542474247  1.18246858035804  0.14854961816182
 6  20.39337069086909  2.11439973717372 -1.13269426212621
 6  21.31549248004801  1.61134407070707  1.26579194259426
 1 -3.88475996049605  3.45981150255025  1.31092567946795
 1 -10.06139653235324  4.10382121712171 -0.51468686018602
 1 -10.13797708710871 -2.43655299609961 -1.07107375957596
 1 -2.59692614951495 -0.98124643854385  2.18805949714971
 1 -2.05463906910691  1.59907348994899  1.33727437783778
 1 -2.37545200270027  1.04000445334533  3.71764547804780
 1 -3.18349340934093  2.46639069656966  3.40755292069207
 1 -3.75619906260626  0.60615529952995  3.58739115191519
 1 -1.80239272417242 -1.74545450585059 -0.39702361156116
 1 -2.18797046954695 -0.19557230683068 -0.83290332993299
 1 -0.23040655805581  0.41853646754675  0.85423582268227
 1 -0.02156995899590 -1.04898941414141  1.34454841004100
 1 -5.69456823222322  6.95047369146915  1.24914062326233
 1 -5.32210920032003  5.96581994509451  2.43204950205021
 1 -4.37470142614261  5.60912207860786  1.02306548214821
 1 -9.37784983748375  5.70528667676768 -0.45218544674467
 1 -9.22045326122612  7.92862360126013  0.26861648344834
 1 -7.88374784058406  7.48549494899490  1.44671305680568
 1 -12.27932203730373  3.04839516551655 -2.38401140584058
 1 -13.39092876207621  1.94395828702870 -1.66345753725373
 1 -12.50341207230723  3.10595925062506 -0.49074031803180
 1 -12.26520129852985 -1.74848429352935 -1.26343129802980
 1 -13.32857157605761 -0.30747748454846 -1.09279480698070
 1 -13.37085343794380 -1.68877356355636 -3.45829571407141
 1 -12.87666123032303  0.03357882028203 -3.92969646534653
 1 -11.66166244554456 -1.38018288538854 -3.69039765976598
 1 -8.87554715771577 -4.96821756465647 -1.95073833793379
 1 -8.26686605140514 -5.87088709290929 -0.54532414541454
 1 -9.69367925282528 -4.96747176847685 -0.47334915751575
 1 -3.61658235413541 -3.63605685638564 -0.37113238473847
 1 -1.61329949644965 -4.41165760546055  3.58838175347535
 1 -3.14137374597460 -5.37452907050705  3.84879771867187
 1 -1.72530064156416 -6.12656192939294  2.83929788268827
 1  2.56805610971097 -1.85918775467547 -1.49323328832883
 1  2.53738121572157 -0.13957967836784 -2.04828798099810
 1  4.33004390999100 -1.12974518971897  0.19830304630463
 1  4.04055301880188  1.54480319071907 -2.74500286998700
 1  5.17833324502450  2.46333659255926 -1.80805727392739
 1  5.80426773437344  1.23275438293829 -2.84197292829283
 1  6.63152521542154  1.64079807980798 -0.02389974717472
 1  5.96325044444445  0.17163912651265  0.84162387908791
 1  7.48172555725573 -1.04733396859686 -1.34673599719972
 1  7.69539197509751  0.77361056915692 -1.60924384798480
 1  9.01111316291629  1.14850273527353  0.30352798499850
 1  8.84748323702370 -0.61076658285829  0.82362022572257
 1  10.20510806220622  0.17918045574557 -1.68103299279928
 1  9.14396938243824 -2.03521149764976 -1.60485641044104
 1  10.92367492319232 -2.19911669556956 -1.63879812371237
 1  10.10619350535054 -2.71546348834883 -0.33894333403340
 1  11.57188486938694  0.90531276147615  0.39591107860786
 1  11.61143419681968 -0.75850181148115  0.94286490809081
 1  12.61975529442944 -1.42456061726173 -0.83538120572057
 1  12.83442719521952  0.31186187718772 -1.45113847514752
 1  13.81419285598560  0.98909146514652  0.44994233723372
 1  14.00378313141314 -0.72920252495250  1.01781829832983
 1  15.12683597209721  0.35161464646465 -1.56517087508751
 1  15.85461290419042 -2.28871916401640 -0.09467092099210
 1  14.89752280298030 -1.96221859745975 -1.44919233433343
 1  16.57941757115712 -1.55559108400840 -1.58643011251125
 1  16.25424062476248  1.35170300400040  0.81656820112011
 1  16.47959240644064 -0.33870304540454  1.18455121632163
 1  18.05309624832483 -0.36368291569157 -0.82039537993799
 1  17.77620468496850  1.19078639753975 -1.02897647344734
 1  18.64494528712871  2.34649880758076  0.84608261356136
 1  18.72498965926593  0.49475365636564  1.58715871617162
 1  20.55576048874887  0.06838298649865 -0.19153208920892
 1  19.86097020362036  2.81882544444444 -0.82375596899690
 1  21.43339759185919  2.09633628642864 -1.52081344464446
 1  19.94477838223823  1.65692750355036 -2.02716968596860
 1  21.20450642584258  1.03063117221722  2.23889350655066
 1  22.27120882718272  1.59285051475148  0.80751571787179
 1  21.21952168206821  2.65595567886789  1.44047448794880

