%nproc=4
%Mem=2GB
# td=(NStates=1) CAM-B3LYP/6-31G(d,p) 

TD

0 1
<<<<<<< HEAD
12 -7.04188476147615  0.66293504160416 -0.00489280188019
 6 -4.85400001800180 -1.92871404980498  0.51450798349835
 6 -4.76690661956196  2.78662711001100  1.14963132803280
 6 -9.40931566706671  3.15954144964496 -0.46545940564056
 6 -9.50982129582958 -1.79019453045305 -0.93046947604760
 7 -5.06411983658366  0.41651146924692  0.71746216451645
 6 -4.24411411751175 -0.76135595759576  0.91649967316732
 6 -2.83395240064006 -0.43545297099710  1.16457681188119
 6 -2.97145058345835  1.01768443674367  1.61274200490049
 6 -4.25490248514851  1.48990973977398  1.05358238813881
 6 -2.92381746384638  1.12453474157416  3.19850125902590
 6 -1.82774623562356 -0.54582984438444  0.05721968026803
 6 -0.47398482108211 -0.35294964216422  0.53690782008201
 6  0.50570170737074 -0.64124763766377 -0.56340172067207
 8  0.20622186228623 -1.19160456805681 -1.62948928062806
 8  1.75266707720772 -0.42375977237724 -0.14714150305031
 7 -7.02780322822282  2.59755534533453  0.19115781128113
 6 -5.98557783678368  3.30847182298230  0.81456499009901
 6 -6.36768402150215  4.71914620402040  0.86586727392739
 6 -7.75276798379838  4.79916054755476  0.43968235953595
 6 -8.10515478707871  3.50822001730173 -0.01633908760876
 6 -5.44767272397240  5.91694416031603  1.24161892239224
 6 -8.55532332993299  5.99188022172217  0.23893087848785
 6 -8.59878376967697  7.17755387398740  0.91603785358536
 7 -9.03009528212821  0.66950981208121 -0.62156619031903
 6 -9.85570182988299  1.85244519761976 -0.64074039813981
 6 -11.17450654725472  1.48219655875588 -1.13749546904690
 6 -11.19954235813581  0.13918928302830 -1.30010872487249
 6 -9.86233191389139 -0.34499647394739 -1.00526554265427
 6 -12.24786361006100  2.53660423142314 -1.38399517431743
 6 -12.31790633693369 -0.74016142624262 -1.77464827332733
 6 -12.21743923232323 -1.07495990719072 -3.34354947354735
 7 -7.24015348364837 -1.44764437803780 -0.13999867686769
 6 -8.33045328512851 -2.23983915601560 -0.54460941614161
 6 -7.92985913151315 -3.51381964946495 -0.39040631793179
 6 -6.57008089218922 -3.56887122412241 -0.01616334823482
 6 -6.14153675007501 -2.12224050535054  0.16497930213021
 6 -8.67377484488449 -4.77853069546955 -0.70860933933393
 6 -5.38835330563056 -4.32438632213221  0.20849372197220
 8 -5.17629646754675 -5.53529801320132  0.05580261096110
 6 -4.19854343374337 -3.31893768356836  0.58211807710771
 6 -3.55550618151815 -3.66959218051805  1.89827019991999
 8 -3.85194679527953 -3.11431816801680  2.99581226232623
 8 -2.68552974667467 -4.63406812921292  1.77883646454645
 6 -2.21129171707171 -5.24231846094609  2.93554849034903
 6  2.82742525422542 -0.76558435303530 -1.13015421582158
 6  4.20011210021002 -0.44322249854986 -0.58972912191219
 6  5.17238072247225  0.25553181858186 -1.01872164486449
 6  5.01219964296430  1.15038768806881 -2.27323148844884
 6  6.52635696849685  0.45160701090109 -0.26770325552555
 6  7.66574411231123 -0.20906125302530 -0.95297224772477
 6  8.96032790539054 -0.18708383878388 -0.10665247804780
 6  10.12892351685169 -0.64250132183218 -0.90346131663166
 6  10.16023272347235 -2.09548048414841 -1.32516598159816
 6  11.30367324422442 -0.17363114391439 -0.03245237663766
 6  12.73607851555155 -0.50445449654966 -0.73010303320332
 6  13.96093556195619 -0.21066226902690  0.14966203370337
 6  15.30203632853285 -0.30144387348735 -0.42171041084108
 6  15.63254492339234 -1.75109274307431 -0.59573919161916
 6  16.37211131703170  0.29675403540354  0.55720022722272
 6  17.69668425782578  0.54604600300030 -0.04107992259226
 6  18.70396076557656  1.39499771677168  0.71068150115011
 6  20.14117278647865  1.50318065156516  0.15586034923492
 6  20.12239359315932  2.16859515671567 -1.21406239893989
 6  21.11827275807581  2.26663960026003  1.09076443984398
 1 -3.96530801530153  3.67857337873787  1.30136472337234
 1 -10.28771916461646  3.93667450245024 -0.33886927842784
 1 -10.23901719111911 -2.62781212201220 -1.28150480268027
 1 -2.68117457435744 -1.11048936283628  1.76667735893589
 1 -2.11254485968597  1.49901348394839  1.32407305770577
 1 -2.05330978847885  0.70835128802880  3.64136785028503
 1 -3.04089914991499  2.08234229172917  3.59166133153315
 1 -3.77470091279128  0.29204388838884  3.47788020082008
 1 -1.92945543044304 -1.59730969136914 -0.42701661086109
 1 -2.18907057955796 -0.01460421002100 -0.95020506010601
 1 -0.56917043444344  0.78537315121512  0.79659005810581
 1 -0.12087988998900 -0.85900041524152  1.44351830703070
 1 -5.82165094049405  6.85878452255225  0.52837854705470
 1 -5.36983397279728  6.32280564366437  2.19864616171617
 1 -4.59243319931993  5.74273543994399  0.83756693229323
 1 -9.20314236673667  5.77136328442844 -0.45221544974497
 1 -9.14260547644764  7.94896563546355  0.62962258405841
 1 -7.88646811261126  7.39214561406141  1.75312369786979
 1 -11.82294639973997  3.42953327932793 -2.07380038473847
 1 -13.14580424962496  2.01392528372837 -1.78961015251525
 1 -12.41772350345035  3.11163981868187 -0.45353659765977
 1 -12.21484626302630 -1.50466991209121 -1.17583253815382
 1 -13.26530524942494 -0.34409114591459 -1.46460198769877
 1 -13.08918527112711 -1.67367205340534 -3.48289817431743
 1 -12.36234979917992 -0.05990052765277 -3.84573806950695
 1 -11.11032731203120 -1.55039990709071 -3.41207982798280
 1 -9.17812741574157 -4.67969871277128 -1.70422368646865
 1 -7.93519288408841 -5.70588059225923 -0.79532914591459
 1 -9.56551643654365 -5.05904092539254  0.17725590299030
 1 -3.23292398829883 -3.43649690039004  0.00096482498250
 1 -1.33546171267127 -4.61571801150115  3.43796671197120
 1 -3.01537114571457 -5.49236085368537  3.70353319221922
 1 -1.84175228672867 -6.46504577777778  2.96349030193019
 1  2.66508581268127 -1.79031086698670 -1.42713667866787
 1  2.44412188978898 -0.15799151955195 -1.99080223242324
 1  4.27724863046305 -1.02054426962696  0.27744096009601
 1  4.05030399389939  0.78879759015902 -2.64417278697870
 1  5.19527493919392  2.18014827372737 -2.13686015421542
 1  5.95809311691169  0.95638674617462 -2.93872260326033
 1  6.83522558545855  1.43522752275228  0.02212485528553
 1  6.41829594899490 -0.02052008940894  0.86970668736874
 1  7.64277166186619 -1.32478171337134 -0.97566889048905
 1  7.78221065696570  0.19526273437344 -1.84102702630263
 1  9.17018907050705  0.84318220322032  0.12614024622462
 1  8.91378986768677 -0.86563206940694  0.84751261496150
 1  10.20431798319832 -0.19109657195720 -1.88300318981898
 1  9.39318430393039 -2.16064404090409 -1.97151307610761
 1  11.23641619731973 -2.24549133303330 -1.89883412731273
 1  10.27067995399540 -2.77295923792379 -0.31587102680268
 1  11.51623930483048  0.90234246444644  0.15890737823782
 1  11.39205225862586 -0.51289725102510  0.96740736233623
 1  12.66560987988799 -1.43012117331733 -1.01520918851885
 1  12.59022277477748  0.22387307830783 -1.59381274257426
 1  13.77597903460346  0.92975553155316  0.49040638363836
 1  13.97011976507651 -0.69556916161616  1.06874339083908
 1  15.27259054755475  0.12218170317032 -1.39184354235424
 1  15.70009745264526 -2.51767205930593  0.37172571867187
 1  14.62188523922392 -2.06478885448545 -1.14128154325433
 1  16.62405203460346 -1.88071359625963 -1.02761423092309
 1  15.99789499019902  1.19287712141214  0.98591513581358
 1  16.40642508970897 -0.37006618171817  1.33437619881988
 1  18.18519945864587 -0.60012656005601 -0.35538887928793
 1  17.66218328282828  1.08417573647365 -1.08544212001200
 1  18.33116390899090  2.42787694539454  1.09974798009801
 1  18.72904006430643  0.89462364336434  1.57258725902590
 1  20.63382829552955  0.68252440064006  0.08043510751075
 1  19.65863997059706  3.33022658455846 -1.05390898429843
 1  21.12387663976398  2.52515916871687 -1.70355171847185
 1  19.61308521292129  1.68093990479048 -1.98620558955896
 1  21.34059003420342  1.77229533863386  2.00670028722872
 1  22.22740444674467  2.05900713041304  0.74322928922892
 1  20.43716344624463  3.12832291559156  1.15876631713171
=======
12 -7.08723929692969  0.54586333443344  0.12147983538354
 6 -4.93612823082308 -1.95399657805781  0.51577811051105
 6 -4.74915484438444  2.84058250555055  1.16671303620362
 6 -9.34942967846785  3.15604109960996 -0.34728758845885
 6 -9.51254156785679 -1.66914242524252 -0.92647907700770
 7 -5.04692811741174  0.48835865396540  0.70155057335734
 6 -4.36162586868687 -0.73291311331133  0.85169319251925
 6 -3.04386339173917 -0.48679810551055  1.34329468366837
 6 -3.03892733113311  1.01863453175318  1.82021275197520
 6 -4.36901389628963  1.47442819161916  1.20043707360736
 6 -3.00184526662666  1.19086137423742  3.36286769566957
 6 -1.91672513351335 -0.64065932733273  0.27014097239724
 6 -0.46767419001900 -0.38608295549555  0.65655978527853
 6  0.42048318551855 -0.67405091799180 -0.53451883238324
 8  0.19544078417842 -1.08772418001800 -1.62283861556156
 8  1.78717052755276 -0.47013440984098 -0.14678146704670
 7 -7.06461690959096  2.53451904170417  0.34209290479048
 6 -5.96352563156316  3.32799377517752  0.74462799639964
 6 -6.23820107320732  4.72082637203720  0.75083577077708
 6 -7.57252995999600  4.85156578807881  0.37258564986499
 6 -8.07633190479048  3.47335653095310  0.03347589388939
 6 -5.36238419511951  6.00449291519152  1.02546730723072
 6 -8.45959375697570  6.04475550925093  0.24231121652165
 6 -8.41894578587859  7.21871799039904  0.76723297309731
 7 -9.13955622822282  0.72275513661366 -0.43309734343434
 6 -9.78976523622362  1.76425637873787 -0.61742806690669
 6 -11.14668376497650  1.46789512861286 -1.13227494699470
 6 -11.13824622852285  0.09120448454846 -1.32897161116112
 6 -9.84528020872087 -0.30704267856786 -0.93704872097210
 6 -12.16799562326233  2.46629720072007 -1.63707048184818
 6 -12.24271881818182 -0.74110152025203 -2.01129193769377
 6 -12.23936142454246 -1.08130054125413 -3.45469058765877
 7 -7.30785025332533 -1.45867548114811 -0.24748942594259
 6 -8.27157739753975 -2.29623479557956 -0.55489044424442
 6 -7.80412655825583 -3.72447071457146 -0.47279455675568
 6 -6.53660754485449 -3.58724306130613 -0.06707843974397
 6 -6.22740533693369 -2.16790507180718  0.07944074827483
 6 -8.81293876127613 -4.89906274867487 -0.74313279167917
 6 -5.27398186848685 -4.35183906740674  0.21769464206421
 8 -5.27125596349635 -5.55964044744474  0.26286331703170
 6 -4.15064864426443 -3.29803559335934  0.55283514881488
 6 -3.56910754165417 -3.65583080438044  1.90730110301030
 8 -3.82754435503550 -3.24762149834983  2.95086776787679
 8 -2.61513270697070 -4.70421514391439  1.72201078197820
 6 -2.08748933683368 -5.12617684678468  3.06084101960196
 6  2.66746925862586 -0.76924471907191 -1.14813601400140
 6  4.08564065306531 -0.47218539483948 -0.54899504850485
 6  5.03257674207421  0.34564082948295 -1.00126989968997
 6  4.86861528452845  1.08236088538854 -2.24803896919692
 6  6.37211154395440  0.42798464866487 -0.19349583478348
 6  7.64500203810381 -0.05055540244024 -0.94062101260126
 6  8.94063593619362  0.00624549414942 -0.15621743454345
 6  10.13894451895190 -0.41416848854885 -0.96421739223922
 6  10.01793849404940 -1.93910484658466 -1.32950641564156
 6  11.47120999789979 -0.19060284108411 -0.12935206660666
 6  12.78906381408141 -0.40491454255426 -0.72920294319432
 6  14.00566003440344 -0.05938714151415  0.27600466796680
 6  15.33919004390439 -0.23802753185319 -0.50885912571257
 6  15.60196186508651 -1.63216084988499 -0.98377799549955
 6  16.44924903080308  0.28072243224322  0.40941544874487
 6  17.78718330773077  0.43636503490349 -0.17423323792379
 6  18.77224759425943  1.30735895289529  0.72188262126213
 6  20.24914358355835  1.30662099559956  0.15869063226323
 6  20.32664401820182  2.26232452965297 -1.13665465816582
 6  21.05241617241724  1.95198813511351  1.30369573297330
 1 -4.10024150865087  3.60784630603060  1.64551913881388
 1 -10.10296068876888  3.87943877887789 -0.53824921642164
 1 -10.33496678607861 -2.37325666646665 -1.12562921512151
 1 -2.84391084798480 -1.24127244114411  2.09557024822482
 1 -2.27892149734974  1.49384296689669  1.52465311571157
 1 -1.99288374587459  0.74959541244124  3.85113882738274
 1 -3.39964502450245  2.24435849334934  3.38549071447145
 1 -3.93980742344234  0.66845152915292  3.89208162096210
 1 -1.97310979587959 -1.58814877527753 -0.26360026922692
 1 -2.08546021852185 -0.11059380898090 -0.54369440904090
 1 -0.24222774017402  0.46326093999400  0.98220861996200
 1 -0.25015281728173 -1.01599611481148  1.60145410061006
 1 -5.52269104450445  6.92616126022602  0.20914662386239
 1 -5.69800679007901  6.14154751785178  1.95985228232823
 1 -4.36020997699770  5.63077424382438  0.99456263186319
 1 -9.44046609910991  5.99135528362836 -0.47113734193419
 1 -9.27766898279828  8.00173091199120  0.36383600540054
 1 -7.70037950375037  7.50890729022902  1.43453183868387
 1 -11.69482358745875  3.03968429442944 -2.48297130183018
 1 -13.39780945014501  2.13483737493749 -1.89226041754175
 1 -12.23361509260926  3.22111076577658 -0.73973521752175
 1 -12.42538731713171 -1.62866231133113 -1.21009596449645
 1 -13.18762748164816 -0.19922665946595 -1.98867439493949
 1 -12.96718307090709 -1.55943062926293 -4.04707459195920
 1 -11.86040960516052 -0.12700723832383 -4.03728722442244
 1 -11.42041832113211 -1.74785965306531 -3.80812943294329
 1 -9.01978158115812 -4.82353309620962 -1.86460972507251
 1 -8.36925629042904 -5.74860486468647 -0.62016162916292
 1 -9.81572145704570 -4.83927894919492 -0.36780860346035
 1 -3.48542923882388 -3.42325557625763 -0.40994626612661
 1 -1.73983214971497 -4.27478391809181  3.37300021532153
 1 -3.12779238783878 -5.17888950655066  3.61782462136214
 1 -1.48142625412541 -5.95122439563956  2.93185713861386
 1  2.44261356545655 -1.76517835373537 -1.55731969696970
 1  2.46376385398540  0.04427870747075 -1.93042619481948
 1  4.39758066366637 -1.13506572177218  0.37685090109011
 1  4.01678064156416  1.17153586398640 -2.72356072577258
 1  5.43211862356236  2.00458071697170 -2.09190565876588
 1  5.54644195179518  0.50584169166917 -2.82734146514651
 1  6.52399446234623  1.37086108610861  0.16069871267127
 1  6.11826594599460 -0.14227226462646  0.79064878157816
 1  7.39864724942494 -0.91782101730173 -1.27211853545355
 1  7.79494193009301  0.55198840694069 -1.88933185678568
 1  9.04596664826482  1.03730161516152  0.14981261346135
 1  8.90618910761076 -0.59896540274027  0.87727559125913
 1  10.37775532693269  0.23981651935194 -1.84822971247125
 1  9.20433541904190 -2.34000197669767 -2.06710263506351
 1  10.88026058175818 -2.23333011691169 -1.83564780868087
 1  9.93428631463146 -2.59929187118712 -0.45931537123712
 1  11.28775645654565  0.81364359455946  0.30850233773377
 1  11.34273732713272 -0.76559252055206  0.84747536913691
 1  12.87503082198220 -1.43143130433043 -1.11852952055206
 1  12.64038779127913  0.41762245324532 -1.72370573187319
 1  14.05350678737874  0.91729428542854  0.62104944794479
 1  13.79252200530053 -0.77350695539554  1.09670618711871
 1  15.22699598809881  0.61716120112011 -1.39545390339034
 1  15.51682912581258 -2.38006829892989 -0.19027048094809
 1  14.81544459515952 -1.94953732933293 -1.82227964306431
 1  16.69127875727573 -1.80342586748675 -1.49334080358036
 1  16.19563476417642  1.29448728242824  0.60122666696670
 1  16.27997244444444 -0.05131430653065  1.50787354855486
 1  18.24689562826283 -0.69381592899290 -0.39283262366237
 1  17.58966603110311  0.90414773367337 -1.15658923472347
 1  18.37358815141514  2.38987314501450  0.68361636693669
 1  18.72078923922393  0.82715689668967  1.80173017331733
 1  20.35393030573058  0.18357450565057  0.05747281128113
 1  20.20833494009401  3.46715027692769 -0.74138773217322
 1  21.18252250435044  2.19089574237424 -1.65052641594159
 1  19.51706561096110  1.93661547234723 -2.05844281328133
 1  21.35055103030303  1.00965907500750  2.21756137333733
 1  22.12073377967797  2.48488971867187  0.90676564286429
 1  20.51766149604961  2.74573465676568  1.51287172767277
>>>>>>> 8e03b5b5abfc0030b3aa597dc0de36371bfbd096

