%nproc=4
%Mem=2GB
# td=(NStates=1) CAM-B3LYP/6-31G(d,p) 

TD

0 1
12 -7.10227080008001  0.63487223532353  0.14333202060206
 6 -4.85795041304130 -1.86124730313031  0.50850738343834
 6 -4.85905583448345  2.77302574987499  1.27105347024702
 6 -9.44015875137514  3.11013650915091 -0.43942680238024
 6 -9.51519183288329 -1.79423493449345 -0.82171860096010
 7 -5.22925635023502  0.41122094019402  0.80588100640064
 6 -4.46367607370737 -0.64563438543854  0.87005502870287
 6 -2.90571957735774 -0.47079650535054  1.14775512971297
 6 -2.95406884528453  1.02568523682368  1.78456918761876
 6 -4.44791178607861  1.49364011281128  1.19732676257626
 6 -2.98306338843884  1.19224151225123  3.32009341824182
 6 -1.94603806480648 -0.56640190159016 -0.00147618931893
 6 -0.52785020762076 -0.50065441264126  0.50397452675268
 6  0.52666380358036 -0.64802831573157 -0.64069945044504
 8  0.25316655675568 -1.09880528812881 -1.75608193989399
 8  1.72881469196920 -0.25156255265527 -0.27424421332133
 7 -7.11399184708471  2.62446803660366  0.32058075357536
 6 -6.03872315131513  3.32905388118812  0.68964249784978
 6 -6.44539179227923  4.74291858125813  0.77838852605261
 6 -7.70020272727273  4.83603423492349  0.29406779807981
 6 -8.17285155675568  3.42965216051605  0.04299684598460
 6 -5.56615457215722  5.85025749164916  1.27549230973097
 6 -8.50207800540054  5.98693972767277  0.13518050345035
 6 -8.46360025132513  7.17945406400640  0.72839908970897
 7 -9.07564983758376  0.67142000310031 -0.61692572627263
 6 -9.90475673537354  1.74707466056606 -0.72093841794179
 6 -11.24539363596360  1.47242558165817 -1.19200091959196
 6 -11.15045744964496  0.09363472757276 -1.30946966096610
 6 -9.92320800150015 -0.38437041134113 -0.97319233533353
 6 -12.40390921462146  2.48785935693569 -1.54988176297630
 6 -12.39384393069307 -0.85002241234123 -1.62022283078308
 6 -12.27508499689969 -1.40544295549555 -3.15637075567557
 7 -7.25006447474748 -1.40697031063106 -0.18394307130713
 6 -8.23143338313831 -2.24877004910491 -0.43786874207421
 6 -7.83473961956196 -3.68455672317232 -0.39882716001600
 6 -6.50146403050305 -3.55179951695170 -0.04467619951995
 6 -6.20579317571757 -2.15523380468047  0.11814461866187
 6 -8.70326779417942 -4.78134097649765 -0.80082856125613
 6 -5.41889635993599 -4.34568845234523  0.28716158875888
 8 -5.18461729962996 -5.51430591399140  0.20577760846085
 6 -4.10562414181418 -3.17421321112111  0.60198006330633
 6 -3.50655128602860 -3.66413163446345  1.90705107800780
 8 -3.64092569316932 -3.12831956815682  2.92859554065407
 8 -2.58587978167817 -4.60443516591659  1.61902048294829
 6 -2.00679126702670 -5.16360058915892  2.81350628612861
 6  2.86992950465046 -0.41010880548055 -1.21359255965597
 6  4.09637172617262 -0.28162633893389 -0.47221737073707
 6  5.14493797819782  0.41353761916192 -0.95427520022002
 6  5.12735115811581  1.14096674597460 -2.34142830813081
 6  6.41607594039404  0.56249810001000 -0.24134061926193
 6  7.68731626952695 -0.03382372927293 -0.93883083358336
 6  8.84282615521552  0.04928979857986 -0.14216602940294
 6  10.17361798629863 -0.55174224592459 -0.79599056955696
 6  9.95902260246025 -1.94502543864386 -1.18248171317132
 6  11.42738561546155 -0.31672545334533  0.07880874947495
 6  12.77550245794579 -0.59133318441844 -0.63298332123212
 6  13.95856532493249 -0.16995819861986  0.21626869436944
 6  15.39511563646365 -0.27285101420142 -0.55198343814381
 6  15.70432210111011 -1.67772540634063 -0.96628624632463
 6  16.47204131003100  0.40809516951695  0.39904441164116
 6  17.80575516491649  0.55066646504650 -0.25510132473247
 6  18.85826619611961  1.18373659065907  0.73734416741674
 6  20.24758342754275  1.23978431193119  0.25806056925693
 6  20.35901725552555  2.10656895409541 -1.07482847554755
 6  21.15386631743175  1.78226116241624  1.34275963936394
 1 -4.14223570807081  3.41945746714672  1.58522310921092
 1 -10.14367476017602  3.90163099809981 -0.47576296779678
 1 -10.35529881928193 -2.54396373717372 -0.85924257645765
 1 -2.98922537943794 -1.12381069496950  2.07651834303430
 1 -2.16796040124012  1.69100268286829  1.41924257465747
 1 -1.84147860536054  1.17763821672167  3.46657037053705
 1 -3.12647770777078  2.39069312681268  3.21310347574757
 1 -3.51403484618462  0.44797948194819  3.81399381218122
 1 -2.07910039493949 -1.54217417781778 -0.35124903410341
 1 -2.12344401690169  0.09914716511651 -0.73290332993299
 1 -0.14391790919092  0.53383799769977  0.82088248734873
 1 -0.13055085708571 -1.31896641184118  1.17697165236524
 1 -5.57152592799280  6.75150379447945  0.61391710091009
 1 -5.64021101050105  6.25440880398040  2.36218251535154
 1 -4.50652460846085  5.63439460586059  1.40006318191819
 1 -9.33297535003500  5.72315846394639 -0.74515474367437
 1 -9.28319953585359  7.85476621552155  0.49921954375438
 1 -7.80760022582258  7.57822422192219  1.37939632513251
 1 -11.76832093719372  3.09959028502850 -2.24375738043804
 1 -13.36398606780678  2.01764565576558 -2.06195738723872
 1 -12.81104283538354  3.32730138483848 -0.78959020302030
 1 -12.39171394979498 -1.60275972107211 -0.86609156405641
 1 -13.22137085598560 -0.21712844964496 -1.69857538503850
 1 -13.06253260586059 -2.19257394359436 -3.37522740724072
 1 -12.50685424962496 -0.56426096369637 -3.84084758045805
 1 -11.27648392769277 -1.93059792689269 -3.52368098809881
 1 -8.94521412441244 -4.71285202810281 -1.95826909100910
 1 -8.10717008180818 -5.78945895009501 -0.63840345334533
 1 -9.86112599749975 -5.01342636393639 -0.32768459105911
 1 -3.28177887378738 -3.63237648834883 -0.21692696419642
 1 -1.54763292979298 -4.44766120582058  3.33084599989999
 1 -2.78297790639064 -5.49776139373937  3.54375721462146
 1 -1.28985709720972 -6.02470174337434  2.58853280618062
 1  2.56630593469347 -1.41621345724572 -1.90154411941194
 1  2.60195767336734  0.19779405900590 -2.08804195639564
 1  4.36231713731373 -0.68116033123312  0.43130634663466
 1  4.13978294179418  1.26469517991799 -2.76858522822282
 1  5.67308271997200  2.03700395929593 -2.36409287748775
 1  5.77698500610061  0.54489559705971 -3.01899063006301
 1  6.59630169306931  1.70460446044604 -0.09082643984398
 1  6.35684980438044  0.25115707830783  0.76264598129813
 1  7.38674605930593 -1.06130536573657 -1.22592391599160
 1  7.83250568646865  0.60826403450345 -1.83179610321032
 1  9.18649070067007  0.93382126712671  0.45509314151415
 1  8.90444893359336 -0.58948445464546  0.68276614031403
 1  10.39187673907391  0.08060059775978 -1.72552744224422
 1  9.03566855235523 -1.97404538103810 -1.70502642744274
 1  10.68543109880988 -2.38967575147515 -1.74657890179018
 1  9.66093897989799 -2.61937387938794 -0.21944138383838
 1  11.41917959885989  0.63407563776378  0.26527801530153
 1  11.23316637003700 -0.93249921122112  1.06448707030703
 1  12.92367568646865 -1.74715287648765 -0.93107077467747
 1  12.76384013651365 -0.02784209320932 -1.50054341564156
 1  13.55350678737874  0.73378593459346  0.79988733173317
 1  14.34564731783178 -1.02268187288729  1.13370988748875
 1  15.33210649914991  0.49190867586759 -1.43015737373737
 1  15.90217766066607 -2.36096638873887 -0.17545899979998
 1  14.93977702840284 -2.07128950455046 -1.48963637873787
 1  16.73356298569857 -1.62977850275027 -1.52319378887889
 1  16.09741494219422  1.40482831653165  0.74184072837284
 1  16.40085453265326 -0.31444061916192  1.27608036923692
 1  18.14387532623262 -0.34051059845985 -0.70834417481748
 1  17.78790585508551  1.12084940384038 -1.14148772457246
 1  18.52407319991999  2.33363752145214  0.70172817811781
 1  18.84053121342134  0.77003118411841  1.66623662396240
 1  20.46574148684869  0.16400254845485 -0.02881581758176
 1  20.06888099469947  3.14080764266427 -0.90449404280428
 1  21.38339259135914  2.03336998979898 -1.60049141244124
 1  19.65216912131213  1.53061487228723 -1.85250221922192
 1  21.03713968916892  1.31980008910891  2.35084470167017
 1  22.10938264456446  1.76556778647865  1.01945691199120
 1  21.03823355325533  2.95041512481248  1.60140058055806

