%nproc=4
%Mem=3GB
# td=(NStates=1) iop(3/107=0140000000,3/108=0140000000) CAM-B3LYP/6-31G(d,p) 

TD

0 1
12 -7.12892758445845  0.57607599109911  0.17566393639364
 6 -4.93229204570457 -1.89789702030203  0.55185058745875
 6 -4.66503253385339  2.77842656055606  1.05684578977898
 6 -9.33267003150315  3.04316186918692 -0.31171364666467
 6 -9.58584468246825 -1.69128089378938 -0.87336414131413
 7 -5.05778280948095  0.40282637323732  0.76992481648165
 6 -4.33703595089509 -0.73313445664566  0.81418931363136
 6 -2.88310453105311 -0.53009140714071  1.14784045314531
 6 -2.90219344624462  0.98000670227023  1.59846612591259
 6 -4.26362659735974  1.42041669276928  1.18399279317932
 6 -2.90768694949495  1.13133595289529  3.19958527312731
 6 -2.02711844154415 -0.58420440964096  0.03457726802680
 6 -0.49784549374937 -0.58938218621862  0.32459584188419
 6  0.46255817901790 -0.84690131203120 -0.88241803190319
 8  0.12674289108911 -1.20843462116212 -1.97154454755476
 8  1.80438903730373 -0.38069800820082 -0.44393978157816
 7 -7.01272891629163  2.64647785768577  0.36030695479548
 6 -5.88835897969797  3.43212698009801  0.68555443154315
 6 -6.26244115251525  4.79353621722172  0.77471573027303
 6 -7.65287007230723  4.90795260046005  0.36889301570157
 6 -8.10556008350835  3.44243118191819  0.15507350595060
 6 -5.32957499139914  5.95080455415542  1.21882203740374
 6 -8.45207521552155  6.03154342394239  0.26427704020402
 6 -8.26797520752075  7.23524267396740  0.79289334863486
 7 -9.02882192329233  0.68176517091709 -0.48704527842784
 6 -9.76331381768177  1.73508683298330 -0.65825863936394
 6 -11.18201215391539  1.49793923842384 -0.98780364006401
 6 -11.28772826002600  0.20234778057806 -1.13966399469947
 6 -9.86928453205321 -0.33383357675768 -0.77867006830683
 6 -12.19581051875188  2.58114335573557 -1.33048250095010
 6 -12.34275806870687 -0.64103022682268 -1.75013434403440
 6 -12.10882279117912 -1.08560875317532 -3.18513916511651
 7 -7.27852081448145 -1.43619845554555 -0.07000967606761
 6 -8.35806013231323 -2.18291683718372 -0.58812039193919
 6 -7.88472051185119 -3.59447999939994 -0.50229052885289
 6 -6.51463925442544 -3.54780776287629 -0.05885796749675
 6 -6.16304003570357 -2.24417237303730  0.12034386978698
 6 -8.67986032553255 -4.89291538993899 -0.87243062616262
 6 -5.31272673557356 -4.46980054345435  0.28545351945195
 8 -5.27409840214021 -5.63894075107511  0.37765371397140
 6 -4.13976847944794 -3.29924737213721  0.58682700430043
 6 -3.57118129492949 -3.66460440314031  1.95323129162916
 8 -3.76472925632563 -3.05532289018902  2.95122848104810
 8 -2.85419077187719 -4.86959557805781  1.78499753725373
 6 -2.42683164016402 -5.32729793569357  3.10022742314231
 6  2.79646596699670 -0.66879516841684 -1.42061557875788
 6  4.07792867806781 -0.40369563746375 -0.73953651645164
 6  5.05262075337534  0.37651417941794 -1.28406128312831
 6  5.02198592419242  1.15430310561056 -2.63257739273927
 6  6.35693197189719  0.49769038503850 -0.48893941834183
 6  7.62937439003900  0.11497294929493 -1.24418474717472
 6  8.76327403900390 -0.02213402950295 -0.32744884728473
 6  10.18510397099710 -0.50860252345235 -0.88636435643564
 6  10.14620789738974 -1.93902178207821 -1.27963492949295
 6  11.29269393319332 -0.24397928902890  0.18526056355636
 6  12.69703743924392 -0.53433346684668 -0.51656916201620
 6  13.93539481128113 -0.11634734903490  0.32517892949295
 6  15.30660665166517 -0.19104818841884 -0.29943559605961
 6  15.68867513851385 -1.65156354465447 -0.77019884618462
 6  16.36888388108811  0.41312783008301  0.46848158285829
 6  17.73829141684168  0.67199092869287 -0.04694122112211
 6  18.70036045464546  1.31109918841884  0.87282053875388
 6  20.21434423882388  1.31958139063906  0.30123682968297
 6  20.35156800260026  2.21902920802080 -0.91000569646965
 6  21.15780084708471  1.77243894379438  1.40657459745975
 1 -3.90507087058706  3.57306055745575  1.20938703450345
 1 -9.93194531783178  3.87444971947195 -0.66154068026803
 1 -10.32811723582358 -2.41723725882588 -1.57184500390039
 1 -2.64116140334033 -1.24589479217922  1.94645113581358
 1 -1.99381284758476  1.56430849194919  1.33570721972197
 1 -1.90909399579958  0.85399450585059  3.64534487188719
 1 -3.04914202330233  2.26033525632563  3.31583960616062
 1 -3.49424222472247  0.62667782208221  3.68169985518552
 1 -2.19197431643164 -1.55252592339234 -0.29094710181018
 1 -2.37106347534753  0.14768238803880 -0.79292602720272
 1 -0.15743117181718  0.25757534483448  0.81883574657466
 1 -0.21664008430843 -1.55424619121912  0.87433089138914
 1 -5.63086726442644  6.89781729372937  0.59360919221922
 1 -5.39786125742574  5.99896277767777  2.31918393089309
 1 -4.16178102270227  5.74053832183218  0.97431816441644
 1 -9.41291155095510  6.08404178617862 -0.42389374207421
 1 -8.89276834053405  8.12334205520552  0.36282605830583
 1 -7.47159509160916  7.46091292769277  1.64744370467047
 1 -11.76777725072507  3.17168631573157 -2.20306613811381
 1 -13.17019431713171  2.07215595799580 -1.30560628882888
 1 -12.46875790849085  3.12497983208321 -0.50583102260226
 1 -12.48874083898390 -1.43388431123112 -0.96247974887489
 1 -13.08463076217622  0.04952224172417 -1.61599735413541
 1 -12.98085328452845 -1.62125578767877 -3.39165012311231
 1 -12.18518892459246 -0.21913038433843 -3.73901287968797
 1 -11.30071491089109 -1.76229725692569 -3.46396467466747
 1 -8.80454507310731 -4.59750625142514 -1.82930899389939
 1 -8.04682906810681 -5.68009396269627 -0.50430038513851
 1 -9.58840301930193 -4.81769021742174 -0.16409867856786
 1 -3.28720623912391 -3.29773637923792 -0.13326106420642
 1 -1.94696808440844 -4.50547276067607  3.54381609920992
 1 -3.29165560286029 -5.59985951085109  3.76147718541854
 1 -1.89358987948795 -6.01147193199320  2.73209657075708
 1  2.70725878067807 -1.72871949474947 -1.79062051075108
 1  2.55900234153415 -0.19982189738974 -2.28280933843384
 1  4.15420590729073 -0.81821023482348  0.30543194339434
 1  4.09914522602260  1.07922346504650 -2.92891337703770
 1  5.59245617781778  2.23941436533653 -2.62508994739474
 1  5.53949351785179  0.50947213811381 -3.30237649454946
 1  6.59461764566457  1.57071705230523 -0.09163955005500
 1  6.33482135423542  0.09221188448845  0.32180837633763
 1  7.33446556935694 -0.85750642364236 -1.64848960616062
 1  7.94056661516152  0.76700580358036 -2.06390721362136
 1  9.14219026332633  1.01543104060406  0.00993342144214
 1  8.46201932273227 -0.51258961166117  0.47693381678168
 1  10.27864249604961 -0.00794464666467 -1.85452061006101
 1  9.24740434953495 -2.36234451795179 -1.99943832573257
 1  11.18877801840184 -2.06529992929293 -1.89696505460546
 1  10.21724392149215 -2.58726284098410 -0.56534392809281
 1  11.21606324792479  0.94666109950995  0.17338510931093
 1  11.09244684018402 -0.84657595519552  1.00672699279928
 1  12.72477042954296 -1.62585000430043 -0.81835410691069
 1  12.97285311521152  0.18930386638664 -1.41696603030303
 1  13.63248466876688  1.06472183548355  0.41448627732773
 1  13.90514882548255 -0.58743512241224  1.31576395039504
 1  15.24844524592459  0.58941233823382 -1.26615788458846
 1  15.61794559135914 -2.18155749694970  0.20718258275828
 1  14.97970961536154 -2.07664218421842 -1.46638801230123
 1  16.69018729832983 -1.59585048204820 -0.95982249554956
 1  15.94069734323432  1.41317965166517  0.58877479377938
 1  16.48761283908391 -0.05864214901490  1.50595909060906
 1  18.05404214191419 -0.30780729472947 -0.49604980058006
 1  17.55577288688869  1.08826772087209 -1.03510925452545
 1  18.51793084998500  2.34799606760676  1.03626557335734
 1  18.71655761826183  0.77271211071107  1.85460870637064
 1  20.32322215451545  0.13696469406941  0.21856774897490
 1  20.11872869136914  3.21352212871287 -0.87320950565056
 1  21.37907170797080  2.41973311541154 -1.13543152435244
 1  19.87993639123912  1.65709599979998 -1.72593097749775
 1  20.99934378787879  1.10870651155116  2.23068673747375
 1  22.23089098189819  1.87319779047905  1.08748540214021
 1  20.80734081258126  3.02836895409541  1.52108924562456

