%nproc=4
%Mem=2GB
# td=(NStates=1) CAM-B3LYP/6-31G(d,p) 

TD

0 1
12 -7.19883045604560  0.62680142824282  0.01319900730073
 6 -4.84133875187519 -1.94776595499550  0.47819435213521
 6 -4.90992092099210  2.80356880418042  1.16886325122512
 6 -9.46456119161916  3.16394188968897 -0.40411327102710
 6 -9.53185349904991 -1.61547705870587 -0.86412284138414
 7 -5.11166459105911  0.34662448054805  0.90892131043104
 6 -4.32395210131013 -0.70984080608061  0.77953597679768
 6 -2.89653865926593 -0.37677710341034  1.19297965216522
 6 -2.98713215161516  1.08768143644364  1.71451218191819
 6 -4.40418741364136  1.45493624242424  1.25313234313431
 6 -3.07299238133813  1.29478176627663  3.30468187708771
 6 -1.97004046504650 -0.60206546794679  0.11668562686269
 6 -0.44555197779778 -0.43368771597160  0.62365649494950
 6  0.58098923612361 -0.75587910081008 -0.51059644014401
 8  0.29966120622062 -1.17730313791379 -1.59844617631763
 8  1.86175798629863 -0.50520791719172 -0.09714650355036
 7 -7.17380782868287  2.57172276207621  0.28249694519452
 6 -6.08938821782178  3.27312828862886  0.76312984658466
 6 -6.46163341644164  4.74978926832683  0.77413810101010
 6 -7.74297700470047  4.75876650815081  0.34873326462646
 6 -8.12670694229423  3.49818901420142  0.07021956825683
 6 -5.52027998469847  5.82378484438444  1.25317007750775
 6 -8.50398819641964  6.04989602330233  0.11248823422342
 6 -8.34665855715572  7.22150826942694  0.74359060886089
 7 -9.08254052665266  0.75895875697570 -0.60442447614761
 6 -9.95324158385839  1.79824977807781 -0.76242256635664
 6 -11.27764686128613  1.42765110421042 -1.06433815331533
 6 -11.27047945184518  0.08423378747875 -1.29030774477448
 6 -9.94240992169217 -0.36595857015702 -0.96172118821882
 6 -12.35950477417742  2.41333190419042 -1.37865464026403
 6 -12.45689023532353 -0.75535294539454 -1.69628043654365
 6 -12.55288277667767 -1.12546495769577 -3.17710282888289
 7 -7.26892636093609 -1.36110572417242 -0.26659133613361
 6 -8.31713195299530 -2.16437160926093 -0.59638459365937
 6 -7.91788793439344 -3.59476774427443 -0.53008028532853
 6 -6.57043092719272 -3.53051738873887 -0.16287801970197
 6 -6.21920451685169 -2.17557583888389  0.08239104330433
 6 -8.70021748914891 -4.81447428982898 -0.81478995739574
 6 -5.44067853815382 -4.33362724622462  0.13420629322932
 8 -5.36224506240624 -5.53099758315831  0.19438646934693
 6 -4.24389796919692 -3.28819460926093  0.44859472477248
 6 -3.60501113201320 -3.59549477077708  1.78792916581658
 8 -3.78109971057106 -2.89320605680568  2.78866154725473
 8 -2.85032622632263 -4.77651237363736  1.74586316721672
 6 -2.09002959085909 -5.05651988108811  2.93694863036304
 6  2.86420893259326 -0.89794758935894 -1.13243444384438
 6  4.19628171717172 -0.57775595189519 -0.51153130213021
 6  5.13275676007601  0.20627689308931 -0.88524829752975
 6  5.11675009800980  0.94206685598560 -2.19010317561756
 6  6.53064739753975  0.33598544874487 -0.23457994319432
 6  7.72285982388239 -0.24773512041204 -1.02382933343334
 6  8.95530740334033 -0.13503863426343 -0.22410422322232
 6  10.25939656415641 -0.63870094179418 -0.81184215471547
 6  10.19169586978698 -2.05680661676168 -1.24228769376938
 6  11.57599047594760 -0.37129090989099  0.13964483308331
 6  12.90499540724072 -0.47378142924292 -0.69923994689469
 6  14.10553002140214 -0.11052225502550  0.16414348184818
 6  15.43173929882988 -0.10617434653465 -0.47701594139414
 6  15.78857052595260 -1.54414204800480 -0.90619023672367
 6  16.52250635653565  0.42264662466247  0.47170167736774
 6  17.93253784318432  0.68558995739574 -0.18720453505351
 6  18.88688905840584  1.39546776377638  0.64895532853285
 6  20.29870854005400  1.45774610811081  0.16434119731973
 6  20.38084943874388  2.22994129132913 -1.19822081478148
 6  21.14546547734773  2.04517745404540  1.27048241164116
 1 -4.22897438193819  3.62494801620162  1.29164375127513
 1 -10.10098049074908  3.94826566156616 -0.53449884138414
 1 -10.36438972837284 -2.29551889268927 -1.07674432663266
 1 -2.50803726062606 -0.97550586448645  1.99133982518252
 1 -2.11981558675868  1.65559914251425  1.39161981238124
 1 -1.95619007650765  1.15448590149015  3.56442015551555
 1 -3.46935199519952  2.25250930843084  3.56623878927893
 1 -3.80267371007101  0.59603428742874  3.78409082188219
 1 -2.08691117601760 -1.37820778117812 -0.61584549374938
 1 -2.22933460596060  0.16215346574657 -0.64547458705871
 1 -0.27501101850185  0.52811742564256  0.98521892099210
 1 -0.10624842684268 -1.00994550975098  1.35994995019502
 1 -5.80686946234623  6.63463210731073  0.71708741794179
 1 -5.57275426482648  6.11436479957996  2.33293959105911
 1 -4.48548250425042  5.71949311571157  1.12839601520152
 1 -9.35598765126513  5.80713686178618 -0.61525175337534
 1 -9.18179939583958  8.12711345024502  0.38335795759576
 1 -7.68089755555556  7.32774917441744  1.56214459996000
 1 -12.30930503560356  3.11240156615662 -2.14377738243824
 1 -13.28163783298330  1.88838272947295 -1.65137632913291
 1 -12.59888161926193  3.17314596929693 -0.51325256925693
 1 -12.33611839023902 -1.62927237233723 -1.17578253315331
 1 -13.26677539643964 -0.25334207100710 -1.31344687218722
 1 -13.33741009360936 -1.93682836903690 -3.25691557605761
 1 -12.63898746294630 -0.28121265886589 -3.94135763146315
 1 -11.57658393769377 -1.67747261436144 -3.30623924392439
 1 -9.41154075707571 -4.57694843774378 -1.92636590069007
 1 -8.12315167996800 -5.81947195139514 -0.78872848584858
 1 -9.48363824872487 -4.90504552585259  0.02086026342634
 1 -3.51726242214221 -3.59081233193319 -0.35691096259626
 1 -1.69778794529453 -4.13109954965497  3.57997091239124
 1 -2.80747035563556 -5.75181679927993  3.55794863376338
 1 -1.34712282378238 -5.75280455365537  2.55779973287329
 1  2.70335964006401 -1.95026686258626 -1.34277824282428
 1  2.66232370997100 -0.26413213361336 -2.00348350055005
 1  4.28171907750775 -1.09181139633963  0.50277349334933
 1  4.12046100960096  1.05030374077408 -2.47535590529053
 1  5.66300171187119  2.02394265316532 -2.10823729192919
 1  5.82735004260426  0.44804591209121 -2.83222195319532
 1  6.65313737663766  1.46460046004600 -0.11189854705471
 1  6.52066618601860 -0.04358239563956  0.78801851855186
 1  7.40520790549055 -1.21614084928493 -1.29948127172717
 1  7.66341877777778  0.38408161626163 -2.01968489208921
 1  9.34846689828983  0.75597348234823  0.40842847504750
 1  8.91093958265827 -0.84142964916492  0.65779364306431
 1  10.55837338873887  0.04510704840484 -1.76694158365837
 1  9.38669365486549 -2.00433841034103 -2.02589851465147
 1  10.97630018571857 -2.36439322322232 -1.83074731863186
 1  10.11858474447445 -2.83409535153515 -0.33616305600560
 1  11.36249393029303  0.59291152135214  0.74611609910991
 1  11.54787784118412 -1.16226218751875  0.86437705930593
 1  12.97048036693669 -1.57667582878288 -1.17734540214021
 1  13.03548730123012  0.16324701570157 -1.66982034333433
 1  13.77117855455546  0.81321387738774  0.61558890189019
 1  14.06300905400540 -0.92119172387239  0.83476999349935
 1  15.50659394789479  0.66024550955095 -1.44388874687469
 1  15.80599804270427 -2.16030632273227  0.03348189428943
 1  15.01907495819582 -2.24817719331933 -1.49898731383138
 1  16.80689031843184 -1.39067459235924 -1.35468693819382
 1  16.07648284898490  1.39701753545355  0.74346089038904
 1  16.76594104130413 -0.06566574167417  1.51624438563856
 1  18.39213015171517 -0.29606615401540 -0.88034137453745
 1  17.40307737223723  1.41953927282728 -1.03517709350935
 1  18.48068886148615  2.34374853255325  0.84601260656066
 1  18.78289544984499  0.85725990699070  1.71879187948795
 1  20.83196810951095  0.31168731693169  0.02513957795780
 1  19.89770387698770  3.11998556045605 -1.07337093049305
 1  21.40905515761576  2.30663731653165 -1.31477284058406
 1  19.95754965936594  1.59428123892389 -2.01888885788579
 1  21.52191816701670  1.34499260836084  2.19450906810681
 1  22.14592629892989  2.12372360206021  0.95277024332433
 1  20.78998872877288  2.99017910121012  1.78703914441444

