%nproc=4
%Mem=2GB
# td=(NStates=1) CAM-B3LYP/6-31G(d,p) 

TD

0 1
<<<<<<< HEAD
12 -7.15281585458546  0.61012976107611  0.09997768516852
 6 -4.89648426642664 -1.88438961736174  0.51781831453145
 6 -4.84209413831383  2.83890233753375  1.20835720062006
 6 -9.41416615211521  3.03352884838484 -0.39573243294329
 6 -9.56996731043104 -1.85026053705371 -0.97239366846685
 7 -5.20876430103010  0.47350716881688  0.77819823812381
 6 -4.29418912501250 -0.64210403240324  0.87582560576058
 6 -2.92055106050605 -0.26960638633863  1.20105045924592
 6 -3.11929536793679  1.16634930323032  1.76103683438344
 6 -4.40272726762676  1.54073482228223  1.22272930283028
 6 -3.12187726982698  1.09162145024502  3.35636704560456
 6 -1.94375783678368 -0.52911817321732  0.12233619191919
 6 -0.50012743534353 -0.28712305950595  0.52494662396240
 6  0.49185032223222 -0.66053956685669 -0.46754213471347
 8  0.26473771387139 -1.19127453505351 -1.55384171587159
 8  1.78202001250125 -0.30699809620962 -0.11163795269527
 7 -7.15027547544755  2.60366595639564  0.31988068356836
 6 -6.03301258025803  3.33702467826783  0.77909144274427
 6 -6.43685093819382  4.77799208860886  0.78765945314531
 6 -7.74109681668167  4.80301093259326  0.30665905720572
 6 -8.06748101970197  3.41928112341234  0.00239278557856
 6 -5.58034599129913  5.95662812871287  1.21026578707871
 6 -8.38524632223222  6.05955698939894  0.08838582398240
 6 -8.32857674897490  7.24635075367537  0.61041729152915
 7 -9.11372364496450  0.61197405850585 -0.61489552325233
 6 -9.93737999769977  1.76355630873087 -0.76211253535354
 6 -11.16926602320232  1.39412775187519 -1.25421714121412
 6 -11.18699110301030 -0.02861749764976 -1.23943265726573
 6 -9.91763744444444 -0.46552852715271 -0.96294131023102
 6 -12.36680550425042  2.41484205520552 -1.27631440624062
 6 -12.39619416571657 -0.81298870897090 -1.71849265776578
 6 -12.21808929732973 -1.12142455365537 -3.19379449804980
 7 -7.25093456175618 -1.45829544314431 -0.16979165616562
 6 -8.31132137193719 -2.22007717981798 -0.56928188338834
 6 -7.79023516911691 -3.61952021952195 -0.57678495579558
 6 -6.58864274837484 -3.59325366236624 -0.10104183608361
 6 -6.20918351475147 -2.21311959325933  0.05471827602760
 6 -8.55269273667367 -4.92100494289429 -0.83413189158916
 6 -5.23467793809381 -4.35520940444044  0.10979385198520
 8 -5.06282512041204 -5.57516199959996  0.12795982668267
 6 -4.14592817221722 -3.30316610641064  0.59956982228223
 6 -3.61011164206421 -3.66274149544954  1.96339671257126
 8 -3.84061566216622 -3.13765050125013  3.01607428852885
 8 -2.67601879557956 -4.60314503690369  1.74914349524953
 6 -2.04196478437844 -5.06917114621462  3.04467940344034
 6  2.81748426012601 -0.42748054265427 -1.11381258165817
 6  4.15823791279128 -0.31313949024902 -0.53397354635464
 6  5.17121060546055  0.38071433683368 -1.05765553825383
 6  5.14054247724772  1.17562021132113 -2.27125129042904
 6  6.42481681448145  0.47915976617662 -0.23912039723972
 6  7.61234877277728 -0.10285063196320 -1.08332528302830
 6  8.92982485508551 -0.23926905730573 -0.13595540834083
 6  10.13018364286429 -0.63767083878388 -0.93751472197220
 6  10.05565226542654 -2.09343027912791 -1.39937340234023
 6  11.44078695559556 -0.51423520432043  0.04806567516752
 6  12.83277818551855 -0.43512756385639 -0.74716473937394
 6  13.99454892329233 -0.11527273007301  0.19411647914791
 6  15.30468659355936 -0.14305803490349 -0.57734597439744
 6  15.62081375027503 -1.62141977577758 -0.95527514521452
 6  16.45051915781578  0.40511487148715  0.36720122732273
 6  17.74061865126513  0.63429482788279 -0.27820363496350
 6  18.71910227972797  1.34233245024502  0.76000643364336
 6  20.18495716491649  1.35643597709771  0.22709747294729
 6  20.47451880568057  2.11093939113911 -1.00206119881988
 6  21.24597552835284  1.72656559285929  1.35722108550855
 1 -4.09686117061706  3.60473599499950  1.63083767066707
 1 -10.02398279097910  4.01640247524752 -0.82332772427243
 1 -10.31011430083008 -2.62012135293529 -1.29133578577858
 1 -2.48273473037304 -0.88860717461746  1.90690138133813
 1 -2.39652325752575  1.96663024562456  1.49250990139014
 1 -2.19807426492649  1.20864131703170  3.83418713221322
 1 -3.56923198319832  1.88942299979998  3.60761292669267
 1 -3.70070351305131  0.39511419541954  3.67498991179118
 1 -2.09591207610761 -1.58153811421142 -0.27333124232423
 1 -2.00056172867287  0.12276952735274 -0.71517155675568
 1 -0.29086260366037  0.80367498139814  0.80467086618662
 1 -0.10367816981698 -0.80732524772477  1.33024697989799
 1 -6.05900467586759  6.81127977207721  0.86347205640564
 1 -5.41733872327233  5.95703906700670  2.31129742684268
 1 -4.46101005700570  5.50976214261426  0.88928210381038
 1 -9.24289634213421  6.04586073417342 -0.87227745594559
 1 -9.01112232813281  7.98007874677468  0.34753437523752
 1 -7.81601106690669  7.42201860136014  1.43243162866287
 1 -12.18034213931393  3.19330965696570 -2.13756676137614
 1 -13.46348601780178  1.92663655485549 -1.54682587408741
 1 -12.41738346944694  2.87276593129313 -0.23421466546655
 1 -12.64546932533253 -1.57683712881288 -0.89281423632363
 1 -13.22617133603360 -0.11868860566057 -1.48233376087609
 1 -13.13126947954795 -1.65517020322032 -3.47580746524652
 1 -12.07035059925993 -0.18588312591259 -3.74711820752075
 1 -11.44103038233824 -1.79641450855086 -3.25375399539954
 1 -9.13734333733373 -4.91357210011001 -1.89347261136114
 1 -7.89622898769877 -5.80405040924092 -0.62222183518352
 1 -9.36414629952995 -4.89638465976598  0.02797097449745
 1 -3.31628232413241 -3.41677492819282 -0.25627089858986
 1 -1.50540870737074 -4.17458389808981  3.42062497779778
 1 -2.68877848644864 -5.50469208680868  3.81314415331533
 1 -1.48970708220822 -5.86757603080308  2.60687464036404
 1  2.69522882698270 -1.51573340924092 -1.61345531053105
 1  2.70312779037904  0.33458773837384 -1.96257941014101
 1  4.35969687528753 -0.90884309950995  0.32835605160516
 1  4.19383834733473  1.14712342274227 -2.84138250795080
 1  5.27902331403140  2.30924118301830 -2.11920838903890
 1  5.89185649324932  0.99184029152915 -2.98746747774777
 1  6.58935099799980  1.49181318131813  0.05578822162216
 1  6.44504862426243 -0.18708674607461  0.76818653535354
 1  7.46424380908091 -1.11251048624863 -1.29394071767177
 1  7.92221465736574  0.49432264036404 -1.88586150975098
 1  9.14020607220722  0.69138702370237  0.46591422362236
 1  8.64670315901590 -1.02826833303330  0.64641250495049
 1  10.36672422382238 -0.10368783108311 -1.82475736523652
 1  9.27555254075408 -2.17319529602960 -2.18819474427443
 1  10.86322887858786 -2.66762354625463 -1.76875111901190
 1  9.84125701170117 -2.68339028102810 -0.56322576227623
 1  11.20657833873387  0.27294952515252  0.90366185368537
 1  11.30965401880188 -1.48335429672967  0.64336495809581
 1  12.87955127402740 -1.44040220142014 -1.18493616121612
 1  12.70942469496950  0.49306999799980 -1.51392475377538
 1  13.92877431413141  0.89423197919792  0.73892123512351
 1  14.18500125322532 -0.88732833753375  1.20132664916492
 1  15.43680696919692  0.45690517551755 -1.51572593059306
 1  15.61878932183218 -2.32252254435444 -0.36615806970697
 1  14.91206425712571 -2.03331570717072 -1.77967538263826
 1  16.61346097549755 -1.72745827072707 -1.42398386788679
 1  16.10940614131413  1.38761659535954  0.84534107840784
 1  16.72011645884588 -0.27644681978198  1.13139590079008
 1  18.14264520322032 -0.33376992439244 -0.55654899529953
 1  17.57319438393840  1.37115443434343 -1.15052862866287
 1  18.43130392299230  2.34505866356636  1.04493249854986
 1  18.74273143344335  0.53596777777778  1.54691469176918
 1  20.28908382108211  0.35285143334333 -0.14656759275928
 1  20.33245735233523  3.19709327122712 -0.68220181358136
 1  21.63889814191419  2.00321697449745 -1.19542090539054
 1  19.84289819421942  1.70514232503250 -1.88011498049805
 1  21.38635461066107  1.13761187028703  2.46455607280728
 1  22.24644635093509  1.86852808250825  0.87760272657266
 1  21.11209093899390  2.73210329362936  1.78528896939694
=======
12 -7.08761933493349  0.57915666376638  0.12865055245525
 6 -4.87941255925593 -1.93695487388739  0.57329386208621
 6 -4.77807773667367  2.84274272157216  1.25712207710771
 6 -9.32800753625362  3.06601209670967 -0.45849870957096
 6 -9.46787710141014 -1.66478198919892 -0.95630205930593
 7 -5.09764318891889  0.39072889098910  0.86009642794279
 6 -4.28125783188319 -0.76617643964396  0.86786480968097
 6 -2.89343834923492 -0.45261468716872  1.30681103530353
 6 -2.96805024342434  1.01805447374738  1.65839657035704
 6 -4.40718771367137  1.46831758055806  1.19879690959096
 6 -2.85675075717572  1.26016830493049  3.14904631353135
 6 -1.90686414741474 -0.65442070347035  0.14483844214421
 6 -0.48885630823082 -0.47846219341934  0.67176130543054
 6  0.39562069926993 -0.68367188008801 -0.46479185968597
 8  0.16644788488849 -0.93064847244724 -1.64313064476448
 8  1.72471428192819 -0.59383678007801 -0.12158894779478
 7 -7.13187363526353  2.59037462726273  0.48063675917592
 6 -6.12158143714371  3.32733370917092  0.87982151575158
 6 -6.29233648674867  4.80919520892089  0.80208089528953
 6 -7.69356206320632  4.88801943344334  0.38687707900790
 6 -8.04738901050105  3.50878007330733 -0.00422787648765
 6 -5.33446140284028  5.88196066196620  1.13141790229023
 6 -8.50897869546955  6.04173520722072  0.00839782518252
 6 -8.31317520882088  7.28804492309231  0.58466471627163
 7 -9.17181945454545  0.71833469456946 -0.49047308100810
 6 -9.86398265796580  1.75143509660966 -0.72068839293929
 6 -11.17764686128613  1.49843818291829 -1.28625034453445
 6 -11.13221562546255  0.16862222632263 -1.41969068306831
 6 -9.84383006370637 -0.36220819511951 -0.93133814991499
 6 -12.31877070077008  2.36164673567357 -1.50462723752375
 6 -12.38788333463346 -0.76057346744674 -1.89788059655966
 6 -12.45272276067607 -0.91943435463546 -3.38384350295030
 7 -7.15592506080608 -1.28751836543654 -0.24450912791279
 6 -8.20023026282628 -2.17918309040904 -0.62322727792779
 6 -7.86395254085409 -3.52440070757076 -0.54417169446945
 6 -6.55915980008001 -3.50648498549855 -0.05520725262526
 6 -6.11384398079808 -2.19473775507551  0.18045084928493
 6 -8.52589005640564 -4.87375021742174 -0.89041752015202
 6 -5.41478594889489 -4.32898678217822  0.30521339393939
 8 -5.23093193109311 -5.52494697809781  0.18749578027803
 6 -4.19791337073707 -3.32408819861986  0.58640850615062
 6 -3.48020865176518 -3.71084630593059  1.90048042094209
 8 -3.63980558115812 -3.13131986818682  2.86973965506551
 8 -2.72168336203620 -4.84549927232723  1.80379896079608
 6 -2.06037662556256 -5.35644987408741  2.98494342984298
 6  2.72482499419942 -1.00005780038004 -1.07699890029003
 6  4.07685977497750 -0.66463463976398 -0.54458460746075
 6  5.00808429282928  0.16865313071307 -0.94977475017502
 6  4.93620204320432  0.99675232453245 -2.15122928822882
 6  6.32455678847885  0.38040989118912 -0.25385187038704
 6  7.61406894479448 -0.22347269416942 -0.97817476797680
 6  8.85478735133513 -0.01570670107011 -0.23803561636164
 6  10.18038866336634 -0.44624169586959 -0.88975994649465
 6  10.11500820102010 -1.95797673377338 -1.21804526952695
 6  11.36369924682468 -0.12523630443044  0.05521639023902
 6  12.76268117581758 -0.41571562266227 -0.68793881678168
 6  13.97303677207721 -0.00502170497050  0.19247631513151
 6  15.34652077697770 -0.11768549764977 -0.51558979877988
 6  15.60251192009201 -1.49602723652365 -1.00945056275628
 6  16.41942604850485  0.48843320332033  0.46601110831083
 6  17.73298788818882  0.72379377777778 -0.21234704930493
 6  18.73819418891889  1.30878909590959  0.72938337133713
 6  20.21101977117712  1.33062339583958  0.12675743894389
 6  20.25939729352935  2.16823512071207 -1.12715370807081
 6  21.20110104090409  1.84775771207121  1.23422878627863
 1 -4.13969545404540  3.60899642104210  1.72530711761176
 1 -9.87726811951195  3.94038487348735 -0.68854424592459
 1 -10.21665495489549 -2.27921726252625 -1.18515516771677
 1 -2.86780323722372 -0.88660697459746  2.23548423962396
 1 -2.19020262546255  1.66090967356736  1.10713136353635
 1 -1.76210066756676  1.20690114301430  3.48331204470447
 1 -3.51706676667667  2.12959701720172  3.45980814621462
 1 -3.58460190289029  0.23654833883388  3.56601901470147
 1 -1.87562004690469 -1.67946790719072 -0.28197210641064
 1 -2.15640731323132  0.12674992539254 -0.71786182578258
 1 -0.57091060846085  0.83964857875788  0.79360976007601
 1 -0.24189199119912 -1.01415593079308  1.58334228942894
 1 -5.47023579897990  6.69901854595460  0.56251196039604
 1 -5.36453344274427  6.11606496959696  2.20433673077308
 1 -4.29657361336134  5.57853902030203  1.23582675827583
 1 -9.39156120862086  5.91670781888189 -0.40435066326633
 1 -8.94843605950595  8.19688042694269  0.64469409120912
 1 -7.43773323912391  7.53265966546655  1.29236762226223
 1 -12.17958206330633  2.88197852385239 -2.46523952865287
 1 -13.24924459365937  1.79848373957396 -1.55452664416442
 1 -12.35637736883688  2.97295595029503 -0.66967821182118
 1 -12.51049582798280 -1.74889433453345 -1.25723067796780
 1 -13.29690840974097 -0.31942867966797 -1.42732826032603
 1 -13.34755110771077 -1.58610329652965 -3.52793267776778
 1 -12.59110267446745  0.02342780518052 -3.99699319501950
 1 -11.54563084238424 -1.20576544364436 -3.74667328732873
 1 -9.08955855885589 -4.93349409230923 -1.82630589468947
 1 -7.85203456825682 -5.67841784598460 -0.81534114711471
 1 -9.37763764866487 -4.88100312161216 -0.23321514411441
 1 -3.46871756765677 -3.59351260196020 -0.10550582208221
 1 -1.66009417591759 -4.53855029472947  3.60445336063606
 1 -2.85630523912391 -5.78176979457946  3.72510534943494
 1 -1.46760487198720 -6.16530580378038  2.71421537443744
 1  2.67643694779478 -2.15181701760176 -1.37559152415242
 1  2.64044152175218 -0.33889961036104 -1.98891204340434
 1  4.32000290589059 -1.20290250545055  0.29251246724672
 1  3.86056502000200  0.86843555395540 -2.36780515021502
 1  5.15653106480648  2.02890314921492 -2.17128359655966
 1  5.45554286188619  0.65499660716072 -2.94604333533353
 1  6.56951901480148  1.45275927592759 -0.17071442864286
 1  6.33648776817682 -0.21865990339034  0.73853357005701
 1  7.68131551625163 -1.25944517971797 -1.25107643124312
 1  7.67536997289729  0.33768697679768 -1.90327325092509
 1  8.97630968256826  0.97375526052605 -0.07795016281628
 1  8.77603609230923 -0.39093459965997  0.87340520422042
 1  10.29660721212121  0.18126066376638 -1.73310820032003
 1  9.27366235173517 -2.09766774327433 -1.82138806360636
 1  10.80260281598160 -2.22535931983198 -1.77262150605061
 1  10.18131101710171 -2.58380032203220 -0.16621606130613
 1  11.16859454035404  0.94554678487849  0.19293078057806
 1  11.24355740914091 -0.80047600890089  0.92658327992799
 1  12.92073539243924 -1.51581974317432 -0.91322899049905
 1  12.69894364686469 -0.01948125712571 -1.71328468976898
 1  13.53324476117612  0.98412096809681  0.74030137313731
 1  14.02193494659466 -0.97433703840384  0.92536905340534
 1  15.42051534003400  0.53408289328933 -1.35286964496450
 1  15.87767521042104 -2.22021231333133 -0.15625707960796
 1  14.92970602130213 -1.80558293389339 -1.73012042714271
 1  16.40609023842384 -1.44943046794680 -1.77974944444444
 1  16.27336253695369  1.41146898059806  0.97134367866787
 1  16.63594804200420 -0.38231740684068  1.14883764496450
 1  18.30684162286229 -0.29847639503950 -0.49440278067807
 1  17.59707677217722  1.40514783368337 -1.15784936073607
 1  18.41719251185118  2.07666182388239  1.01329933523352
 1  18.67264442474248  0.55786996799680  1.76182618291829
 1  20.26478139083908  0.35495164336434 -0.07300023602360
 1  19.84187829442944  3.05047860976098 -1.03078667206721
 1  21.39709396149615  2.18772542534253 -1.25837720102010
 1  19.90705460986099  1.66730854165417 -1.99142611161116
 1  21.39577555275527  1.14796290539054  2.03166278347835
 1  22.14252595889589  1.98955018471847  0.64195916221622
 1  20.99838956885689  3.00075015831583  1.54670511101110
>>>>>>> 8e03b5b5abfc0030b3aa597dc0de36371bfbd096

