%nproc=4
%Mem=3GB
# td=(NStates=1) iop(3/107=0140000000,3/108=0140000000) CAM-B3LYP/6-31G(d,p) 

TD

0 1
12 -7.09545423712371  0.70367875137514  0.01340771077108
 6 -4.82446126262626 -1.96005323592359  0.61456685908591
 6 -4.87049307990799  2.82512123002300  1.17466757195720
 6 -9.36972373687369  3.17649520252025 -0.45022749804981
 6 -9.44582068006801 -1.65717748344834 -0.97457426232623
 7 -5.17436446764676  0.49377546814681  0.70598842284228
 6 -4.36807905520552 -0.69926106930693  0.90803869856986
 6 -2.93278949954996 -0.42885128312831  1.35313098219822
 6 -3.07314054095410  0.93994269586959  1.82725900520052
 6 -4.39761999669967  1.48182283338334  1.16776117001700
 6 -3.06177235803580  1.20738355765577  3.33870918551855
 6 -2.03677940764076 -0.56056204540454  0.05965977627763
 6 -0.54567027622762 -0.42505575357536  0.54661804410441
 6  0.48609053225323 -0.65666228812881 -0.53930372047205
 8  0.25185540234023 -0.90717449514952 -1.69784717781778
 8  1.72683128152815 -0.45089502790279 -0.17300268786879
 7 -7.10797844124412  2.59392260216022  0.35177610171017
 6 -6.04408455225523  3.38740250765077  0.76378225432543
 6 -6.39559446784678  4.75558242184218  0.80207846654665
 6 -7.61607639293929  4.92267407260726  0.35059118551855
 6 -8.08822835033503  3.52252919171917  0.07079507810781
 6 -5.40232226612661  5.83498297199720  1.10372052725273
 6 -8.49697970597060  6.12873314291429  0.12242285478548
 6 -8.36949535953595  7.27421657135713  0.69777383668367
 7 -9.13115215631563  0.68003499789979 -0.48782535643564
 6 -9.86015350165016  1.87571089538954 -0.75950876437644
 6 -11.10565451815182  1.51988143264326 -1.12558741844184
 6 -11.15363485068507  0.09478702450245 -1.28876890519052
 6 -9.83547115071507 -0.35566575997600 -0.97409961126113
 6 -12.15656659435944  2.52258750015001 -1.42500195289529
 6 -12.38311210411041 -0.61394751855186 -1.61100043064306
 6 -12.42066397529753 -1.20663085538554 -3.15182583378338
 7 -7.20417337973797 -1.36955179087909 -0.10131280638064
 6 -8.22539686598660 -2.24409295479548 -0.56664824472447
 6 -7.81411345114511 -3.57960851225123 -0.51980228002800
 6 -6.47680547104710 -3.58604158625863 -0.11783386508651
 6 -6.15987971967197 -2.21385934173417 -0.02535069966997
 6 -8.67056939643964 -4.75963206160616 -0.84362774587459
 6 -5.28833429632963 -4.34792835623562  0.29712468656866
 8 -5.19567055935594 -5.55422227922792  0.24080002860286
 6 -4.15626012861286 -3.32817026442644  0.57668599019902
 6 -3.49649382618262 -3.65042298499850  1.86390235873587
 8 -3.69404218761876 -3.15121247914791  2.85927928612861
 8 -2.64386973977398 -4.75674429292929  1.65841487898790
 6 -1.99555851285129 -5.28620382628263  2.88584598499850
 6  2.80334665506551 -0.69623791269127 -1.19545306250625
 6  4.16715760096010 -0.60330559845985 -0.51422398519852
 6  5.19497498879888  0.23352988098810 -0.96915979297930
 6  5.09515324092409  1.05921359665967 -2.09153328832883
 6  6.45804208290829  0.37034765076508 -0.21175169956996
 6  7.71414286688669 -0.11185973397340 -1.04279460816082
 6  8.93234094569457 -0.24990680678068 -0.12743884628463
 6  10.11089655025503 -0.62200386358636 -0.96900262026203
 6  9.99031230783078 -1.99793767366737 -1.55192215821582
 6  11.40546521032103 -0.41176606770677 -0.14282224472447
 6  12.79196693219322 -0.66364639813981 -0.68859636473647
 6  14.02797406920692 -0.26808252255226  0.22105851745175
 6  15.33415940694069 -0.33030211381138 -0.40315596809681
 6  15.72465873687369 -1.66547493579358 -0.87906973327333
 6  16.35454244694469  0.36119263656366  0.62396713141314
 6  17.66214380208021  0.56357008660866 -0.09828635563556
 6  18.68411883048305  1.34124220272027  0.71012426912691
 6  20.15805861026103  1.49458889138914  0.16006271227123
 6  20.24645749154915  2.32972027712771 -1.12897759365937
 6  20.96885195219522  2.05071677157716  1.31533547354735
 1 -4.27152751625163  3.57551080248025  1.54201029682968
 1 -9.88780090339034  3.93246552105211 -0.75279980618062
 1 -10.36902132623262 -2.22433796889689 -1.51115893529353
 1 -2.73447073427343 -0.98965916861686  2.09627611831183
 1 -2.09501296759676  1.54056611771177  1.54878852785278
 1 -2.23894698109811  0.71388049444945  4.02008234563456
 1 -3.24146125522552  2.27867709050905  3.28739676187619
 1 -3.92729553005301  0.54265942024202  3.73526521172117
 1 -2.25802092109211 -1.49745041584158 -0.25617362446245
 1 -2.48523489248925  0.06862448224823 -0.68540527512751
 1 -0.39566499519952  0.41037062436244  1.19409327232723
 1 -0.49084750505051 -1.11103186978698  1.51472493079308
 1 -5.72480665836584  6.78867637963796  0.54240407170717
 1 -5.43950542184218  6.22168504990499  2.16334834733473
 1 -4.44617946254625  5.54659892789279  0.64995572817282
 1 -9.32464272407241  5.91253463546355 -0.64923627632763
 1 -9.27912697639764  8.05828554955496  0.79086886258626
 1 -7.63251118321832  7.40980781718172  1.33587254755476
 1 -12.04058453145315  2.96790593769377 -2.39148497999800
 1 -13.29489678737874  2.09736847924792 -1.21998772697270
 1 -12.20389142184218  3.21839917401740 -0.55095553505351
 1 -12.59140110501050 -1.38922984578458 -0.89678317921792
 1 -13.28343064216422 -0.01399410991099 -1.57268302270227
 1 -13.32767796699670 -1.70202386448645 -3.27492845094509
 1 -12.36201660736073 -0.37436590789079 -3.90899987838784
 1 -11.67168200760076 -2.08622965016502 -3.42184046224622
 1 -8.58322294089409 -4.63461996279628 -2.08088415141514
 1 -8.20643502870287 -5.67241319461946 -0.58964891999200
 1 -9.73817799679968 -4.77322577097710 -0.35554782348235
 1 -3.57062458095810 -3.56475308090809 -0.41571931003100
 1 -1.40498388598860 -4.52721493489349  3.47204892249225
 1 -2.82678911621162 -5.49475900080008  3.48239927762776
 1 -1.44522504300430 -6.29283006780678  2.49876323742374
 1  2.52180023482348 -1.76532315511551 -1.35482693139314
 1  2.41458790009001 -0.35711762696270 -2.19830088758876
 1  4.12771325802580 -1.19965837963796  0.21426282648265
 1  4.04552986448645  1.30665620832083 -2.35137562326233
 1  5.46088302050205  2.04953537743774 -1.82165960436044
 1  5.76279584808481  0.73677486838684 -2.87676393329333
 1  6.57609579347935  1.35682566316632  0.21599121302130
 1  6.24277214931493 -0.24168150485049  0.71051724722472
 1  7.50757288008801 -1.07613828682868 -1.67015177237724
 1  7.87728028652865  0.40985008800880 -1.94356517941794
 1  9.03815986028603  0.67351684918492  0.60097252535254
 1  8.68747186798680 -1.04758311101110  0.53494961836184
 1  10.07768240004000  0.02605875367537 -1.85757091509151
 1  9.17697730683068 -2.14777306080608 -2.21223960586059
 1  10.83268240884088 -2.24377777707771 -2.04014937303730
 1  10.07647984508451 -2.74697881258126 -0.67136453015302
 1  11.36091773337334  0.59879631303130  0.33464123492349
 1  11.54876247174717 -1.15941723932393  0.77964428452845
 1  12.76259421192119 -1.64860227952795 -1.04344661616162
 1  12.94207003690369 -0.05293035703570 -1.58817315101510
 1  13.90348176847685  0.78313367666767  0.54392922162216
 1  14.28340665126513 -0.92704908380838  1.19359173317332
 1  15.32409281068107  0.35667906490649 -1.35825709450945
 1  15.65921971877188 -2.41742108330833 -0.02429056455646
 1  14.97678932333233 -1.93577809780978 -1.74213558705871
 1  16.71005928552855 -1.77583848084808 -1.48041455475548
 1  16.09943321682168  1.33767210091009  0.85099101540154
 1  16.62700677847785 -0.16353263806381  1.45704419911991
 1  18.12348908660866 -0.43502001600160 -0.06477667326733
 1  17.69710702030203  0.89141803590359 -1.21293703730373
 1  18.34196325322532  2.31742301030103  1.02312425922592
 1  18.71917788028803  0.97881272077208  1.69658290379038
 1  20.56303613591359  0.41527252485249  0.00022591479148
 1  19.66267308580858  3.27613839033903 -0.98986117081708
 1  21.13789759055906  2.55159630173017 -1.52186016721672
 1  19.72520091769177  1.79729001920192 -1.93344172857286
 1  20.85603945744574  1.45651129202920  2.18845251405141
 1  22.04199209200920  2.37518798949895  1.12746940054005
 1  20.52825290379038  3.01067718491849  1.38777591429143

