%nproc=4
%Mem=2GB
# td=(NStates=1) CAM-B3LYP/6-31G(d,p) 

TD

0 1
12 -7.20452102510251  0.65436418451845  0.07991567896790
 6 -4.82615723372337 -1.95839701810181  0.52919945264526
 6 -4.85675560446045  2.77335578287829  1.10093645854585
 6 -9.36496123162316  3.07704319981998 -0.40103296299630
 6 -9.52685299899990 -1.75672118311831 -0.91989841894189
 7 -5.06002942754275  0.46498631673167  0.66862728102810
 6 -4.33722342844284 -0.75080490249025  0.74833285648565
 6 -2.83898290369037 -0.35477490319032  1.14185453965397
 6 -3.03784722312231  1.14914758305831  1.58888961966197
 6 -4.40151714661466  1.52674342314231  1.06230326022602
 6 -2.89990507260726  1.37676996509651  3.08249965886589
 6 -1.86001946294629 -0.60748601000100  0.04717867616762
 6 -0.39736715931593 -0.39281362856286  0.47350147944794
 6  0.57627876507651 -0.66553006590659 -0.67320270077008
 8  0.34439567966797 -0.96589199679968 -1.80696702840284
 8  1.81076288678868 -0.36985438183818 -0.27328411731173
 7 -7.17061750965097  2.61696728652865  0.27267596309631
 6 -6.12971225022502  3.31381235703570  0.69295282888289
 6 -6.48351560466047  4.73788807820782  0.80494118131813
 6 -7.82709541654165  4.88056868836884  0.43431182248225
 6 -8.22013628522852  3.54973416871687 -0.00525797949795
 6 -5.60101805850585  5.82187465336534  1.33949871037104
 6 -8.59905770337034  6.06067710141014  0.08535552095210
 6 -8.64903879517952  7.17413353195320  0.84372062186219
 7 -9.18761103370337  0.64957781888189 -0.51747578127813
 6 -9.89012527222722  1.70846079917992 -0.58284460856086
 6 -11.25534463106310  1.38122646174617 -1.16082780228023
 6 -11.27195959985998  0.03207857195720 -1.25373408740874
 6 -9.95575125582558 -0.47217919221922 -0.85803081918192
 6 -12.38026685038504  2.42969354035404 -1.36542331713171
 6 -12.44353890019002 -0.80115752585259 -1.63655446394639
 6 -12.29441693009301 -1.15882829402940 -3.15615073367337
 7 -7.30328979727973 -1.43731334493449 -0.16700137713771
 6 -8.28890913071307 -2.22233740584058 -0.53657861306131
 6 -7.89163530913091 -3.62643091059106 -0.35453273057306
 6 -6.56184006810681 -3.63406774377438  0.01085935403540
 6 -6.28977157355736 -2.27088536983698  0.16169897409741
 6 -8.66475394279428 -4.82359520192019 -0.74451292969297
 6 -5.43947841814181 -4.34901878537854  0.29465233783378
 8 -5.36853569146915 -5.55855033843384  0.35525255595560
 6 -4.24864844424442 -3.31044683448345  0.59652951825183
 6 -3.54349498039804 -3.56943216451645  1.87999837273727
 8 -3.65888748934894 -3.03774051025102  2.96942962406241
 8 -2.64289548324832 -4.66208093049305  1.68423700460046
 6 -1.89087967586759 -5.01871610071007  2.77511244674467
 6  2.91648416011601 -0.62766056065607 -1.22829402980298
 6  4.25006709570957 -0.40115829212921 -0.50724087308731
 6  5.10863434783478  0.42316858225823 -1.02323209590959
 6  5.13927235023502  1.22683533283328 -2.27977214251425
 6  6.41887622042204  0.50269211941194 -0.19637612281228
 6  7.65532307020702 -0.19461980888089 -0.96442339283928
 6  9.03851572417242 -0.22081721212121 -0.17256906970697
 6  10.29856048054805 -0.60028710041004 -0.87349832033203
 6  10.18175487568757 -2.07676861296130 -1.33235670067007
 6  11.54967784468447 -0.25866964776478 -0.01070020142014
 6  12.88589349704970 -0.48096214731473 -0.83090311321132
 6  14.08739820822082 -0.27094829762976  0.16580364786479
 6  15.40819694459446 -0.30163389248925 -0.48226646644664
 6  15.67186885578558 -1.71145877967797 -0.98077769546955
 6  16.45197930383038  0.25225958595860  0.46744125132513
 6  17.92746733613361  0.52840423882388 -0.14868068266827
 6  18.70340070957096  1.28155637263726  0.80653108610861
 6  20.16545521472147  1.38468880238024  0.27894265746575
 6  20.32504385818582  2.15914421162116 -0.96376736943694
 6  21.06987791859186  1.95125806210621  1.50192555595560
 1 -4.10940242474248  3.54607012841284  1.13851843874387
 1 -10.21176156885689  3.72589342434243 -0.50480587208721
 1 -10.40029331873187 -2.41508084888489 -1.10852750495050
 1 -2.61714817171717 -1.03500181408141  1.89817050825083
 1 -2.28312191739174  1.83533711631163  1.32104275467547
 1 -1.93318777627763  0.85584603750375  3.30174388788879
 1 -2.87516257625763  2.44246830433043  3.39377154255426
 1 -3.67880132283228  0.75902058605861  3.65548796159616
 1 -2.09443192809281 -1.67300726112611 -0.40101401060106
 1 -2.07856952945294  0.03329057945795 -0.82586262586259
 1  0.06381286388639  0.73391800570057  0.57618801790179
 1 -0.05366316831683 -0.92720723592359  1.40622457765777
 1 -5.93370214561456  6.81188983308331  0.69420512971297
 1 -5.36052304170417  6.05257862096210  2.45166146324632
 1 -4.50714467046705  5.68031919831983  0.92807598319832
 1 -9.29780183268327  6.07205335343534 -0.63524375257526
 1 -9.40928214411441  7.97518825772577  0.85892551435144
 1 -7.80211967776778  7.30760716021602  1.62509089458946
 1 -12.03163726882688  3.05796612261226 -2.13323632833283
 1 -13.41833150235023  2.13817770897090 -1.49081027252725
 1 -12.32484421552155  3.15347400210021 -0.47405864986499
 1 -12.49754453285329 -1.68434787988799 -1.13767872277228
 1 -13.53356207510751 -0.31706844364436 -1.41745727322732
 1 -13.09333568616862 -1.83952863906391 -3.52775265976598
 1 -12.51725528972897 -0.02002654025403 -3.72224572027203
 1 -11.25828210751075 -1.61809667676768 -3.42972159215922
 1 -9.09651925492549 -4.78314905780578 -1.96185945004500
 1 -8.19057842264226 -5.69920992519252 -0.59257887088709
 1 -9.61381126602660 -4.86122114341434 -0.11317313991399
 1 -3.54730542644264 -3.47683093379338 -0.30343561506151
 1 -1.19065723222322 -4.21971841154115  3.22561547684768
 1 -2.63487309590959 -5.17926954455446  3.62661550045005
 1 -1.20445855735574 -5.80062933613361  2.60738469136914
 1  2.89119842394239 -1.76576841274127 -1.48490245524552
 1  2.69653713131313 -0.09794551495150 -2.15721887408741
 1  4.56563746934693 -1.05781799699970  0.27587080308031
 1  4.21410037353735  1.51973068346835 -2.79673804350435
 1  5.31815722742274  2.37851811071107 -1.92931940014001
 1  5.71548885648565  0.82857396489649 -3.04936366736674
 1  6.71796385928593  1.55547954795480  0.12580522332233
 1  6.40522464186419  0.04007597019702  0.76881659835984
 1  7.24685206990699 -1.22219145434543 -1.33408473207321
 1  7.88094052995300  0.29632284038404 -1.99926284988499
 1  9.44235628722872  0.83495138013801  0.34387201940194
 1  8.84746323502350 -0.92842834903490  0.65891375507551
 1  10.28009556095610  0.16539907760776 -1.82747763726373
 1  9.41962694819482 -2.02767074357436 -2.06659258405841
 1  11.10913346904690 -2.57613439733973 -1.94131837573757
 1  10.12240512651265 -2.69939188118812 -0.58632807250725
 1  11.52142982388239  0.79383161336134  0.30634212171217
 1  11.54341739513951 -0.87111307260726  0.73068368996900
 1  13.01508482738274 -1.57922608380838 -1.02370003760376
 1  12.86670042254225  0.19393008400840 -1.69245260656066
 1  13.96695813251325  0.65567812381238  0.86217356035604
 1  14.09361211431143 -1.12282188688869  0.95886240274027
 1  15.23755704420442  0.44102358735874 -1.32856721472147
 1  15.83934137703770 -2.37508780088009  0.07733627972797
 1  14.81165421612161 -2.18702107770777 -1.54343175827583
 1  16.52690231963197 -1.88401392629263 -1.57260873037304
 1  16.14842004270427  1.19555738943894  0.88755529982998
 1  16.45730017721772 -0.44532370747075  1.38012077327733
 1  18.25395633433343 -0.59251579897990 -0.35532887328733
 1  17.86487355185519  1.07304462336234 -1.14187776357636
 1  18.29886067866787  2.34285844354435  0.84859286458646
 1  18.60135729602960  0.85468964996500  1.71410141044104
 1  20.60084499719972  0.37302345054506  0.17782484648465
 1  20.27046115271527  3.22090565246525 -0.70408400180018
 1  21.30567481958196  2.09332598539854 -1.57064842814281
 1  19.63961786618662  1.78866067686769 -1.85059202820282
 1  20.90815679087909  1.52041015011501  2.40720033723372
 1  22.28148985528553  1.83409463916392  1.22616758305831
 1  20.64887461736174  3.00966104940494  1.73825426592659

