%nproc=4
%Mem=3GB
# td=(NStates=1) iop(3/107=0140000000,3/108=0140000000) CAM-B3LYP/6-31G(d,p) 

TD

0 1
12 -7.09503419511951  0.69867825132513  0.08835520552055
 6 -4.83094191069107 -1.91637886848685  0.53072847524752
 6 -4.82050808140814  2.83573229112911  1.22450255545555
 6 -9.29232599709971  3.13399095209521 -0.55986846214622
 6 -9.55437153515352 -1.66248801450145 -0.86623342824282
 7 -5.14423145434543  0.41883797439744  0.66425424942494
 6 -4.37650989828983 -0.75113625682568  0.76417431213121
 6 -2.96721294189419 -0.47426582458246  1.30311598069807
 6 -3.08333156005601  1.02326102770277  1.74068034733473
 6 -4.43281351605160  1.44449910101010  1.20668506240624
 6 -3.10334651545155  1.12085490479048  3.33990930553055
 6 -1.92456818651865 -0.69557554675468  0.13511732203220
 6 -0.46454216341634 -0.65867911591159  0.67367074937494
 6  0.58646056925693 -0.72792941484148 -0.49999979007901
 8  0.17686790359036 -1.06393017071707 -1.59138653175318
 8  1.75536413481348 -0.42288222662266 -0.14371975957596
 7 -7.01696934033403  2.64535774567457  0.12946387048705
 6 -5.99324946874687  3.33804757215722  0.78221409750975
 6 -6.31245615401540  4.77060392399240  0.79912817151715
 6 -7.53764855015502  4.88730053525352  0.19768589498950
 6 -7.95445497299730  3.57256419521952 -0.13457545894589
 6 -5.36482851675168  5.85394486818682  1.18987914311431
 6 -8.38267827582758  6.05851612121212 -0.04266365386539
 6 -8.24269267926793  7.20465961566157  0.72286634593459
 7 -9.07544658575858  0.71267826222622 -0.61516809070907
 6 -9.88960644694469  1.92145546984698 -0.70287310081008
 6 -11.21541549424943  1.52086153065307 -1.09742460216022
 6 -11.28888837603760  0.19327687348735 -1.21829185748575
 6 -9.91544914851485 -0.31394158755876 -0.90180238153815
 6 -12.35648658635864  2.50892613401340 -1.24125357805781
 6 -12.48331212411241 -0.69739586338634 -1.52837216781678
 6 -12.40146205510551 -1.28685887818782 -2.97212786398640
 7 -7.19938290069007 -1.34804964066407 -0.24296697179718
 6 -8.22744707100710 -2.18333687918792 -0.64359593949395
 6 -7.87561960176018 -3.55724627602760 -0.59892019181918
 6 -6.51632942344235 -3.53822680478048 -0.10407248894889
 6 -6.19024275597560 -2.15946390219022  0.09393122852285
 6 -8.64775711521152 -4.74285038343834 -0.92942632573257
 6 -5.32115757865787 -4.36701026442644  0.10018499259926
 8 -5.24885587788779 -5.56298315531553  0.09370531913191
 6 -4.19586408900890 -3.33068051545155  0.57909623122312
 6 -3.50713489028903 -3.67941588428843  1.77137310581058
 8 -3.71472425582558 -3.25565292319232  2.88885224342434
 8 -2.60893624642464 -4.72148076657666  1.59897893539354
 6 -2.01881083808381 -5.19279448534853  2.74926232663266
 6  2.74537085748575 -0.75902419131913 -1.08683220042004
 6  4.11505239043904 -0.39908517641764 -0.35914847764777
 6  5.10908639993999  0.25541206920692 -0.89685256225623
 6  5.13116684228423  1.04923259855986 -2.12425656065607
 6  6.36033231193119  0.33227384338434 -0.13437396179618
 6  7.59000045264526 -0.15112366036604 -0.89168949764977
 6  8.90156786838684 -0.01311312741274 -0.09388549094909
 6  10.20902636323632 -0.49269093229323 -0.82924864486449
 6  10.15843912051205 -1.95429330923092 -1.26450341634163
 6  11.40341500530053 -0.14134902600260 -0.09256721922192
 6  12.70972870837084 -0.65974600810081 -0.70689819491949
 6  13.91105237703770 -0.29176489078908  0.29474588618862
 6  15.35836182718272 -0.17923700730073 -0.40133578607861
 6  15.80909718071807 -1.69228761706171 -0.68576040234023
 6  16.35848284098410  0.42777929522952  0.45138987368737
 6  17.70334792249225  0.71203493309331 -0.17968449544954
 6  18.65391581018102  1.41186926542654  0.70835409210921
 6  20.03986679107911  1.37113654615462  0.09560626662666
 6  20.12639548534854  2.16325363046305 -1.23520821672167
 6  21.12628769576958  1.89325102500250  1.14751869186919
 1 -3.96670703420342  3.45452870427043  1.29390548634863
 1 -9.92215433873387  4.16074834933493 -0.68332285848585
 1 -10.48419284338434 -2.36208174327433 -0.87228504790479
 1 -2.42269955715572 -0.93721392409241  2.21544803550355
 1 -2.26519998629863  1.50771283238324  1.33383703270327
 1 -2.08652173857386  0.48109721612161  3.71793213061306
 1 -3.23433054215422  2.11892111491149  3.67864588678868
 1 -3.79605240574057  0.42698785308531  3.76510819601960
 1 -1.80844596359636 -1.56535720652065 -0.45040304740474
 1 -2.02853922292229  0.09665728552855 -0.44384111871187
 1 -0.20856628532853  0.31277086438644  0.99475333833383
 1 -0.21273969426943 -1.51273203980398  1.29052251055106
 1 -5.65495967366737  6.72463997599760  0.68649848114812
 1 -5.36828830013001  5.97799068046805  2.42464447694769
 1 -4.23046789138914  5.71579584758476  0.80419115171517
 1 -9.25500576037604  6.02032541454145 -0.67905925862586
 1 -8.99669873357336  8.16171589258926  0.79314909060906
 1 -7.51737967006701  7.51999883628363  1.55759471977198
 1 -12.25536600960096  2.97716686378638 -2.28481431293129
 1 -13.35106240394039  2.11806054845485 -0.94513024122412
 1 -12.35463649634963  3.31050838493849 -0.39699013851385
 1 -12.46840880578058 -1.47919884268427 -0.59978347924792
 1 -13.42730502960296 -0.05112782328233 -1.56729248364836
 1 -13.47013221242124 -1.72283594569457 -3.34776573467347
 1 -12.00586099179918 -0.36875534683468 -3.74658363676368
 1 -11.73356819621962 -2.20835186238624 -3.05870414861486
 1 -9.11900651925193 -4.59886638743874 -1.94918098109811
 1 -7.88985337053705 -5.62451840514051 -1.01584153925393
 1 -9.38442262126213 -4.85803425182518 -0.04760702940294
 1 -3.52348986748675 -3.56434303990399 -0.31889962806281
 1 -1.36145953355336 -4.54616683008301  3.11772348994899
 1 -2.92402884018402 -5.52625215011501  3.31708274597460
 1 -1.46090661116112 -6.15493627842784  2.36771013211321
 1  2.80979903470347 -1.88556517931793 -1.31015246394639
 1  2.51739818111811 -0.28900081528153 -1.91754281178118
 1  4.32045253195320 -0.93415182898290  0.66595799599960
 1  4.09724503600360  1.14116965966597 -2.41706219191919
 1  5.59993692589259  2.14944536843684 -2.23763120152015
 1  5.87403697219722  0.54687587848785 -2.78541479837984
 1  6.56414459835984  1.50528050865086  0.05739535343534
 1  6.30420829292929 -0.09897723442344  0.83906010151015
 1  7.35217734053405 -1.25331600460046 -1.02577733493349
 1  7.63810636913691  0.31101020402040 -1.98060888378838
 1  9.03816986128613  1.12428192569257  0.01900432853285
 1  8.73028614941494 -0.64367271997200  0.80986711011101
 1  10.28804343614362  0.13200934873487 -1.97087224522452
 1  9.32505211431143 -2.07640592409241 -1.92653103500350
 1  11.12250139073907 -2.36507990729073 -1.67737309540954
 1  9.87845004210421 -2.61889600430043 -0.43880127382738
 1  11.51734337593759  1.02000843424342  0.15896366716672
 1  11.61930952645265 -0.64541583918392  0.89470579067907
 1  12.61726967946795 -1.63559097839784 -1.07684995649565
 1  12.93815964586459  0.13004794079408 -1.62796713041304
 1  13.68310973127313  0.85916127942794  0.70480530923092
 1  13.99025733633363 -0.94865124402440  1.00560293429343
 1  15.14194459585959  0.49799319631963 -1.26903817261726
 1  15.92716651345135 -2.26318565976598  0.27589945444545
 1  15.08797044144414 -2.33567808780878 -1.14546592009201
 1  16.79773805340534 -1.76939783678368 -1.40219673297330
 1  15.75569884338434  1.26179451315131  0.95937185348535
 1  16.63771784958496 -0.30863714851485  1.34931342604260
 1  18.07467420512051 -0.17127364136414 -0.46093628922892
 1  17.69813712331233  1.02608150225022 -1.25559130273027
 1  18.47790684758476  2.42559382738274  0.98377032383238
 1  18.76394235673568  0.94214905440544  1.63115636113611
 1  20.24397422972297  0.39248024562456  0.01199709190919
 1  19.85320213871387  3.13963473997400 -0.89119130383038
 1  21.16910071087109  2.16346748884888 -1.67848582978298
 1  19.53801219881988  1.98237852805281 -2.08565695009501
 1  21.29914376787679  1.00341598249825  2.03567723652365
 1  22.16377427022702  2.25364583528353  0.56732338593859
 1  20.75607568606861  2.80106622382238  1.60248738543854

