%nproc=4
%Mem=2GB
# td=(NStates=1) CAM-B3LYP/6-31G(d,p) 

TD

0 1
12 -7.08046861986199  0.60558930703070  0.11591927932793
 6 -4.83544816281628 -1.94534571297130  0.43463999669967
 6 -4.93330325922592  2.76671511881188  1.36381274617462
 6 -9.50304504000400  3.12260775627563 -0.36295915561556
 6 -9.54389470317032 -1.66975248624863 -0.88168459755976
 7 -5.07428085268527  0.36585640374037  0.65090550885089
 6 -4.28257796389639 -0.72195201720172  0.80605862906291
 6 -2.90842984838484 -0.35050447614761  1.21804215841584
 6 -3.06647008540854  1.12494516281628  1.66523725442544
 6 -4.50253724862486  1.50384113291329  1.24305133503350
 6 -2.77305238733873  1.37390967906791  3.13058446734673
 6 -1.94692815381538 -0.67050231163116  0.12362632093209
 6 -0.51385880848085 -0.63827817501750  0.52473660296030
 6  0.50550168736874 -0.70896440934093 -0.55264064456446
 8  0.14429566966697 -0.95042044964496 -1.72645897759776
 8  1.72581439193919 -0.47955535193519 -0.18122491139114
 7 -7.14199464736474  2.66698228802880  0.32596129162916
 6 -6.11331061006101  3.37978895469547  0.79495302890289
 6 -6.48901615471547  4.81479576897690  0.87177786498650
 6 -7.81542424942494  4.82794342584258  0.45115350665066
 6 -8.22175644724473  3.50623981928193  0.11056360266027
 6 -5.51837979467947  5.94229669556956  1.24282904340434
 6 -8.56267406500650  6.01495252895290  0.16216320172017
 6 -8.44884877617762  7.24546066466647  0.70957720752075
 7 -9.11728400100010  0.66716957805781 -0.43138717241724
 6 -9.84026028572857  1.81737169026903 -0.67653397749775
 6 -11.15379447604760  1.47414575367537 -1.15647736723672
 6 -11.13054545844584  0.09906527062706 -1.37375608960896
 6 -9.84162984368437 -0.38593056735674 -0.85682069816982
 6 -12.17368619231923  2.37000757175718 -1.56279305410541
 6 -12.37147169346935 -0.70877828792879 -1.83426423492349
 6 -12.28519600800080 -1.04582699389939 -3.34787990659066
 7 -7.22008147644765 -1.38016763036304 -0.19342401940194
 6 -8.27644788458846 -2.21683685578558 -0.49237419261926
 6 -7.88802494809481 -3.61737000450045 -0.44542181948195
 6 -6.53252713681368 -3.58240257725773 -0.08622035393539
 6 -6.21769436583658 -2.17160544184418 -0.01575877167717
 6 -8.70187765516552 -4.85658850125013 -0.66260473887389
 6 -5.33163763406341 -4.39082296579658  0.26257913051305
 8 -5.12306114401440 -5.57345182858286  0.55753278397840
 6 -4.23374695409541 -3.34267005680568  0.50030989628963
 6 -3.54233486438644 -3.61895711701170  1.84953532643264
 8 -3.63939554015402 -3.14268100430043  2.92540522162216
 8 -2.64988618231823 -4.73483820622062  1.69031761266127
 6 -1.95521610951095 -5.20642487158716  2.95676061156116
 6  2.69147165886589 -0.69038683328333 -1.25070627102710
 6  4.03766585558556 -0.44932310861086 -0.58917906690669
 6  5.10944442884288  0.28455472087209 -1.08711848454845
 6  5.06870529352935  1.02522517181718 -2.37379154445445
 6  6.46821115391539  0.20655250545054 -0.23850033523352
 6  7.66918445634563 -0.28393874077408 -1.07329427992799
 6  8.99993186578658 -0.12690782118212 -0.28002981578158
 6  10.33485410991099 -0.47573464516452 -1.07305827632763
 6  10.24078077827783 -2.04394533063306 -1.44524798979898
 6  11.45086796369637 -0.22760654145415 -0.09915904730473
 6  12.84824973267327 -0.40874492559256 -0.78306832973297
 6  13.91048051645165 -0.08966016881688  0.19462653015302
 6  15.36517264216422 -0.13200692979298 -0.38098633843384
 6  15.63337500640064 -1.58100573437344 -0.89523914161416
 6  16.41139524542454  0.47276163616362  0.50003451065107
 6  17.78819340874087  0.57785918431843 -0.16113192779278
 6  18.77901827132713  1.26746496349635  0.85867630063006
 6  20.23031170037004  1.32678301180118  0.28634339753975
 6  20.42310366416642  2.03010130733073 -0.99223021572157
 6  20.98672960376038  1.96061899819982  1.42316768016802
 1 -4.33332481698170  3.47444296569657  1.89024361126113
 1 -10.28412880558056  3.91579241424142 -0.51617700920092
 1 -10.37806109550955 -2.44073341414142 -0.97125377757776
 1 -2.88990544744474 -1.06144445834583  2.05941663286329
 1 -2.16321992719272  1.88995257785779  1.10265091549155
 1 -1.86271072857286  1.00846129902990  3.69234294779478
 1 -2.77829288928893  2.56012006950695  3.40290245564556
 1 -3.56075951865187  0.98588327232723  3.68773118591859
 1 -2.14947743264326 -1.65367532793279 -0.40737464666467
 1 -2.13978565106511 -0.18294104370437 -0.83013305290529
 1 -0.26408992639264  0.46354096799680  1.04730512961296
 1 -0.41089889188919 -1.41253576877688  1.08684263946395
 1 -5.82502127752775  6.76550519461946  0.40373608280828
 1 -5.61434842424242  6.34147751085109  2.36479277637764
 1 -4.46953090909091  5.74637580398040  0.88021119671967
 1 -9.35038709120912  5.77234338243824 -0.52762299049905
 1 -9.13293450935094  8.10093083198320  0.40314993679368
 1 -7.85373483928393  7.43935033453345  1.65917430293029
 1 -12.05934003910391  3.15518584458446 -2.33468647334734
 1 -13.18878854805480  1.95977986918692 -1.81655284678468
 1 -12.40857258835884  2.97693634833483 -0.72672391639164
 1 -12.37000177857786 -1.51633107820782 -1.00583553845385
 1 -13.37039575847585 -0.22517925472547 -1.64904043154315
 1 -13.01111746434643 -1.82550723692369 -3.53735361986199
 1 -12.56981054525453 -0.13740827842784 -3.80316381208121
 1 -11.39192547184719 -1.52670753785379 -3.74922354235424
 1 -9.21450105310531 -4.86550729362936 -1.50162342644264
 1 -8.11172053685369 -5.68936894109411 -0.70150976397640
 1 -9.74376426132613 -4.96495151645165 -0.06828865146515
 1 -3.48948964486449 -3.28383163386339 -0.34841011251125
 1 -1.66476464296430 -4.29327576727673  3.47195011031103
 1 -2.91434104270427 -5.71168278587859  3.62481532043204
 1 -1.05790390189019 -5.94773404660466  2.81778573147315
 1  2.69473877797780 -1.75009684558456 -1.70184414941494
 1  2.46238371597160 -0.02511823222322 -2.10379353155315
 1  3.99481038663866 -1.00413262846285  0.29151236723672
 1  4.02147111061106  1.02595130553055 -2.76454482418242
 1  5.30995640734073  2.17015727462746 -2.29900636883688
 1  5.71894920252025  0.77223833133313 -3.13939267026703
 1  6.64549661256126  1.35395939593959 -0.19776713391339
 1  6.28775289468947 -0.33675171257126  0.63632334903490
 1  7.57578496319632 -1.10007924312431 -1.50014133773377
 1  7.63239567546755  0.33002621072107 -1.92560548414841
 1  8.98095014661466  0.81759964496450  0.23646127832783
 1  8.88177666636664 -0.64144965116512  0.66129399309931
 1  10.18986653805380  0.16991952965296 -1.96260114961496
 1  9.22432741824182 -2.07126510301030 -2.07244316911691
 1  11.06879943564356 -2.17288407230723 -2.12332657655766
 1  10.16475936193619 -2.68571051305131 -0.58143758345835
 1  11.32532021292129  0.76986921712171  0.15813730123012
 1  11.58667172057206 -0.84713067436744  0.75926654825483
 1  12.90760407930793 -1.48537669886989 -1.14832249984999
 1  12.88714246674667  0.21700239123912 -1.54956831813181
 1  13.80729216591659  0.99484204020402  0.62042938593859
 1  13.79669242234223 -0.78250785548555  1.06234275077508
 1  15.28786207470747  0.55967545254525 -1.32370672867287
 1  15.67086452935294 -2.13271356345635 -0.04679613351335
 1  14.91583463416342 -1.85969834543454 -1.86135355045505
 1  16.64780440984099 -1.56950247514751 -1.15739720922092
 1  15.99252445314531  1.27589542324232  1.04896144044404
 1  16.50975542274227 -0.30819999509951  1.38617137833783
 1  18.31307224592459 -0.28118466586659 -0.42683602400240
 1  17.85687275177518  1.20636795569557 -1.01565514131413
 1  18.33099389198920  2.32118627632763  0.77042504780478
 1  18.69242640294030  0.81179536053605  1.88996899719972
 1  20.59056396909691  0.29019516771677  0.32488955295530
 1  19.93329743634363  2.99319288118812 -1.08949254265427
 1  21.53351760386039  2.10755740854085 -1.27151851515152
 1  20.01761566596660  1.28868067886789 -1.83801077007701
 1  20.93279925512551  1.38847695679568  2.35211482868287
 1  22.04829653595359  2.19261049074907  1.12502746904690
 1  20.72882261216122  2.93130321362136  1.76324676517652

