%nproc=4
%Mem=2GB
# td=(NStates=1) CAM-B3LYP/6-31G(d,p) 

TD

0 1
12 -7.18029860286029  0.64517326542654  0.09439712711271
 6 -4.91366598459846 -1.92456363476348  0.41235776847685
 6 -4.84021395029503  2.81454990229023  1.28619498439844
 6 -9.41549628512851  3.09677517301730 -0.37126998669867
 6 -9.55145545924593 -1.79644515551555 -0.82869929902990
 7 -5.07968139273927  0.43115293339334  0.67781820012001
 6 -4.36331603770377 -0.70542036403640  0.78822684588459
 6 -2.96268527392739 -0.48850827652765  1.23399375357536
 6 -2.96852029042904  1.05764843314331  1.71682241294129
 6 -4.33826082098210  1.54080482928293  1.20659768966897
 6 -2.85920100220022  1.29704199229923  3.16608801770177
 6 -1.95039850085008 -0.66547180858086  0.04825878417842
 6 -0.47911533413341 -0.32647699489949  0.42313644294429
 6  0.60080121732173 -0.63733724662466 -0.60291567206721
 8  0.29159039913991 -1.05884129172917 -1.66070240194019
 8  1.80295210571057 -0.42246964336434 -0.20363715261526
 7 -7.13432388028803  2.55270085988599  0.28700739623962
 6 -6.11820109910991  3.31871284708471  0.91162469606961
 6 -6.50410766386639  4.76098038743874  0.86440712791279
 6 -7.77797050405040  4.80882151365137  0.39572796409641
 6 -8.16199047064707  3.40122931823182  0.03128567486749
 6 -5.45124308100810  5.81151361726173  1.21993675417542
 6 -8.57824562216222  5.99033006670667  0.14416140154015
 6 -8.57295118641864  7.20600671927193  0.73301955175518
 7 -9.10756302890289  0.59318217931793 -0.58122215591559
 6 -9.84981124082408  1.72393234633463 -0.69777610171017
 6 -11.18189728632863  1.43576191529153 -1.14378609810981
 6 -11.25083748764876  0.12446781088109 -1.32861157515752
 6 -10.03230891159116 -0.46383835813581 -0.91585660176018
 6 -12.18544736843684  2.38336890789079 -1.53186996179618
 6 -12.40577512381238 -0.80067747784778 -1.73765457395740
 6 -12.30246773517352 -1.22729514071407 -3.19720483908391
 7 -7.27487695599560 -1.36166578017802 -0.30874555155516
 6 -8.28274851465146 -2.21938711081108 -0.62410736593659
 6 -7.76163230883088 -3.71580984848485 -0.49093637093709
 6 -6.46649053315332 -3.52713705070507 -0.17134886678668
 6 -6.17184978137814 -2.12197047834784 -0.03669086488649
 6 -8.58875634303430 -4.94555739813981 -0.76135461386139
 6 -5.31795626592659 -4.35377926142614  0.26479935253525
 8 -5.16257509540954 -5.56298078147815  0.20655768646865
 6 -4.21705528492849 -3.28426421622162  0.60092995829583
 6 -3.62286291719172 -3.61234645594560  1.97097747064706
 8 -3.77336893749375 -2.98999573577358  2.95281796289629
 8 -2.87950914461446 -4.73086780918092  1.78645722662266
 6 -2.00138072597260 -5.13074730383038  3.08101303680368
 6  2.91938445014501 -0.50075787038704 -1.09599079947995
 6  4.14019610861086 -0.22971114741474 -0.43191334033403
 6  5.17853133753375  0.51934820022002 -0.92494226692669
 6  5.03447187018702  1.19592224152415 -2.33286745204520
 6  6.40606493929393  0.66280813101310 -0.18604508970897
 6  7.55922346024602  0.00261991509151 -0.99018596909691
 6  8.94936680928093 -0.06830196059606 -0.07320913371337
 6  10.24832545704570 -0.47881495319532 -0.86172714321432
 6  10.14752145234523 -1.83331426752675 -1.38256172117212
 6  11.47097997489749 -0.07800158095810 -0.02314144554455
 6  12.76135104280428 -0.43284733583358 -0.75589561246125
 6  13.99689915831583 -0.13218442124212  0.27589465696570
 6  15.36710283518352 -0.20919464856486 -0.51042928272827
 6  15.65407707660766 -1.73900153395340 -0.85379499719972
 6  16.44211831773177  0.32514687468747  0.51106561376138
 6  17.78830341974197  0.36804820322032 -0.18268408300830
 6  18.76586695619562  1.14442265926593  0.72358279127913
 6  20.25447411661166  1.19563989748975  0.16365112831283
 6  20.28633998779878  1.98774707190719 -1.07905889858986
 6  21.23614454525453  1.74161709800980  1.22580794419442
 1 -4.36153763826383  3.61127664906491  1.83088767566757
 1 -9.91949234193419  3.98238907390739 -0.52376776827683
 1 -10.31898518791879 -2.36711605240524 -0.91227787998800
 1 -2.60513697059706 -1.25162347624762  2.12650334153415
 1 -2.08019162436244  1.57811139373937  1.11724237463746
 1 -2.05508996649665  0.78776922982298  3.62857657115712
 1 -2.79468452845285  2.41679573707371  3.39389155455545
 1 -3.83513695639564  0.93991867586759  3.50511292409241
 1 -2.07561004590459 -1.54768472887289 -0.39345325452545
 1 -2.25061673417342 -0.08582133173317 -0.78223826342634
 1 -0.36977049444945  0.78158277217722  0.56607700680068
 1 -0.41599940194019 -0.84148866406641  1.44314827002700
 1 -5.88133690909091  6.71855049914992  0.83639934913491
 1 -5.38316530593059  6.02119548264826  2.34791108820882
 1 -4.53342729872987  5.68164933133313  0.86739991559156
 1 -9.21238329082908  5.96041218931893 -0.64305453365337
 1 -9.33871508740874  7.91203194209421  0.20206982878288
 1 -7.99164863066307  7.27715411491149  1.47712609810981
 1 -11.91208531363136  3.14314464046405 -2.25128813351335
 1 -13.10909057825783  1.64775866706671 -1.84503569506951
 1 -12.17024875597560  3.06687534223422 -0.57004824882488
 1 -12.29012379077908 -1.63628307340734 -0.97489244414441
 1 -13.44771349024903 -0.41958869566957 -1.35422094959496
 1 -13.02870922352235 -2.01281596779678 -3.50401028552855
 1 -12.31152471667167 -0.20426496409641 -3.90912440814081
 1 -11.19185546484649 -1.68515338243824 -3.38739735973597
 1 -8.94141374437444 -4.75381612451245 -1.88507177127713
 1 -7.97931729652965 -5.72304230843084 -0.70263987698770
 1 -9.49370925582558 -5.17947296859686 -0.17225904850485
 1 -3.43593428932893 -3.43330658135814 -0.14152942444244
 1 -1.55851401790179 -4.24183062276228  3.42810572587259
 1 -2.82005161376138 -5.37132875047505  3.78927176607661
 1 -1.48677678917892 -5.95081435463546  2.72543649654965
 1  2.69508881298130 -1.49476131203120 -1.46648061306131
 1  2.72196967456746  0.09900418001800 -2.05001815401540
 1  4.33072397799780 -0.86342855805580  0.38332154815482
 1  3.91338030153015  1.18947765816582 -2.49490786048605
 1  5.04805021672167  2.28203846274628 -2.13142961116112
 1  5.74604191179118  0.76827793529353 -3.08582731373137
 1  6.74324638753875  1.73117711771177  0.15428807160716
 1  6.23789790919092  0.04950691329133  0.84420413711371
 1  7.26844422912291 -0.95458469366937 -1.02735405900590
 1  7.83165560146015  0.42450565866587 -2.15910883448345
 1  9.15010706230623  0.96892477747775  0.27352498469847
 1  8.76755524422442 -0.78143364956496  0.77056492019202
 1  10.38647619901990  0.34992753045304 -1.69536442594259
 1  9.38890387588759 -1.74219219571957 -2.11668759355936
 1  11.09652220792079 -2.04934171807181 -1.94665890979098
 1  10.10781366736674 -2.71578352035203 -0.65682512221222
 1  11.37517519841984  0.89220145034503  0.28313980148015
 1  11.41492454585459 -0.82150811211121  0.93867448904890
 1  12.84264758365837 -1.49540770197020 -0.86648431603160
 1  12.62646639913991  0.36137682868287 -1.66621998329833
 1  13.98711014771477  0.88923147914791  0.46235357835784
 1  13.96799955305531 -1.10386999169917  1.05066158265827
 1  15.53633692219222  0.16368585358536 -1.56151050905091
 1  15.86247369026903 -2.36325661776178  0.00855940204020
 1  14.71051410211021 -1.83919629522952 -1.45660307540754
 1  16.51698132753275 -1.80019554445445 -1.34037550705070
 1  16.19394459515951  1.44468230193019  0.60383692799280
 1  16.43042748994899 -0.20201937703770  1.42776553775378
 1  18.26189712841284 -0.63286983438344 -0.51115445584558
 1  17.91476854135414  0.88538585748575 -1.22316589238924
 1  18.34846563916392  2.14021817951795  0.89569757505751
 1  18.69553671397140  0.55008918991899  1.58113811411141
 1  20.68496340904090  0.17083323152315 -0.03965690169017
 1  19.92482658925892  2.92251581348135 -0.75732932633263
 1  21.19787403950395  2.16841349414942 -1.44808617191719
 1  19.61528543294330  1.80547235803580 -1.95088205720572
 1  21.11183715891589  1.06634474357436  2.09175879307931
 1  22.29486119241924  1.86431766146615  0.94569953625362
 1  20.87846757665767  2.90336041934193  1.43721416191619

