%nproc=4
%Mem=2GB
# td=(NStates=1) CAM-B3LYP/6-31G(d,p) 

TD

0 1
12 -7.15607618061806  0.60613936203620 -0.00986329892989
 6 -4.88161277927793 -1.96223740214021  0.44174070677068
 6 -4.72782271117112  2.76281472877288  1.04803116801680
 6 -9.45797053255325  3.13955945144514 -0.29110196989699
 6 -9.51872218591859 -1.72712822382238 -0.84544097319732
 7 -5.07404082868287  0.39266908500850  0.50870128842884
 6 -4.32064177027703 -0.77944776677668  0.67479550275028
 6 -2.93719272467247 -0.40845027072707  1.08871922612261
 6 -2.99067250565056  0.99555222352235  1.62720345104510
 6 -4.31870886578658  1.46926767556756  1.03898092799280
 6 -3.06412149424942  1.08258054615462  3.15575698459846
 6 -1.90837429842984 -0.60242550395039 -0.00839688138814
 6 -0.37438486108611 -0.47018136533653  0.50650477977798
 6  0.48644978217822 -0.61391490439044 -0.62471785228523
 8  0.25672691279128 -1.03555896349635 -1.79038537023702
 8  1.75807761826183 -0.35705310171017 -0.25701249014901
 7 -7.08393884178418  2.65586117591759  0.30435913141314
 6 -6.02188146714671  3.27588856465647  0.72582611621162
 6 -6.30181743484348  4.68070235963596  0.74791547874787
 6 -7.60043275027503  4.84709534103410  0.34648303960396
 6 -8.07835210681068  3.51269046434643 -0.00262771647165
 6 -5.40444840154015  5.83761622752275  1.12327708820882
 6 -8.61610940854085  6.01906293999400  0.18472545794579
 6 -8.52267615891589  7.13318943754375  0.88211446124612
 7 -9.18677094969497  0.69951281238124 -0.48724275797580
 6 -9.89682594229423  1.86245619871987 -0.60328665276528
 6 -11.24687378397840  1.43501184028403 -0.89345106460646
 6 -11.26813921782178  0.09935529962996 -1.14891360536054
 6 -9.97156283698370 -0.46738871317132 -0.82713772987299
 6 -12.35372419611961  2.43287385838584 -1.10233700850085
 6 -12.34676922322232 -0.74098150825082 -1.73256406490649
 6 -12.28844633303330 -0.97177958915892 -3.29305442404240
 7 -7.18248771707171 -1.38950856445645 -0.35605028202820
 6 -8.28687892769277 -2.26050122222222 -0.54791974717472
 6 -7.86248239383938 -3.62556082358236 -0.53075035233523
 6 -6.47005088918892 -3.59179351635164 -0.12461419331933
 6 -6.18887148354835 -2.21495977727773  0.01658446264626
 6 -8.69245671307131 -4.82268511091109 -0.84785326372637
 6 -5.40462493279328 -4.34350823432343  0.30698357095710
 8 -5.27534637253725 -5.57784226762676  0.30094712541254
 6 -4.14183776317632 -3.35208099789979  0.61060092539254
 6 -3.51152178307831 -3.53622884418442  1.96122649554956
 8 -3.69617121772177 -2.96425316151615  3.05984866596660
 8 -2.80568176187619 -4.64023874627463  1.87274585548555
 6 -2.33594418231823 -5.11131536063606  3.20353528902890
 6  2.76573908560856 -0.67169496409641 -1.22950415081508
 6  4.01825391439144 -0.40888906520652 -0.55172532153215
 6  5.09643312771277  0.31276754215422 -1.06857663036304
 6  5.09961838483848  1.07509015831583 -2.25044921022102
 6  6.45165949874987  0.30167201740174 -0.24841132633263
 6  7.60812835073507 -0.21653200010001 -1.04756170667067
 6  8.95680755335534 -0.12130726112611 -0.21747356015602
 6  10.24153477797780 -0.55822289398940 -0.90200117061706
 6  10.08416511671167 -2.11751268736874 -1.30755422042204
 6  11.47924080098010 -0.26760054085409 -0.10996012741274
 6  12.89469437713771 -0.46797084818482 -0.70644066696670
 6  14.03665313371337 -0.15968717151715  0.26830389788979
 6  15.39506563146315 -0.20896462556256 -0.44104234403440
 6  15.74379604850485 -1.69046668046805 -0.87885750345034
 6  16.47669177507751  0.47769212921292  0.45491999919992
 6  17.89521411081108  0.66885828422842 -0.26061187578758
 6  18.74982535203520  1.29018723572357  0.70961139413941
 6  20.20198886808681  1.42198253175318  0.37395215841584
 6  20.42023337713771  2.24552284948495 -0.99427041974197
 6  21.06063699449945  1.92457539383938  1.42553791719172
 1 -3.79414089858986  3.54574009540954  1.38282286918692
 1 -10.26606699939994  3.86530736573657 -0.38921431293129
 1 -10.36893018241824 -2.40304964576458 -0.92190884308431
 1 -2.43996045294529 -1.03192150605060  1.74657534873487
 1 -2.12167577277728  1.57873145574557  1.21927257765777
 1 -2.09021347884788  0.93594404730473  3.62645635913591
 1 -3.42771783178318  1.96857091459146  3.52971513691369
 1 -3.84008745144514  0.42550723472347  3.64628704150415
 1 -2.00542302720272 -1.61679163956396 -0.60255416461646
 1 -2.04096576907691  0.00489774017402 -0.85078511811181
 1 -0.21728524592459  0.53044765866587  0.77443784288429
 1  0.02714491249125 -1.23002751795179  1.32601655685569
 1 -5.83460223562356  6.98140678477848  0.77079278847885
 1 -5.22735972537254  5.78645200830083  2.12651894899490
 1 -4.33599755575558  5.80270143654365  0.65416859245925
 1 -9.39709176167617  5.65807195529553 -0.38032826102610
 1 -9.23801501740174  7.91077181608161  0.70193981578158
 1 -7.74655412121212  7.47981438093809  1.76678506400640
 1 -12.05299940504050  2.90020034603460 -1.93692669736974
 1 -13.17988765796579  1.85235912711271 -1.37916910841084
 1 -12.58999073017302  3.19556821152115 -0.32417366136614
 1 -12.58906368476848 -1.73885333043304 -1.23888884378438
 1 -13.34657337623762 -0.18610534733473 -1.60046557405741
 1 -13.04861121372137 -1.62815750195020 -3.53069295379538
 1 -12.53516708090809 -0.12237677527753 -3.85666916261626
 1 -11.34861114041404 -1.42768763586359 -3.72980160016002
 1 -8.90264986798680 -4.73810455335534 -1.91012427652765
 1 -8.01943130793079 -5.82408241244124 -0.46675628862886
 1 -9.65415530043004 -4.82916793809381 -0.12478430103010
 1 -3.54960565646565 -3.59444269496950 -0.41199647114711
 1 -1.58267643414341 -4.46879331903190  3.70140305560556
 1 -3.09695930453045 -5.06779839743974  3.96202904180418
 1 -1.76561467296730 -6.11247052025202  2.92962691559156
 1  2.77450675477548 -1.85910774667467 -1.74850881588159
 1  2.68586606420642 -0.04351007140714 -2.17515066726673
 1  4.22339324492449 -1.20101231643164  0.35903911991199
 1  3.95628459195920  1.23261197159716 -2.48137650735074
 1  5.46698210991099  1.96942720162016 -2.17120358855886
 1  5.78981628922892  0.71871297879788 -3.02887161816182
 1  6.70416247914791  1.35731973197320 -0.05908326552655
 1  6.22099621902190 -0.11277931533153  0.65204492119212
 1  7.40999838453845 -1.24508374357436 -1.55035635923592
 1  7.63205564146415  0.32730593869387 -1.95471839543954
 1  9.16051810341034  1.04340222522252  0.02544017621762
 1  8.83317180588059 -0.50579608580858  0.84629249294929
 1  10.44111166256626  0.07947048474847 -1.77487237673767
 1  9.21364635013501 -2.11472944944494 -1.89180510531053
 1  10.95273782948295 -2.49643642754275 -1.95593983788379
 1  9.99103198919892 -2.84083602560256 -0.52225166486649
 1  11.46492417331733  0.82947517771777  0.29799128662866
 1  11.55970902430243 -0.79488544984498  0.77959858145815
 1  12.88338165706571 -1.44148230943094 -1.05680334793479
 1  12.88165191769177  0.13026371737174 -1.62869623092309
 1  13.89609104580458  0.78345090109011  0.87206454945495
 1  13.71975472857286 -1.05800540524052  0.99907642414241
 1  15.34870815931593  0.42553203820382 -1.33215757375738
 1  15.60298774167417 -2.43074336643664 -0.00544199809981
 1  14.98831188188819 -1.97656003160316 -1.40697811291129
 1  16.72659228862886 -1.56306183108311 -1.25403687318732
 1  16.03857905860586  1.43734156785679  0.70338688298830
 1  16.59920436763676 -0.23291246634663  1.33984674587459
 1  18.19780071877188 -0.22837938533853 -0.39112245264526
 1  17.77094415891589  1.04419173807381 -1.21441501730173
 1  18.49735052765277  2.34168832653265  1.00092809810981
 1  18.73778093839384  0.84064824582458  1.77419742004200
 1  20.56808172087209  0.38862501070107  0.10693775777578
 1  19.98630273687369  3.44205776767677 -1.05201879527953
 1  21.53890814291429  2.37695434823482 -1.25047641094109
 1  19.79203310771077  1.89322113291329 -1.75204217321732
 1  21.00693666886689  1.14174228332833  2.15320493769377
 1  22.06717842414241  1.93756498619862  1.21609657595759
 1  20.79326905680568  2.89407949124912  1.88739918041804

