%nproc=4
%Mem=3GB
# td=(NStates=1) iop(3/107=0140000000,3/108=0140000000) CAM-B3LYP/6-31G(d,p) 

TD

0 1
12 -7.11801649334933  0.63870225372537  0.05506187618762
 6 -4.83081189768977 -1.95127235783578  0.51092649504950
 6 -4.90159619021902  2.78812753065306  1.26550665586559
 6 -9.39812657715772  3.11066861986199 -0.38802127742774
 6 -9.46699279727973 -1.64845661136114 -0.90928773367337
 7 -5.11498853005301  0.50509660026003  0.60332815681568
 6 -4.32711495879588 -0.66884802800280  0.69731762646265
 6 -2.86854307490749 -0.34292269026903  1.15200086918692
 6 -3.00583381028103  1.20986968856886  1.63020930023002
 6 -4.33189342404240  1.46914156525653  1.17170156405641
 6 -3.00771695249525  1.28560137943794  3.13565888048805
 6 -1.86090181988199 -0.58610459965997 -0.00067625732573
 6 -0.38395410461046 -0.59998324632463  0.48505188748875
 6  0.53652557575758 -0.70674729662966 -0.65629541964196
 8  0.20398061486149 -1.04448822652265 -1.75342273537354
 8  1.80766936533653 -0.49473941234123 -0.21639702730273
 7 -6.99927757115712  2.69152236213621  0.29188011211121
 6 -6.07296744054405  3.34771853925393  0.86902277837784
 6 -6.41662657105711  4.86454331793179  0.88976723542354
 6 -7.67487227252725  4.89559136433643  0.48778490489049
 6 -8.11736126362636  3.58802574137414  0.06902490109011
 6 -5.55964799869987  5.99887936163616  1.22660281548155
 6 -8.56875688368837  6.03896416601660  0.21038165066507
 6 -8.61379978997900  7.20335948564856  0.98305236453645
 7 -9.06738577967797  0.64655164956496 -0.57931450535054
 6 -9.80545803210321  1.86271959625963 -0.77343015651565
 6 -11.22948690139014  1.53825326982698 -1.12916777647765
 6 -11.18459794699470  0.17121466726673 -1.29248927722772
 6 -9.81726933053305 -0.34048424182418 -0.98880108140814
 6 -12.39241017871787  2.40908615001500 -1.21890134283428
 6 -12.30748454135414 -0.76841296509651 -1.69084841544154
 6 -12.10000190909091 -1.40392058435844 -3.10876152735274
 7 -7.18682164456446 -1.35642047774777 -0.22283495859586
 6 -8.20604493079308 -2.24001254675468 -0.52054363426343
 6 -7.82982502230223 -3.56469702110211 -0.49895019481948
 6 -6.53593138363836 -3.51517449954996  0.01607952625263
 6 -6.18339207090709 -2.18914687048705  0.10369220462046
 6 -8.62000433993399 -4.75137123552355 -0.88207159025903
 6 -5.30219568246825 -4.42004556795680  0.21123609770977
 8 -5.22749374167417 -5.62305916291629  0.30103605220522
 6 -4.18508301090109 -3.27083453085309  0.57138546014601
 6 -3.58982315911591 -3.62892083478348  1.91223719221922
 8 -3.82366514991499 -3.13201055895590  3.01682504070407
 8 -2.75893124592459 -4.66307492599260  1.77434647214721
 6 -2.17204616161616 -5.16185139103910  3.07401480188019
 6  2.85266158655866 -0.69896818571857 -1.22935645284528
 6  4.10669155435543 -0.60491575947595 -0.66012857565757
 6  5.02854834613461  0.19681620962096 -1.15321819881988
 6  5.04735846144614  1.04814248954895 -2.37324145914591
 6  6.32876915561556  0.33869448544854 -0.37685821022102
 6  7.58506995959596 -0.35094364236424 -1.02736306500650
 6  8.86179389098910 -0.19798161426143 -0.15018112051205
 6  10.22844830543054 -0.52470413361336 -1.03084880488049
 6  10.17233050965097 -1.97590547044704 -1.56942390839084
 6  11.40042470627063 -0.24557944904490 -0.10461842434243
 6  12.76020375587559 -0.41615164866487 -0.76942444754475
 6  13.92102337413741 -0.04280999529953  0.18523493509351
 6  15.33152914391439 -0.16576566016602 -0.42473812631263
 6  15.67150342134214 -1.68930731903190 -0.72772459875988
 6  16.27332432513251  0.41671818911891  0.49195393009301
 6  17.74680226792679  0.53550728032803  0.02177565056506
 6  18.82655307390739  1.25835391389139  0.84079733643364
 6  20.33582638703870  1.38009744224422  0.26847355335534
 6  20.38985183098310  2.21418872397240 -0.99246394229423
 6  21.21594666166617  1.81934363426343  1.44668860886089
 1 -4.06860722422242  3.48600185158516  1.67117321312131
 1 -10.15362748604861  3.96511878637864 -0.25477000320032
 1 -10.29388381248125 -2.32348788388839 -1.07558537793779
 1 -2.63851113831383 -0.96939714241424  2.05594208490849
 1 -2.11810527682768  1.71834389548955  1.02278592759276
 1 -1.80157324372437  1.35657476387639  3.28561889928993
 1 -3.59371648074807  2.28825804860486  3.51962998519852
 1 -3.51270407090709  0.31272642694269  3.54904658985899
 1 -2.09463458245825 -1.37465813661366 -0.52603061016102
 1 -2.07746411541154  0.14816243604360 -0.78411514611461
 1 -0.33072850155016  0.39939952725273  0.87654151715171
 1 -0.49958837913791 -1.24504527112711  1.37748120642064
 1 -5.87087126482648  6.84011152315231  0.73442327362736
 1 -5.28140961226123  6.22885576697670  2.31317332983298
 1 -4.47457230183018  5.66520078807881  0.90246097869787
 1 -9.41717197699770  5.89892327432743 -0.63362471517152
 1 -9.37183624732473  8.02981270227023  0.81779155485549
 1 -7.72382031413141  7.41409824622462  1.63561252155216
 1 -12.34941541454145  3.08219736683668 -1.98296412791279
 1 -13.38508580628063  1.96288503090309 -1.26346207440744
 1 -12.43440447314732  3.04535186928693 -0.30456089558956
 1 -12.21983394829483 -1.66602752555256 -1.08588208910891
 1 -13.39072137123712 -0.39903261376138 -1.67893364776478
 1 -12.82586778597860 -2.12070573267327 -3.32661361946195
 1 -12.16870727642764 -0.66162463376338 -3.95059403780378
 1 -11.29884472387239 -1.84317534473447 -3.20520879907991
 1 -9.24771939053905 -4.57967446824683 -1.71383744674467
 1 -7.91645603080308 -5.57905385868587 -1.28380833593359
 1 -9.47638181718172 -4.82122057045705 -0.07039930863086
 1 -3.40868838733873 -3.26360296589659 -0.30021775987599
 1 -1.49505289288929 -4.22863507690769  3.26280799839984
 1 -2.73502994029403 -5.51732125702570  3.83237427512751
 1 -1.50396091659166 -6.07600838563856  2.73702706380638
 1  2.53456151095109 -1.67377400020002 -1.78543999269927
 1  2.54950139143914 -0.02782469766977 -2.17647870537054
 1  4.26749723642364 -1.08829724352435  0.27813921412141
 1  3.95560087158716  1.11536707940794 -2.75173565926593
 1  5.49036596879688  2.14971539543954 -2.22847028542854
 1  5.59574914341434  0.63565475637564 -3.38340459735974
 1  6.76697488138814  1.32414239483948 -0.23809419551955
 1  6.44056192829283 -0.20832816951695  0.45896209170917
 1  7.45824794759476 -1.52740341334133 -1.56454121132113
 1  7.86536909540954  0.13122222522252 -1.95582640554055
 1  8.95787183148315  0.84718421592159  0.14766719481948
 1  8.78647176797680 -0.83281163386339  0.90486661006101
 1  10.01850648244825  0.11554770257026 -2.03671882988299
 1  9.35078468756876 -2.22494077757776 -2.33253163506351
 1  11.07249639023902 -2.30338373767377 -2.18262362046205
 1  9.95074727182718 -2.47145125982598 -0.76900429412941
 1  11.30284192579258  0.67843427682768  0.46126389718972
 1  11.50322791829183 -1.01645294289429  0.69964628472847
 1  12.54583253575358 -1.31879929922992 -1.26560883238324
 1  12.68470430033003  0.45091002700270 -1.65788012171217
 1  13.68089951025103  0.97721308460846  0.60149497819782
 1  13.76090440104010 -0.77377375627563  1.07900027402740
 1  15.20369077047705  0.32409580658066 -1.28260952975297
 1  15.86232002880288 -2.23183252445245  0.37934979947995
 1  14.91676332073207 -2.34780930093009 -1.46586796029603
 1  16.60197847744774 -1.82084298129813 -1.22360887418742
 1  15.92763603710371  1.54068240194019  0.83232914921492
 1  16.26314039183918 -0.17593387818782  1.27398589328933
 1  17.91673841154115 -0.46988350235023 -0.05274547014701
 1  17.64716202580258  0.83103199729973 -0.97732347594760
 1  18.58512756965697  2.32259352735273  1.20057200400040
 1  18.87372333483349  0.71549638913891  1.90834407990799
 1  20.57284711701170  0.28534953255326 -0.10635474327433
 1  19.82385920442044  3.15773655015502 -0.76615880058006
 1  21.51868566936694  2.24997613971397 -1.36809479067907
 1  19.79477787538754  1.47497778797880 -1.74763314771477
 1  20.95000885438544  1.25241088198820  2.36993066186619
 1  22.37381527432743  1.61148161886189  1.27009366296630
 1  21.07294737323733  2.86741285848585  1.44197133383338

