%nproc=4
%Mem=2GB
# td=(NStates=1) CAM-B3LYP/6-31G(d,p) 

TD

0 1
12 -7.10766133913391  0.60333908200820 -0.04303661626163
 6 -4.84751936993699 -1.92663384178418  0.43569010171017
 6 -4.81923185208521  2.88615706300630  1.12985935083508
 6 -9.45794052955296  3.11812730823082 -0.36258911861186
 6 -9.47378769246925 -1.79467497849785 -0.87440386948695
 7 -5.05812923752375  0.46381619971997  0.65237565586559
 6 -4.33811351745175 -0.73818364036404  0.71458948214821
 6 -2.98785779117912 -0.38735816151615  1.15274562876288
 6 -3.03393683208321  1.04338700700070  1.57670840154015
 6 -4.33996099099910  1.54812556135614  1.09512654255426
 6 -2.91444652675268  1.38400068816882  3.15366677557756
 6 -2.02452591359136 -0.65563082448245  0.00879483778378
 6 -0.57220464306431 -0.49884423162316  0.49651378067807
 6  0.55839697689769 -0.83212672557256 -0.51407678817882
 8  0.38857009710971 -1.22351775937594 -1.58793512521252
 8  1.76465827632763 -0.39750714711471 -0.03343013191319
 7 -7.16537698559856  2.58971456125613  0.36099479497950
 6 -6.08558783778378  3.32769374517452  0.83725725932593
 6 -6.46335358845885  4.71709599899990  0.89955064226423
 6 -7.79797250425043  4.75073570507051  0.49623801510151
 6 -8.21566583818382  3.40204940024002  0.12017456375638
 6 -5.58348630533053  5.88794126002600  1.22150691119112
 6 -8.46329412701270  6.04351538523852  0.09366635203520
 6 -8.43088697999800  7.20808692729273  0.65452170197020
 7 -9.11185345794580  0.69627248834883 -0.62152618631863
 6 -9.86364262396240  1.76920687378738 -0.73158948304830
 6 -11.25829492609261  1.45977431653165 -1.02860457995800
 6 -11.21647405130513  0.11402676677668 -1.20711942594259
 6 -9.94018969966997 -0.39987196149615 -0.91088610471047
 6 -12.27653647734773  2.44687525852585 -1.23422019681968
 6 -12.48653319961996 -0.61543895399540 -1.73080388888889
 6 -12.34327181558156 -1.01400381158116 -3.20423554215422
 7 -7.23883335163516 -1.39870948454846 -0.32139681668167
 6 -8.24193443324332 -2.22107727982798 -0.67129208440844
 6 -7.85930207580758 -3.65218348584858 -0.55464274157416
 6 -6.46669055315532 -3.58331266826683 -0.15525725762576
 6 -6.16907950435044 -2.19867814911491  0.03468627282728
 6 -8.76737420482048 -4.79433227562756 -0.81949042744274
 6 -5.26397086738674 -4.41314519801980  0.18194106670667
 8 -5.10706954485449 -5.61911639503950  0.17585461616162
 6 -4.17245082448245 -3.28993478327833  0.53014287958796
 6 -3.51400203110311 -3.61241646294629  1.88163853675368
 8 -3.76351795239524 -2.98218495469547  2.93357603870387
 8 -2.82718391209121 -4.78510323272327  1.76331491239124
 6 -2.24371495939594 -5.28721295039504  3.00028496399640
 6  2.78545105680568 -0.67340513511351 -1.05201640204020
 6  4.07411950095010 -0.37815599189919 -0.39024917391739
 6  5.14254773917392  0.32532879827983 -0.89157893059306
 6  5.04663308630863  1.05092774207421 -2.32121628692869
 6  6.45671000380038  0.50529237943794 -0.15866235143514
 6  7.75771330923092 -0.05991633853385 -0.98378532903290
 6  8.99847171977198 -0.19767489788979 -0.09294110691069
 6  10.23808443294329 -0.55946301800180 -0.74379535003500
 6  10.21281798199820 -2.04491542764276 -1.11454491949195
 6  11.51106398329833 -0.20584436523652  0.03065393399340
 6  12.80746565426543 -0.52463651475148 -0.59778980188019
 6  13.97550701910191 -0.08656985978598  0.21922899039904
 6  15.30713683858386 -0.24855858495850 -0.51799003880388
 6  15.63613528242824 -1.68369600340034 -0.84138375607561
 6  16.48641274717472  0.49083344334433  0.40127463466347
 6  17.82642723212321  0.62246364476448 -0.25677149174918
 6  18.88142851235123  1.23606182318232  0.65431586458646
 6  20.21359002820282  1.29554988848885  0.12598736193619
 6  20.32521387518752  2.11810010721072 -1.17293828652865
 6  21.07872880368037  2.03957689398940  1.14114947834783
 1 -4.05429691419142  3.59371489288929  1.70356494339434
 1 -9.95072546524652  3.99705054005400 -0.57061245274527
 1 -10.26944023342334 -2.46398573937394 -1.11021767396740
 1 -2.76630308720872 -1.07821613551355  1.95347603880388
 1 -2.34818842404240  1.57139072167217  1.05187583798380
 1 -1.91566602410241  0.97005745864586  3.72642635613561
 1 -2.89462452245224  2.52358641614161  3.39060122552255
 1 -3.70519396209621  0.87583226722672  3.61718413121312
 1 -2.17073955885589 -1.90561052145215 -0.25973988318832
 1 -2.06664833733373  0.28279552995299 -0.66007604720472
 1 -0.40163368076808  0.39946456035604  0.85034543364336
 1 -0.32183998599860 -1.12324683988399  1.40702465766577
 1 -5.96431520692069  6.90902954705470  0.72882859205921
 1 -5.54009099849985  6.17003036613661  2.27365366246625
 1 -4.62859681568157  5.45577674407441  1.31304448004801
 1 -9.10849290179018  5.96432258035804 -0.92003223142314
 1 -8.67095831173117  8.23958469736974  0.33426304810481
 1 -8.11256072187219  7.39207560706071  1.62842122762276
 1 -11.76828093319332  3.25705603160316 -1.91767477217722
 1 -13.20466013521352  2.09666355755576 -1.88447963946395
 1 -12.50846257735774  2.90823947864786 -0.20912215621562
 1 -12.72136691509151 -1.60536998209821 -1.21258621352135
 1 -13.44762348124812 -0.05891262806281 -1.57756328382838
 1 -13.31236758935894 -1.39846453265327 -3.63741362586259
 1 -12.08878244244424 -0.11665620322032 -3.79274276997700
 1 -11.49310558985899 -1.79432429952995 -3.46330495049505
 1 -8.98473807680768 -4.90318106100610 -1.92851611571157
 1 -8.19112847764776 -5.78661866606661 -0.62656226922692
 1 -9.64454433933393 -4.70058507980798 -0.28116993959396
 1 -3.34961565746575 -3.43375662636264 -0.11669694119412
 1 -1.73347151365137 -4.39075551525152  3.41556447174717
 1 -2.93518312691269 -5.65412703030303  3.85287812671267
 1 -1.47620573207321 -5.99224849804980  2.75344929782978
 1  2.59252855695570 -1.68396023192319 -1.42629659465947
 1  2.43745122272227  0.07637191679168 -1.90335348754875
 1  4.34771567716772 -0.92704491969197  0.53405662166217
 1  4.03957292079208  1.00241895229523 -2.99546791649165
 1  5.24036944864486  2.07449770867087 -2.14289075727573
 1  5.96850415801580  0.74257536503650 -2.94976370737074
 1  6.62755481838184  1.61352535253525  0.20352299509951
 1  6.36646076547655 -0.06493453085309  0.88576829352935
 1  7.76718410311031 -1.02563179837984 -1.70548187178718
 1  8.09943237913791  0.64049725782578 -1.78813173677368
 1  9.15309736133613  0.76717460246025  0.40242787498750
 1  8.70577906660666 -0.95872137833783  0.71384924862486
 1  10.33373092449245 -0.20167763006301 -1.81462635213521
 1  9.27233221872187 -2.38822679917992 -1.56411233603360
 1  10.98328088378838 -2.45153193709371 -1.90410465436544
 1  10.48657154315432 -2.63497543954395 -0.01311075077508
 1  11.39315699659966  0.92697492769277  0.49871135863586
 1  11.41470452385239 -0.77537349864987  0.95401602320232
 1  12.76405972487249 -1.55201336253625 -0.72676034363436
 1  12.75565931843184  0.06547723872387 -1.79439280058006
 1  13.72036347304731  1.10908346434643  0.43879122212221
 1  14.01230398349835 -0.81693129782978  1.11884840134013
 1  15.25422871137114  0.42540202520252 -1.33842820082008
 1  15.85135257815782 -2.13525381748175  0.04127267336734
 1  15.01858490919092 -2.14945732133213 -1.37148456355636
 1  16.63217284668467 -1.66548207310731 -1.55470694019402
 1  16.02241744244424  1.44526235993599  0.62527907220722
 1  16.65236968416842 -0.09758893399340  1.25723848504850
 1  18.08584952365236 -0.41359790719072 -0.67838117851785
 1  17.82187925242524  1.25356267516752 -1.32918649444944
 1  18.59407019961996  2.25554971267127  1.04818282358236
 1  18.77681484178418  0.67371155215522  1.60734073437344
 1  20.92999791249125  0.21874802300230  0.15998306230623
 1  19.88821292789279  3.23972753465347 -0.90402399579958
 1  21.36273052515251  2.07128378117812 -1.52745410871087
 1  19.70269417381738  1.82295410621062 -2.01595856485649
 1  21.21100707590759  1.67845595469547  2.24148376557656
 1  22.20852255855585  1.91315254495450  1.05625059135914
 1  20.85407513741374  3.12296237953795  1.04110455095510

