%nproc=4
%Mem=2GB
# td=(NStates=1) CAM-B3LYP/6-31G(d,p) 

TD

0 1
12 -7.15920649364937  0.63355210331033  0.10932862026203
 6 -4.93975859385939 -1.92190336873687  0.45966249894990
 6 -4.84248417731773  2.79393784108411  1.07350371527153
 6 -9.41130586608661  3.10237573307331 -0.38022088178818
 6 -9.53172348604861 -1.77148265926593 -0.84167059615962
 7 -5.09137256185619  0.43053287138714  0.59835025332533
 6 -4.38171787788779 -0.82029185118512  0.76081410461046
 6 -2.92272127752775 -0.47715714141414  1.17490784498450
 6 -3.05139857825783  1.03097576587659  1.54868559925993
 6 -4.37674466936694  1.46809755855586  1.09549657955796
 6 -2.83988907100710  1.30291257935794  3.16200760966097
 6 -1.93953741474147 -0.76077133853385 -0.07554359605961
 6 -0.48072549514952 -0.56620096729673  0.40253438273827
 6  0.58949008620862 -0.80679419231923 -0.63022840334033
 8  0.30646188628863 -1.17689309690969 -1.70600693239324
 8  1.83712552305231 -0.51565896229623 -0.03680046894689
 7 -7.16622707060706  2.62511810161016  0.15116381188119
 6 -6.05159443844384  3.37248822462246  0.66172970657066
 6 -6.37598485158516  4.81999628902890  0.67943863106311
 6 -7.67108981598160  4.92986361786179  0.26643503480348
 6 -8.17550182178218  3.52763195849585 -0.05327278097810
 6 -5.41254921162116  5.91040350625063  1.04351911241124
 6 -8.55510330793079  6.01396242994299  0.15978296369637
 6 -8.56293018431843  7.09063518211821  0.85369161896190
 7 -9.12725499809981  0.65285814691469 -0.42059609330933
 6 -9.86953321302130  1.79269922302230 -0.63923024712471
 6 -11.25886498309831  1.46138447754775 -1.04959667916792
 6 -11.33251565546555  0.16333169726973 -1.11332004600460
 6 -9.97268294899490 -0.40436241054105 -0.77765278137814
 6 -12.15673449714972  2.54575514651465 -1.29562633743374
 6 -12.51237578387839 -0.71289869997000 -1.53687449594959
 6 -12.44990247864786 -1.09155156635664 -3.01424654325433
 7 -7.32016148444845 -1.40856046964696 -0.16348102510251
 6 -8.23096333613361 -2.27962313441344 -0.62416737193719
 6 -7.85805195079508 -3.67746601410141 -0.52370964826483
 6 -6.53137702180218 -3.59856419341934 -0.08007973987399
 6 -6.26968956535654 -2.15489377067707  0.04778758295830
 6 -8.70637810521052 -4.84340718311831 -0.93067154555456
 6 -5.32038650895089 -4.40049393289329  0.07530040264026
 8 -5.06660549844984 -5.57882236563656 -0.00442341164116
 6 -4.24939851925193 -3.31821761156116  0.57404727002700
 6 -3.62639327022702 -3.57999322062206  1.89587996089609
 8 -3.85105670627063 -2.97490422662266  2.93039572067207
 8 -2.73993518721872 -4.65533025542554  1.86009459035904
 6 -2.31928251615162 -5.29547377647765  3.06817175267527
 6  2.91805431713171 -0.68818661326133 -1.19984118451845
 6  4.19024111311131 -0.44895307160716 -0.49878002700270
 6  5.09600308470847  0.41315758115812 -0.81548132083208
 6  5.11109953295330  1.25674832413241 -2.05114928022802
 6  6.44534886768677  0.61019286948695 -0.13203968916892
 6  7.65326286418642 -0.09905025192519 -0.86664361486149
 6  8.98944081668167 -0.00096522692269 -0.20611242404240
 6  10.22226285078508 -0.42587965966597 -0.87125809630963
 6  10.06253295349535 -1.88323926002600 -1.27078054305431
 6  11.56453933083308 -0.19172295309531 -0.02282141354135
 6  12.78299320702070 -0.52722677377738 -0.79610963386339
 6  13.94658412681268 -0.23818502130213  0.16522358985899
 6  15.39869599449945 -0.34180790989099 -0.40514875467547
 6  15.65633730263026 -1.78145577937794 -0.76053567126713
 6  16.48469257515752  0.26768112811281  0.55044955215522
 6  17.81456604600460  0.43402480088009 -0.11852766736674
 6  18.83080344984499  1.22016023302330  0.79606003900390
 6  20.34158282748275  1.44368470197020  0.11135589878988
 6  20.38761011481148  2.28850714791479 -1.08510950365037
 6  21.20935186598660  2.08907184348435  1.17536289968997
 1 -4.17586907140714  3.52794831623162  1.44355894279428
 1 -10.11901229392939  3.87821865686569 -0.65674106560656
 1 -10.33587687708771 -2.50926026682668 -1.27876452865287
 1 -2.46712316921692 -0.90713902780278  2.09724041524152
 1 -2.14208781398140  1.81780536313631  1.25601625202520
 1 -2.05590004750475  0.50589104200420  3.29536324982498
 1 -2.58073313331333  2.49918397589759  3.29101126652665
 1 -3.86598004070407  0.94319900390039  3.54149656245625
 1 -1.91974445934593 -1.79560952135214 -0.51602551175118
 1 -2.05215688818882 -0.08581133073307 -0.76832687228723
 1 -0.26174969236924  0.45732034593459  0.85469586868687
 1 -0.29287708970897 -1.20855537073707  1.18867282248225
 1 -5.62261103650365  6.82018066216622  0.52879858905891
 1 -5.15831282068207  6.12649601270127  2.15923222032203
 1 -4.39649360536054  5.71496266266627  0.67672084768477
 1 -9.40568262076208  5.82683883198320 -0.68653888208821
 1 -9.19277049294930  7.88703944284428  0.60768038983898
 1 -7.99212867866787  7.17541394089409  1.84738312381238
 1 -11.89958406350635  3.31190151615162 -1.96104910961096
 1 -13.29506917611761  2.19088297949795 -1.26912810431043
 1 -12.26521825292529  3.05419407410741 -0.42950419441944
 1 -12.69978475687569 -1.48605805090509 -0.79789474437444
 1 -13.40501922082208 -0.23300003680368 -1.19864539203920
 1 -13.34051040364036 -1.58641332753275 -3.46731661616162
 1 -12.23008657285729 -0.16430096769677 -3.68840233593359
 1 -11.56944322362236 -1.82361722882288 -3.36469508950895
 1 -8.91167077007701 -4.66429717261726 -1.91200446454645
 1 -7.98579794459446 -5.74460446464646 -0.99145875887589
 1 -9.43952383728373 -5.02842786408641 -0.24138596119612
 1 -3.36886758265827 -3.35907915861586 -0.26522179367937
 1 -1.74734290079008 -4.46483292299230  3.63088600390039
 1 -3.36022563116312 -5.52850446804681  3.40930376927693
 1 -1.75764387588759 -6.24663393659366  2.90761471437144
 1  2.68155745984599 -1.87591942784278 -1.50186415141514
 1  2.63348082568257 -0.00118583898390 -1.90376352855286
 1  4.31514241984198 -1.04840705590559  0.61181439743974
 1  4.08099706320632  1.64383309370937 -2.26930530023002
 1  5.56680209190919  2.21310156905691 -1.82571904010401
 1  5.54005131273127  0.71219232673267 -2.86784551555156
 1  6.87699976287629  1.64666866686669  0.00399304210421
 1  6.40501462086209 -0.05624366176618  0.81986170287029
 1  7.32946033073307 -1.04707394259426 -1.18133945754575
 1  7.96622905880588  0.37820102820282 -1.90045296889689
 1  9.20853290489049  0.92259014401440  0.25311294349435
 1  9.18567705640564 -0.74717022322232  0.78705656935694
 1  10.11163871527153  0.10112264996500 -1.78188307780778
 1  9.11808679417942 -2.01475945244525 -1.95407133193319
 1  10.96849940564056 -2.26167295119512 -1.93069731363136
 1  9.87660054605461 -2.48205014701470 -0.51595103480348
 1  11.63361104200420  0.80190242044204  0.45028651615162
 1  11.46423947734774 -0.90136609790979  0.85494611621162
 1  12.98523184208421 -1.32310047124713 -1.33620128772877
 1  12.79836358885889  0.19361005200520 -1.71804516581658
 1  14.00604204090409  0.81988454445445  0.38441578457846
 1  13.62684543764376 -0.93521312601260  0.97292380888089
 1  15.48842213071307  0.21334081908191 -1.33961831983198
 1  15.44609205210521 -2.65637592969297 -0.04988644254425
 1  15.03473652435244 -2.03659603520352 -1.71285870097010
 1  16.66756638603860 -1.90480600550055 -1.20363183268327
 1  16.15713091379138  1.15536337003700  0.82388893319332
 1  16.70498494569457 -0.26527570267027  1.50625338653865
 1  18.42529346804680 -0.34238078547855 -0.28140148054805
 1  17.80760782528253  0.99310662956296 -0.88801237703770
 1  18.29905069766977  2.12448660636064  0.89437744304430
 1  18.78461562186219  0.88906308730873  1.70665066536654
 1  20.55963087578758  0.49193534173417 -0.14258719471947
 1  19.90560466706670  3.37712127402740 -0.80666425982598
 1  21.38831308340834  2.33015966876688 -1.35989735303530
 1  19.90470437483749  1.76825863666367 -1.93924089308931
 1  21.47863383858386  1.64616272537254  2.21194081128113
 1  22.21377308360836  2.32501373107311  0.77159212551255
 1  20.95656538643864  3.14793487678768  1.27415785628563

