%nproc=4
%Mem=2GB
# td=(NStates=1) CAM-B3LYP/6-31G(d,p) 

TD

0 1
12 -7.05815638863886  0.58072682078208  0.05553324072407
 6 -4.97199181718172 -2.05658683708371  0.69290582328233
 6 -4.72466239513951  2.79363781108111  1.23641000590059
 6 -9.29918465396540  3.14398989448945 -0.50151301100110
 6 -9.52668298199820 -1.71406691769177 -0.89346577567757
 7 -5.16178960356036  0.38162798089809  0.76160657895790
 6 -4.44319402550255 -0.80916073807381  0.97008503170317
 6 -2.91100010541054 -0.44728415411541  1.27485783998400
 6 -2.97512095049505  1.00217288558856  1.75363609430943
 6 -4.37629462436244  1.44876562536254  1.24116114601460
 6 -2.75560064216422  1.11972426052605  3.31109251815182
 6 -1.94125758675868 -0.64856011741174  0.13518747704770
 6 -0.47255467806781 -0.42420676787679  0.48880300960096
 6  0.51981311851185 -0.49336284918492 -0.61881726222622
 8  0.23272451255125 -1.00907631523152 -1.73430976267627
 8  1.66323813431343 -0.32610000640064 -0.30057684658466
 7 -7.00428087598760  2.62815840564056  0.30825952145215
 6 -5.92711199019902  3.39342031783178  0.78635216881688
 6 -6.25256250935093  4.77621191059106  0.73633432063206
 6 -7.58415112211221  4.82733336483648  0.27535592689269
 6 -8.06956122772277  3.44647384268427  0.00685323162316
 6 -5.28569652635263  5.76479894579458  1.05343010351035
 6 -8.41371916951695  6.00672170587059  0.10975796119612
 6 -8.21507539883988  7.18852497109711  0.78203445324532
 7 -9.13541581418142  0.75807866896690 -0.59360339403940
 6 -9.87523378307831  1.81005095819582 -0.77685400950095
 6 -11.16721581818182  1.55961430053005 -1.22599431893189
 6 -11.16001840574057  0.12234759885989 -1.39494820882088
 6 -9.93309899059906 -0.32763473777378 -0.99730474657466
 6 -12.31012983668367  2.51107167816782 -1.29643641844184
 6 -12.32243678997900 -0.67390480058006 -1.78922973147315
 6 -12.21888937733773 -1.14780719191919 -3.25986110471047
 7 -7.21762123042304 -1.38048766236624 -0.12353703070307
 6 -8.27620786058606 -2.15862103420342 -0.58757371257126
 6 -7.93084923052305 -3.59650791829183 -0.54864214151415
 6 -6.59350323442344 -3.55935027202720  0.02086035413541
 6 -6.23001559795980 -2.24614289558956  0.23388619281928
 6 -8.56222368976898 -4.86080892329233 -0.90538901730173
 6 -5.44403887418742 -4.44058794229423  0.33985685828583
 8 -5.35214405230523 -5.58243272667267  0.28673570427043
 6 -4.25244882428243 -3.44482027182718  0.67395726102610
 6 -3.59709033993399 -3.76240146144614  2.05337571047105
 8 -3.82270387098710 -3.07158389458946  3.03547622872287
 8 -2.80946213991399 -4.79435415781578  1.86328490939094
 6 -2.23217380528053 -5.47690191929193  3.06688162366237
 6  2.73659617131713 -0.53617141174117 -1.28237943834383
 6  4.17429951895190 -0.42682085838584 -0.61808195719572
 6  5.15132861726173  0.22725899129913 -1.02667243994399
 6  5.07484590759076  1.14048669796980 -2.33363752905291
 6  6.47211154395440  0.43376522672267 -0.32208869406941
 6  7.66640417831783 -0.07662800970097 -1.13852080258026
 6  8.93633550615061 -0.02161729212921 -0.26728854165417
 6  10.15248587308731 -0.59196626832683 -1.03353432393239
 6  10.05865256545654 -1.96831776787679 -1.44840830583058
 6  11.39753263016302 -0.30180396119612 -0.09822895429543
 6  12.78444335203520 -0.58666271737174 -0.76143616651665
 6  13.83915338373837 -0.20338154095410  0.22840990849085
 6  15.31127725262526 -0.16043977307731 -0.45597383718372
 6  15.71069273817382 -1.67087472127213 -0.85996561426143
 6  16.28750285618562  0.52519687968797  0.43176768396840
 6  17.77475206460646  0.59654105250525 -0.10801661626163
 6  18.71973234273428  1.37813603060306  0.83346377937794
 6  20.24266293549355  1.42963329682968  0.25590035323532
 6  20.24539589338934  2.31265956315632 -1.03619461216122
 6  21.08946987778778  2.06574951125113  1.39472483588359
 1 -4.19129061356136  3.50228574997500  1.79359394629463
 1 -10.03726411911191  3.95899673467347 -0.64054944644464
 1 -10.27532082148215 -2.42214155495550 -1.26917356955696
 1 -2.43376983388339 -1.12970128402840  2.09096978817882
 1 -2.17961156635664  1.58675225782578  1.15005565596560
 1 -1.85350980848085  1.02677313021302  3.85568928242824
 1 -3.08700376037604  2.08926298379838  3.71348351375138
 1 -3.43043648634863  0.46459114311431  3.86519893269327
 1 -1.96550903580358 -1.56444640504050 -0.43790769997000
 1 -2.19783145564556  0.08397564796480 -0.60426046564656
 1 -0.55607912531253  0.52316693059306  0.65773617271727
 1 -0.04546234823482 -0.95280979617962  1.49403335853585
 1 -5.59177795319532  6.68930757485749  0.58405411461146
 1 -5.32816980638064  6.00778414151415  2.18640493759376
 1 -4.28303225922592  5.47808897529753  0.92173534913491
 1 -9.22379443194320  5.93134928302830 -0.40235046324632
 1 -8.81923313921392  8.02052279117912  0.38350797259726
 1 -7.33680314611461  7.16783318281828  1.67534592009201
 1 -11.97987209230923  3.29375970197020 -2.06905991069107
 1 -13.27943761296130  2.15542943414341 -1.56467765926593
 1 -12.39043077417742  3.00164881958196 -0.18830007400740
 1 -12.27717249564957 -1.54542398749875 -1.15140009490949
 1 -13.22859157805781 -0.25363210001000 -1.58002352985298
 1 -13.11628798139814 -1.70410509670967 -3.71698158265827
 1 -11.87580114431443 -0.34709924752475 -3.95141863756376
 1 -11.22233851315132 -1.99579444654465 -3.35165378537854
 1 -8.91264086708671 -4.88556929982998 -2.12246551065107
 1 -8.07762712751275 -5.65572557675767 -0.54274388738874
 1 -9.49329921482148 -4.67299232053205 -0.44959678227823
 1 -3.32361305720572 -3.45850910161016 -0.01165643714371
 1 -1.39541770827083 -4.92712915261526  3.44395731103110
 1 -3.12580218881888 -5.59926154375438  3.82228506740674
 1 -1.79323743524352 -6.33368264146415  2.64746869976998
 1  2.38412771687169 -1.58412024792479 -1.61041500650065
 1  2.62197967556756  0.21092537213721 -2.10414356655666
 1  4.32444334993499 -0.94319653485349  0.43064628062806
 1  4.17441640514051  1.07669638003800 -2.79852822252225
 1  5.55045045674567  2.14249450835084 -2.00514698289829
 1  5.66307361496150  0.74290539803980 -3.08645737673767
 1  6.65098716161616  1.40732473247325  0.08349099189919
 1  6.48458257765777 -0.24504254165417  0.53566328302830
 1  7.45203258795880 -1.19014825002500 -1.56480780438044
 1  7.54971740764076  0.50581378947895 -1.99108203180318
 1  9.05849790139014  1.21871975697570  0.02196982918292
 1  8.88513700240024 -0.65894140034003  0.66953481718172
 1  10.18294584598460  0.04590712841284 -1.90586547604761
 1  9.06637162266227 -2.05335331183118 -1.84667059185919
 1  10.87474002970297 -2.38001478537854 -2.17676192009201
 1  10.21338422442244 -2.81254319631963 -0.60662010171017
 1  11.36026370727073  0.62560479067907  0.29771125862586
 1  11.23674672807281 -1.06825278657866  0.81843246484648
 1  12.85643896279628 -1.72167032823282 -1.10091775937594
 1  12.87978173067307 -0.03513282228223 -1.67971133243324
 1  13.79017045374538  0.70180273627363  0.68697604060406
 1  13.66541929502950 -1.18509811451145  0.81626814331433
 1  15.05657894639464  0.45089457445745 -1.41017537553755
 1  15.86193363626363 -2.11878217031703  0.15096364246425
 1  15.05364841554155 -2.21336371197120 -1.59441685678568
 1  16.72313194259426 -1.60392591749175 -1.12007347684768
 1  15.86918211891189  1.55952378607861  0.71659820412041
 1  16.18065251245124 -0.07953712881288  1.34357711891189
 1  18.24110504920492 -0.38849539693969 -0.27841118151815
 1  17.79495656015602  1.09318663756376 -1.05508908470847
 1  18.25492628522852  2.32508666636664  1.15294329962996
 1  18.80483764406441  0.77972215321532  1.82119211951195
 1  20.48407332003200  0.47987413561356 -0.02470540654065
 1  19.77135124172417  3.24700826272627 -0.88001159455946
 1  21.13356760886089  2.60354700750075 -1.44822618591859
 1  19.73373727812782  1.75687749854985 -1.89448641764176
 1  21.01541751695169  1.39494760386039  2.27385700290029
 1  22.10613231953195  1.98866009570957  1.05369033533353
 1  20.76332606250625  3.09770985428543  1.75193563406341

