%nproc=4
%Mem=2GB
# td=(NStates=1) CAM-B3LYP/6-31G(d,p) 

TD

0 1
12 -7.18669924292429  0.66819556765677  0.10635832323232
 6 -4.84839945794579 -1.90886206460646  0.58859539223922
 6 -4.79570949984999  2.90648909620962  1.12480884578458
 6 -9.47604233973397  3.03945944144414 -0.37562042174217
 6 -9.49504981868187 -1.77286279727973 -0.90218664776478
 7 -5.08226165076508  0.45203502160216  0.71017143544354
 6 -4.28347805390539 -0.69867968996900  0.94866288948895
 6 -2.88424743014301 -0.37183660936094  1.31912226642664
 6 -2.95034847324732  1.10692336063606  1.61685241594159
 6 -4.43320031493149  1.58077882668267  1.17523455335534
 6 -3.00561564366437  1.37659994809481  3.15571698059806
 6 -1.97612107310731 -0.53733899529953  0.10503446174617
 6 -0.38097552015202 -0.39741408860886  0.41812594189419
 6  0.49852098929893 -0.65406891979198 -0.64734011451145
 8  0.16753799389939 -1.08329373697370 -1.74347067876788
 8  1.75800761126113 -0.35411280768077 -0.27078386728673
 7 -7.08383883178318  2.62305789558956  0.31591028652865
 6 -6.07985726472647  3.40912188798880  0.72734626822682
 6 -6.47840509360936  4.81490577997800  0.75900658785879
 6 -7.68279098609861  4.77238787028703  0.21803019431943
 6 -8.20337460906091  3.41749094439444  0.00928347464746
 6 -5.55818377507751  6.02733519941994  1.21573633413341
 6 -8.62347014461446  5.95916695039504  0.05478246364636
 6 -8.65026891819182  7.06566268486849  0.85981223102310
 7 -9.09082135473547  0.69841270237024 -0.57406143984398
 6 -9.88209446914691  1.83582353545355 -0.70249657375738
 6 -11.19443854045404  1.44371271037104 -1.14316603610361
 6 -11.22291469536954  0.10086545064506 -1.28601731573157
 6 -9.90704638533853 -0.41147312161216 -0.83289830593059
 6 -12.31065988968897  2.42878344934493 -1.40898767356736
 6 -12.33872841914191 -0.87210462056206 -1.56226703520352
 6 -12.31489897829783 -1.23267567876788 -3.09348446704670
 7 -7.22523199149915 -1.34600421402140 -0.05786046304630
 6 -8.17873811361136 -2.24931010311031 -0.52467742294229
 6 -7.81124727032703 -3.57286555405541 -0.41375865316532
 6 -6.46663054715472 -3.53857819481948 -0.09493122502250
 6 -6.15786838323832 -2.09752803410341  0.26480928512851
 6 -8.48058552595259 -4.89109195159516 -0.74938341674167
 6 -5.28352282258226 -4.31390527402740  0.16916978957896
 8 -5.06909574747475 -5.49842432583258  0.11948897959796
 6 -4.14462804220422 -3.33005879567957  0.48762862816282
 6 -3.56246687758776 -3.68694391569157  1.90018039093909
 8 -3.61749334993499 -3.09099583578358  2.93591627272727
 8 -2.66046724042404 -4.77704242664266  1.73980256115612
 6 -2.01106169406941 -5.20824505360536  2.99329426492649
 6  2.78750126182618 -0.58959675427543 -1.25433663406341
 6  4.15066715571557 -0.29365754205421 -0.64471462046205
 6  5.20620410481048  0.37519378477848 -1.01888166086609
 6  5.00943936693669  1.23656630593059 -2.36084024932493
 6  6.49511384418442  0.50492234243424 -0.28406489168917
 6  7.58298583648365 -0.22610295719572 -1.02149910041004
 6  8.87498937153715 -0.18159328972897 -0.24415622842284
 6  10.13764438893889 -0.50124719641964 -0.97072804330433
 6  9.96109280948095 -1.93014395049505 -1.55533899889989
 6  11.42320519741974 -0.43752753355336  0.01888275687569
 6  12.80306521422142 -0.60731478257826 -0.66017604050405
 6  13.96058552695269 -0.33803500630063  0.18256532403240
 6  15.39316544144415 -0.27418114721472 -0.45818405820582
 6  15.72817448634864 -1.76327396119612 -0.97543716141614
 6  16.42559666556656  0.20406476647665  0.48295280248025
 6  17.79519410881088  0.51698309670967 -0.04056987158716
 6  18.65544591409141  1.29614783178318  0.78009844284428
 6  20.20122879207921  1.36647698119812  0.33642840604060
 6  20.40076142994300  2.21063936113611 -0.88781977467747
 6  21.09180011081108  1.96414935123512  1.45861122452245
 1 -4.12361384588459  3.58454397579758  1.54822940984098
 1 -10.31440183288329  3.84603543854385 -0.47196258775878
 1 -10.28053134253425 -2.54232357315732 -1.20869752195219
 1 -2.53622007890789 -0.88897721162116  2.15245593679368
 1 -2.22602620782078  1.82135571817182  0.92519316971697
 1 -2.01659611711171  0.95027548044804  3.60497421092109
 1 -3.03107816781678  2.45727978547855  3.36444861026103
 1 -3.95294873757376  0.78732341634163  3.56408882168217
 1 -1.96808929382938 -1.63808376877688 -0.45926983618362
 1 -2.39446111861186  0.11924917531753 -0.80724076367637
 1 -0.31149466686669  0.70854546844684  0.65810620972097
 1 -0.18304610661066 -1.05616013121312  1.31499545474547
 1 -6.14257303270327  6.87804644874487  0.77018272747275
 1 -5.70770776017602  6.07799116221622  2.29817611471147
 1 -4.49207316331633  5.90343150955095  1.01973514911491
 1 -9.08421047354735  5.98880502860286 -0.84629485768577
 1 -9.15842705860586  7.93568430733073  0.55292491429143
 1 -7.83935340114011  7.31345774527453  1.73156154165416
 1 -12.25853995909591  3.12850317631763 -2.13759676437644
 1 -13.37356702590259  1.69542343354335 -1.62709390089009
 1 -12.64723645474548  3.02168082278228 -0.37762900690069
 1 -12.37494227262726 -1.85676512161216 -1.07361231613161
 1 -13.22261097999800 -0.36173291009101 -1.15312083958396
 1 -13.05531188378838 -1.77760244644464 -3.40995087958796
 1 -12.27108067226723 -0.33818835643564 -3.59653314901490
 1 -11.39065534483448 -1.81788665576558 -3.27709632963296
 1 -8.90987059005901 -4.81787253015302 -1.88706197029703
 1 -7.91893125792579 -5.72804280848085 -0.81529114211421
 1 -9.42763264816482 -4.83272829412941 -0.04281610421042
 1 -3.30990168606861 -3.40598384908491 -0.16703197469747
 1 -1.59274744124412 -4.25519195889589  3.45773868916892
 1 -2.71968157675767 -5.69871148874888  3.75974881378138
 1 -1.26194430593059 -5.99001827502750  2.60491444434443
 1  2.82313161726173 -1.78635047094709 -1.46627059205921
 1  2.65771324892489 -0.15321104150415 -2.21475462766277
 1  4.40009091469147 -0.87220943614361  0.28689190519052
 1  3.89010797429743  1.27208591899190 -2.61549991969197
 1  5.28275368706871  2.29123938283828 -2.16604307250725
 1  5.76414372197220  0.83912502000200 -3.12293102410241
 1  6.76932899579958  1.70244424442444 -0.17681503870387
 1  6.26938105750575  0.07068903150315  0.62010172687269
 1  7.24626201090109 -1.21494072927293 -1.19084040764076
 1  7.70407284318432  0.55701890999100 -1.89967289088909
 1  8.97022907450745  0.82331021602160  0.21528916111611
 1  8.72680116881688 -1.05926143234323  0.62873073677368
 1  10.12028958035804  0.06929946764676 -1.98131302080208
 1  9.30666565206521 -2.05486346284628 -2.25173109790979
 1  10.70720327602760 -2.29200598449845 -2.39867411131113
 1  9.93773665966597 -2.80731267326733 -0.80268970867087
 1  11.48708638953895  0.58481071127113  0.33972546004600
 1  11.36326938033803 -1.28175413671367  0.83039366096610
 1  12.69491281018102 -1.62776093729373 -1.03870153775377
 1  12.81217496999700  0.10302099309931 -1.40106346764676
 1  13.80294173087309  0.61833438943894  0.70130747374737
 1  13.84002675577558 -1.12127173187319  0.93057957445745
 1  15.30384367286729  0.44654413941394 -1.36568092609261
 1  15.79211665456546 -2.39951024312431 -0.07209866376638
 1  15.04988803950395 -2.07358973457346 -1.70085750085008
 1  16.72969259865987 -1.95273079797980 -1.19306077557756
 1  16.00485568626863  1.35192302600260  0.70836738103810
 1  16.27284173137313 -0.33557273237324  1.40412317351735
 1  18.33746468516852 -0.32224877227723 -0.37350069046905
 1  17.46395345984599  1.13913123202320 -0.98821239703970
 1  18.27704849744974  2.33346750445044  0.92840084538454
 1  18.63818097839784  0.78682286328633  1.78551855215522
 1  20.46657156985698  0.34162031023102  0.07283434743474
 1  20.21558566516651  3.31273483538354 -0.81054464786479
 1  21.51631588368837  2.04392104490449 -1.42139350265027
 1  19.77035093949395  1.80580239103910 -1.81986895589559
 1  21.12878885408541  1.55942405150515  2.43043266046605
 1  22.19222092839284  1.68855008470847  1.19640460676068
 1  20.91062079197920  3.13238332163216  1.51685212571257

