%nproc=4
%Mem=2GB
# td=(NStates=1) CAM-B3LYP/6-31G(d,p) 

TD

0 1
<<<<<<< HEAD
12 -7.17389796279628  0.63641238933893  0.11931961936194
 6 -4.90522514051405 -1.94880605900590  0.45446197889789
 6 -4.91350127902790  2.80496894419442  1.24271063596360
 6 -9.41960669616962  3.11613710921092 -0.40954381408141
 6 -9.55418573227323 -1.77469298029803 -0.85139156825683
 7 -5.11693511811181  0.38668848694869  0.72637305560556
 6 -4.34668437453745 -0.72142196419642  0.80220824402440
 6 -2.97388639403940 -0.40065949164916  1.28626898109811
 6 -3.07484092249225  0.95566823512351  1.67208793949395
 6 -4.46378337323732  1.44153490229023  1.13470049995000
 6 -2.99302438453845  1.17703999209921  3.23558496739674
 6 -1.94863832483248 -0.61886714811481  0.05507946624662
 6 -0.41346876947695 -0.50017436463646  0.56268039733973
 6  0.56980811801180 -0.70031354425443 -0.61264664516452
 8  0.30507174727473 -1.02563797139714 -1.73674000570057
 8  1.83407521802180 -0.34491188758876 -0.16030281918192
 7 -7.13709415731573  2.61466705650565  0.30281897739774
 6 -6.13845312431243  3.36457743354335  0.71716525012501
 6 -6.44615186828683  4.81444573397340  0.78052874007401
 6 -7.72648535553555  4.87275790729073  0.32437082838284
 6 -8.15164943654366  3.52968216351635 -0.00048750245024
 6 -5.46948490519052  5.89600206610661  1.15320008050805
 6 -8.53758155575557  6.13060409410941  0.06797378277828
 6 -8.47897178847885  7.20513663226323  0.87271352115212
 7 -9.20200247284729  0.63445630673067 -0.37620165386539
 6 -9.85209146884688  1.78276822992299 -0.64534085818582
 6 -11.12064116071607  1.47426576567657 -1.12779449894990
 6 -11.25317772167217  0.07166253035304 -1.28370708470847
 6 -9.98783446414641 -0.37654962926293 -0.82861787788779
 6 -12.21044986868687  2.52034260526053 -1.53143991879188
 6 -12.40150469676968 -0.81387879797980 -1.63824463296330
 6 -12.41137862626263 -1.17192960416042 -3.19555467406741
 7 -7.24242371067107 -1.38061767536754 -0.23894857185719
 6 -8.28905914571457 -2.29358453055306 -0.56787174237424
 6 -7.88030417601760 -3.62770103760376 -0.44463174047405
 6 -6.50728461256126 -3.53438777577758 -0.11132286418642
 6 -6.24302689908991 -2.16631491279128  0.08899170337034
 6 -8.70243771117112 -4.81288413081308 -0.62216069446945
 6 -5.34244871517152 -4.40317420092009  0.17916078867887
 8 -5.18717755565557 -5.57557204060406  0.11135816651665
 6 -4.19738331773177 -3.31256704650465  0.51370123542354
 6 -3.51978260916092 -3.69416463776378  1.84611498439844
 8 -3.81329292989299 -3.09134587078708  2.78971165226523
 8 -2.65121631533153 -4.69610433283328  1.72178075897590
 6 -2.08016860476048 -5.15377960706071  2.94792972847285
 6  2.86594910661066 -0.52415020962096 -1.25300650105011
 6  4.09956204520452 -0.42945112141214 -0.55343549254926
 6  5.12558604300430  0.34414067946795 -0.97795756845685
 6  5.14297272027203  1.19723237253725 -2.28107227252725
 6  6.46865119791979  0.51502335253525 -0.23877036223622
 6  7.64108164606461 -0.14273462036204 -0.98577552805281
 6  8.90648252085209 -0.07116224662466 -0.17067888068807
 6  10.22810343484348 -0.66752382408241 -0.87206817731773
 6  10.19696639683968 -2.06463739983998 -1.32461592659266
 6  11.32954583148315 -0.25774955575558  0.08454932353235
 6  12.70613552125212 -0.36049010011001 -0.63855387828783
 6  13.96107557595760  0.00297909510951  0.22877994549455
 6  15.34185030993099 -0.23778750785079 -0.41153939373937
 6  15.78795046394639 -1.74570220402040 -0.73762338003800
 6  16.44740884678468  0.32882724272427  0.46702120932093
 6  17.98420300970097  0.38530992939294 -0.20526634123412
 6  18.84002437193719  1.30678889588959  0.74640507350735
 6  20.28918758795880  1.27522785628563  0.20526528972897
 6  20.36904825862586  2.16862515971597 -1.10870186288629
 6  21.30428135893590  2.08358129442944  1.15276063946395
 1 -4.38824030853085  3.39644516591659  1.57793238013801
 1 -10.28888928162816  3.83075391039104 -0.80839623112311
 1 -10.35152844224422 -2.45656499729973 -1.34076072827283
 1 -2.74319077597760 -1.04429274317432  2.08519921112111
 1 -2.38457206240624  1.62716629922992  1.35239588998900
 1 -2.09660411791179  0.74547500040004  3.81657537103710
 1 -3.23405846584658  2.27474153165317  3.68524068946895
 1 -3.85025846854685  0.75537022102210  3.59362177497750
 1 -1.98409089398940 -1.54100406080608 -0.62883679287929
 1 -2.10994266676668  0.17519476987699 -0.65851589118912
 1  0.01086756935694  0.37932254615462  1.22389278837884
 1 -0.21376917891789 -1.29231374657466  1.22822677787779
 1 -6.24858363376338  6.92543118721872  0.70698640784078
 1 -5.11228821822182  5.91660502360236  2.21548784588459
 1 -4.66799075507551  5.53777494389439  0.55982915851585
 1 -9.14181623412341  6.00510665876588 -0.93665389358936
 1 -8.76721793769377  8.17930866976698  0.64107372917292
 1 -7.79106857265727  7.01860826032603  1.74163254875488
 1 -11.87335144024402  3.15827615361536 -2.30432343704370
 1 -13.12715238443844  2.00196408760876 -1.98101929342934
 1 -12.44696642774277  3.00328898359836 -0.75109635363536
 1 -12.31930670907091 -1.74571401650165 -1.04328928382838
 1 -13.46705542444244 -0.69634637143714 -1.37767329482948
 1 -13.31393774637464 -1.84692937913791 -3.56461634613461
 1 -12.39376294049405 -0.32351688928893 -3.82105560126013
 1 -11.35021130043004 -1.52947781488149 -3.46686530653065
 1 -9.29367897089709 -4.75459620252025 -1.52383564766477
 1 -8.21797116191619 -5.54941494569457 -0.72625223822382
 1 -9.66991687658766 -4.90291531283128  0.08683686108611
 1 -3.51656235213521 -3.62880613131313 -0.30769604110411
 1 -1.39450761726173 -4.35775221492149  3.37744065936594
 1 -2.97170677927793 -5.26551816941694  3.80530336923692
 1 -1.72157026852685 -6.06648592179218  2.67159111201120
 1  2.65019432353235 -1.60010184608461 -1.63734769976998
 1  2.74456193379338  0.23714799439944 -2.06916006820682
 1  4.06312721832183 -1.08967118231823  0.27005022102210
 1  3.92421138463846  1.20439915031503 -2.41632000170017
 1  5.77074248594859  2.18227848674867 -2.17661412961296
 1  5.69193650125013  0.63591469896990 -2.95000373137314
 1  6.47822988588859  1.59386338633863  0.03430607340734
 1  6.35553967336734  0.06438840144014  0.77277699439944
 1  7.33422080678068 -1.22317155235524 -1.16093741734173
 1  7.85114755065507  0.32053526162616 -1.99977290089009
 1  9.10673272487249  0.89233711871187  0.03185081728173
 1  8.70929941864187 -0.70045555175518  0.74080194389439
 1  10.46196374777478 -0.00228769106911 -1.80712560206021
 1  9.54790977647765 -2.34762273877388 -2.03384930973097
 1  11.12359491519152 -2.51249803370337 -1.50440468436844
 1  10.11355424142414 -2.57189913191319 -0.29879931963196
 1  11.19888756965697  0.77996022622262  0.42157364486449
 1  11.38713176657666 -0.88102406370637  0.92139276087609
 1  12.89746306520652 -1.38777693889389 -1.02365003260326
 1  12.77048080058006  0.40524121512151 -1.56876023732373
 1  13.88153959065907  1.05732828882888  0.67831517451745
 1  13.92066481958196 -0.76679628432843  1.07321383788379
 1  15.30904419291929  0.22370185518552 -1.43413777177718
 1  15.94147159005901 -2.36489678177818  0.20520906700670
 1  15.13667671837184 -2.48060043564356 -1.35839325442544
 1  16.81208083748375 -1.60695622052205 -1.16556802630263
 1  16.27813301400140  1.20918875257526  0.80703724802480
 1  16.53087753495349 -0.28655783088309  1.36414917611761
 1  18.36364730343034 -0.58232477987799 -0.28440178057806
 1  17.92293935843584  0.87127444634463 -1.04291786758676
 1  18.41780257285729  2.40025418311831  0.64101210651065
 1  18.83900106040604  0.85257943894389  1.73011301160116
 1  20.67730264296430  0.20335648384839  0.11728879287929
 1  19.78280238683868  3.16914047594759 -0.77709130253025
 1  21.36807105920592  2.40989764256426 -1.52454381768177
 1  19.80471437583759  1.65683749454945 -1.82696966596660
 1  21.30769674487449  1.57120522962296  2.14638425562556
 1  22.31937364366437  2.10130135983598  0.73976894319432
 1  20.90750047994799  3.19816990029003  1.21869230973097
=======
12 -7.06009658265827  0.62047079517952  0.11462915031503
 6 -4.88483310131013 -1.86510768916892  0.60941747444744
 6 -4.83199312821282  2.86955540284028  1.27763412831283
 6 -9.29941467696770  3.07728322382238 -0.32040490019002
 6 -9.51502181588159 -1.70144565556556 -1.05256168526853
 7 -5.18446187078708  0.45046486458646  0.81719213751375
 6 -4.27115682178218 -0.64005382738274  0.89934795799580
 6 -2.90187919331933 -0.38487791349135  1.33665401960196
 6 -3.00861429982998  1.06548921722172  1.63879461016102
 6 -4.34113110801080  1.58198894769477  1.13030005990599
 6 -2.82198728082808  1.36363865196520  3.12220362926293
 6 -1.93219668066807 -0.57250251165117  0.18520247854785
 6 -0.53995141774177 -0.49436378357836  0.50397452675268
 6  0.38731986918692 -0.67145065796580 -0.73242862336234
 8  0.08549979007901 -1.04246965456546 -1.80096642834283
 8  1.74042585308531 -0.53011040744074 -0.33312010091009
 7 -7.11027147504751  2.66536212601260  0.42261095659566
 6 -6.06539581858186  3.33871484728473  0.78681221482148
 6 -6.36471372447245  4.78088237763776  0.74232491969197
 6 -7.63145585258526  4.91163179467947  0.46264465576558
 6 -8.09307357895790  3.53506270157016  0.10884343064306
 6 -5.37262521922192  5.86742920882088  1.07935269576958
 6 -8.52894069166917  6.06767780148015  0.11541852725273
 6 -8.42020591189119  7.13706982558256  0.84162041184118
 7 -8.99669194179418  0.66156901800180 -0.57682171587159
 6 -9.79792605230523  1.82520247334733 -0.59494581868187
 6 -11.13857295389539  1.43173151225123 -1.04545626512651
 6 -11.20444284818482  0.11617698179818 -1.34709342334233
 6 -9.77389307000700 -0.35418739303930 -1.06077109320932
 6 -12.27702652635264  2.43204377537754 -1.22937971277128
 6 -12.28939348564857 -0.79912732283228 -1.74915572407241
 6 -12.10988847724773 -1.22037444864486 -3.30380549914991
 7 -7.15414488278828 -1.37132674627463 -0.34354903190319
 6 -8.22177241704170 -2.24353952605261 -0.73394835003500
 6 -7.75793193879388 -3.64340260776078 -0.49087636493649
 6 -6.41489537363736 -3.53304764176418 -0.06629836173617
 6 -6.16183878027803 -2.13208148944894  0.08953175737574
 6 -8.54206167356736 -4.85538838123812 -0.96213469186919
 6 -5.23248771907191 -4.37857174067407  0.25676854945495
 8 -5.04116295419542 -5.54872935633563  0.39821685238524
 6 -4.14574815421542 -3.27772356215622  0.64052391769177
 6 -3.64309494039404 -3.62426764806481  2.06568694159416
 8 -4.03163476407641 -3.24035077127713  3.12049473057306
 8 -2.59013020672067 -4.45218994139414  1.79472805370537
 6 -2.11897248514851 -5.17573180228023  2.99449438493849
 6  2.74154666636664 -0.74381217581758 -1.42932413281328
 6  4.01444353335333 -0.52103027932793 -0.69933008200820
 6  5.05622910731073  0.22553881928193 -1.17627740044004
 6  5.08544696769677  1.06751940124012 -2.43638780408041
 6  6.31833616641664  0.32940479067907 -0.35024150935093
 6  7.63339087698770 -0.23383373027303 -1.03248019851985
 6  8.91736360896090 -0.33351848224822 -0.15259707250725
 6  10.19044966946695 -0.60593766546655 -0.84806577707771
 6  10.04383108330833 -2.12554349044904 -1.34556802180218
 6  11.38172104900490 -0.22579636043604  0.05639650825082
 6  12.75452035973597 -0.42469652075208 -0.66040606350635
 6  13.90477994639464 -0.13816501930193  0.20592766026603
 6  15.28731485638564 -0.09359308840884 -0.41970020982098
 6  15.50263193209321 -1.50835846964696 -1.06369598729873
 6  16.37330143604360  0.38647300730073  0.46373088028803
 6  17.75932052145214  0.50595199359936 -0.03772958755876
 6  18.71092146164617  1.21205942294229  0.86443687668767
 6  20.14714338353835  1.43652398589859  0.27088185138514
 6  20.18715006880688  2.26571486868687 -1.09117010971097
 6  21.06913784458446  2.02524546084608  1.41129649304930
 1 -4.05019650415041  3.77958347974797  1.55172975987599
 1 -10.05964635733573  3.66485732073207 -0.49346473797380
 1 -10.11914520392039 -2.69574891569157 -1.22750940314031
 1 -2.73379983688369 -1.10975928982898  2.24354504570457
 1 -2.19033263846385  1.72382596519652  1.10118076847685
 1 -1.88389284678468  0.77624807770777  3.61064477797780
 1 -2.90101516151615  2.32154621212121  3.48876104150415
 1 -3.68541198389839  0.77800248424842  3.53666607940794
 1 -2.02673515841584 -1.73676363676368 -0.22281619081908
 1 -2.27496916941694  0.26155340574057 -0.51964200380038
 1 -0.24095761316132  0.45957057095710  1.11532193129313
 1 -0.02383018501850 -1.37937245244524  1.24627858305831
 1 -6.14344311971197  6.80231887598760  0.71500720992099
 1 -5.09151614101410  5.90584394749475  2.33414971207121
 1 -4.42389634563456  5.91065223162316  0.39996317191719
 1 -9.17501955445545  5.93518966706671 -0.71633186138614
 1 -9.40305152105210  7.80370110901090  0.51719134093409
 1 -7.83206267206721  7.31351775127513  1.78891727722772
 1 -11.82969707480748  3.42648297429743 -1.74995800050005
 1 -13.02656232543254  1.75068896009601 -1.94659585108511
 1 -12.71154288538854  2.63630228492849 -0.13483472747275
 1 -12.20713549194920 -1.57491693679368 -1.10178513341334
 1 -13.15831455035504 -0.32582931973197 -1.76185171267127
 1 -13.05702205480548 -1.81202588878888 -3.40388027252725
 1 -12.01012457665767 -0.25137967556756 -3.81533502920292
 1 -11.26124240354035 -1.89278414551455 -3.25420404040404
 1 -8.95003460646065 -4.83469421232123 -1.77627089118912
 1 -7.97874723952395 -5.79310931513151 -0.77874748774877
 1 -9.73582346724672 -4.95923094439444 -0.46460828342834
 1 -3.27882857875788 -3.59261251195120 -0.06733200470047
 1 -1.51796996349635 -4.54913135283528  3.74451736703670
 1 -2.88603821242124 -5.70834245184519  3.68351119001900
 1 -1.52829094059406 -6.03008228142814  2.51116506940694
 1  2.86479578367837 -1.74616645254525 -1.85294925992599
 1  2.39814729232923 -0.07077279767977 -2.24750790299030
 1  4.17857876347635 -1.10461267646765  0.39880309630963
 1  4.01869083258326  1.18769748014802 -2.82656102580258
 1  5.28347375907591  2.14861512041204 -2.16515298349835
 1  5.60110741834183  0.63459456695670 -3.45196392739274
 1  6.46205826872687  1.27802180218022  0.13017566036604
 1  6.21055517491749 -0.53350138753875  0.40977069376938
 1  7.34169155385539 -1.29461869706971 -1.22642396599660
 1  7.82820525642564  0.26757996609661 -2.00844376797680
 1  8.89438148974897  0.63583146814681  0.37241487368737
 1  8.66598508720872 -1.06310181638164  0.70997886158616
 1  10.33005055645564  0.04988752645264 -1.80431532103210
 1  9.15011999749975 -2.34580255675568 -1.95311123592359
 1  10.99351190689069 -2.25867265116512 -1.97047129102910
 1  10.31623450945095 -2.85567750975097 -0.51185062476248
 1  11.18285596649665  0.96787901810181  0.25642713021302
 1  11.21720477387739 -0.72459842114211  0.99348997059706
 1  12.76005932483248 -1.46668482968297 -1.13388105570557
 1  12.71298505100510  0.26808749974998 -1.64156751805181
 1  13.75381681838184  1.02477503350335  0.44060140314031
 1  13.84125687878788 -0.65942554725473  1.31534805130513
 1  15.39769305780578  0.50616010101010 -1.29740409840984
 1  15.36169361226123 -2.35050534263426 -0.26693814771477
 1  14.77078012871287 -1.86028840444044 -1.80634804990499
 1  16.62984261366137 -1.55054057895790 -1.60265173467347
 1  16.03772897359736  1.48621645534553  0.92185873017302
 1  16.24100854805480 -0.23063223832383  1.39166192739274
 1  18.25425636433643 -0.44825137253725 -0.24728806920692
 1  17.48273533803381  1.02799011791179 -1.08522209800980
 1  18.21059185178518  2.10052421012101  0.99926793209321
 1  18.47468462876288  0.64579876087609  1.81981198149815
 1  20.55783069576958  0.31669781798180  0.00037710171017
 1  19.65450955755576  3.07327088898890 -0.78749234263426
 1  21.34937919001900  2.27675432823282 -1.16113747704770
 1  19.83574747914792  1.65438724952495 -1.96498346734673
 1  21.13241921712171  1.23229133823382  2.19173879107911
 1  22.07082878917892  2.23807503720372  1.00069503580358
 1  20.80218994889489  2.91641172447245  1.59804024452445
>>>>>>> 8e03b5b5abfc0030b3aa597dc0de36371bfbd096

