%nproc=4
%Mem=3GB
# td=(NStates=1) iop(3/107=0140000000,3/108=0140000000) CAM-B3LYP/6-31G(d,p) 

TD

0 1
12 -7.12172686438644  0.62366074957496  0.06565293529353
 6 -4.79990880738074 -1.97418464906491  0.40082548494849
 6 -4.82106813741374  2.85771448934893  0.96791689688969
 6 -9.46587335183518  3.10313786678668 -0.34054652995300
 6 -9.66196229422942 -1.68977074277428 -0.65932273717372
 7 -5.15100213141314  0.49464555515552  0.66351417541754
 6 -4.32539478677868 -0.72087323052305  0.77946584128413
 6 -2.97171339193919 -0.44802320032003  1.21770743984398
 6 -2.93522674957496  1.09592829442944  1.52801908120812
 6 -4.32923315801580  1.50518516961696  1.09096349024903
 6 -2.91834801560156  1.21744456375638  3.13726904150415
 6 -1.98255398509851 -0.58209419861986  0.06988079837984
 6 -0.46285199439944 -0.46238948694869  0.54379776207621
 6  0.53105502870287 -0.75337195909591 -0.60590038013801
 8  0.19533975077508 -0.94542832053205 -1.78382577567757
 8  1.77610620902090 -0.50292023042304 -0.20364575217522
 7 -7.11322896629663  2.65736894679468  0.22341326542654
 6 -6.05044518831883  3.37491125852585  0.74277015311531
 6 -6.41910681908191  4.74124098769877  0.73669192789279
 6 -7.70521530683068  4.85352715791579  0.41614774117412
 6 -8.15699522702270  3.56668360716072  0.05196319491949
 6 -5.43945597949795  5.90630010371037  1.04497465266527
 6 -8.66194620262026  6.01400166976698  0.36348696119612
 6 -8.41654006400640  7.28164731443144  0.80884494379438
 7 -9.07758679977998  0.67796479087909 -0.48048462236224
 6 -9.89949743604360  1.80288361266127 -0.60540335383538
 6 -11.16546049874988  1.51099054355436 -1.10616547624762
 6 -11.22783227042704  0.13861140694069 -1.24119414771477
 6 -9.90249785338534 -0.31271146454645 -0.93325552685269
 6 -12.24921585928593  2.57170241164116 -1.44139359205921
 6 -12.34032782568257 -0.68047417121712 -1.80047937853785
 6 -12.12853476237624 -1.36566675897590 -3.18403905510551
 7 -7.31888485088509 -1.37648248394839 -0.15935861096110
 6 -8.31924625092509 -2.19060760626063 -0.52101368126813
 6 -7.95733777357736 -3.59331988338834 -0.42843314311431
 6 -6.56785457595760 -3.51937491959196 -0.16410849254925
 6 -6.26942067376738 -2.23454140994099  0.13423525892589
 6 -8.77570991049105 -4.88488458685869 -0.80714409750975
 6 -5.47252271517152 -4.41302486588659  0.15320029412941
 8 -5.27849884218422 -5.63430028702870  0.01904785338534
 6 -4.26551105370537 -3.32641008840884  0.58598692029203
 6 -3.52567674447445 -3.74202214491449  1.85232120062006
 8 -3.70641342474247 -3.23612096999700  2.91717507570757
 8 -2.69181453425342 -4.71904052255226  1.77168620612061
 6 -2.04880383738374 -5.08992419831983  3.05019241964196
 6  2.74794111451145 -0.81482977187719 -1.17330084728473
 6  4.13517440264026 -0.52080734863486 -0.53921648444844
 6  5.06636212751275  0.32230875887589 -0.89557243424342
 6  5.01035476107611  1.11274895019502 -2.13869800480048
 6  6.35968224692469  0.35148576457646 -0.08592911731173
 6  7.69728118071807 -0.04678322632263 -0.91832216091609
 6  8.92999071067107  0.00881906580658 -0.06748285068507
 6  10.29306476707671 -0.44893655685569 -0.82035775577558
 6  10.16096937353735 -1.92742062196220 -1.33296026202620
 6  11.42452711651165 -0.21652654375438  0.00909294679468
 6  12.83433116861686 -0.39620965446545 -0.57046455155516
 6  13.99123039483948 -0.10516623092309  0.29923633523352
 6  15.32848883988399 -0.20220930453045 -0.40563621612161
 6  15.65919219021902 -1.57147553585359 -1.03055488178818
 6  16.52020901360136  0.30545706300630  0.44432916761676
 6  17.89522711041104  0.56583031263126 -0.28152467946795
 6  18.88845926452645  1.10678875737574  0.73373663036304
 6  20.31938474287429  1.32246167866787  0.16425313131313
 6  20.27727057285729  2.24757206230623 -1.08731342724272
 6  21.24813988098810  1.79235093499350  1.31991593159316
 1 -3.99996035953595  3.55259851125112  1.33400949674967
 1 -10.00449257255726  4.05048732323232 -0.42377690389039
 1 -10.31274569866987 -2.40165570067007 -1.17169498889889
 1 -2.59924721192119 -1.00469067176718  2.05482197289729
 1 -1.99583304960496  1.57943000410041  1.14141779077908
 1 -1.88646173257326  0.75978508490849  3.55116545394540
 1 -3.12907001610161  2.26042526532653  3.41624964716472
 1 -3.78122092259226  0.85875102940294  3.66489817501750
 1 -2.15993111211121 -1.43659433023302 -0.32622062916292
 1 -2.06430279927993  0.36494411421142 -0.64943167776778
 1 -0.19392482118212  0.53538312561256  0.99971383438344
 1 -0.19434785508551 -1.56641740834083  1.33047650595059
 1 -5.70351452915291  6.73648116011601  0.42627245854586
 1 -5.82368383968397  6.38450133153315  2.08808082058206
 1 -4.36599144374437  5.68769303730373  1.18926965956596
 1 -9.65917617741774  5.98897227922792 -0.07888924162416
 1 -9.06190525422542  8.03181290229023  0.79690946664666
 1 -7.29034696679668  7.54354119051905  1.25778473877388
 1 -11.83970444344434  3.11869101620162 -2.22643847534754
 1 -13.17798509620962  1.96305504790479 -1.30051577977798
 1 -12.36596762946295  3.26831416551655 -0.47658809830983
 1 -12.54236620152015 -1.51146206900690 -1.23005650655065
 1 -13.32974527362736  0.00134742424242 -2.05728148254826
 1 -12.83001820102010 -2.30270393249325 -3.38466942504250
 1 -12.02167257295729 -0.54887335863586 -3.86610558895890
 1 -10.96345118451845 -1.72669369656966 -3.14181245944594
 1 -9.01419603820382 -4.70945744654465 -1.92290835383538
 1 -8.19784416961696 -5.72658861216122 -0.65935589068907
 1 -9.74622880188019 -4.96915536393639  0.06308403970397
 1 -3.73975149364936 -3.50839744534453 -0.38396613471347
 1 -1.39979336693669 -4.27844005740574  3.48339005660566
 1 -2.75376181348135 -5.28074759965997  3.74054509220922
 1 -1.60769128962896 -6.06900768556856  2.95352871397140
 1  2.99614766956696 -1.88109473227323 -1.24968641734173
 1  2.54038047934793 -0.26998891409141 -2.02014307180718
 1  4.29712019871987 -1.32624103790379  0.18106950715072
 1  3.98598390989099  1.14776031873187 -2.46765725142514
 1  5.37686461866187  2.14385480938094 -2.30828826722672
 1  5.69886945544554  0.36133732463246 -2.87663392029203
 1  6.53401158505851  1.21824180478048  0.28453806770677
 1  6.37105497759776 -0.32184952165216  0.85073126862686
 1  7.47049917271727 -0.99191986498650 -1.40699545674567
 1  7.66318887738774  0.56735583858386 -1.80897172007201
 1  9.09568561286128  0.93602309980998  0.35220764886489
 1  8.84950807160716 -0.54069242194219  0.91057718111811
 1  10.17066169796980  0.17445359315932 -1.91293645164516
 1  9.45148475757576 -2.02707099059906 -2.13631201310131
 1  11.01889102970297 -2.39269266856686 -1.95304066216622
 1  10.11586378347835 -2.71009512421242 -0.53128052175218
 1  11.46561820342034  0.66023245664566  0.74017178797880
 1  11.44530212571257 -0.93628492609261  0.79881620172017
 1  12.91108906140614 -1.31911933123312 -0.85371764326433
 1  12.76934276417642  0.24376931293129 -1.52388672237224
 1  13.77891931223122  0.87793315661566  0.87573240194019
 1  13.97907621822182 -1.18925530443044  1.10252262626263
 1  15.31338173957396  0.36256965396540 -1.25770703950395
 1  15.83674747154715 -2.31896123732373 -0.23777191269127
 1  14.60692233663366 -1.89699421942194 -1.64608598209821
 1  16.35939421902190 -1.51541243824382 -1.96085259855986
 1  16.15247852135213  1.28672700640064  0.86487240354035
 1  16.62832691049105 -0.55407169196920  1.14594308900890
 1  18.27858459615961 -0.22192870687069 -0.67084728032803
 1  17.64975228482848  1.19664855895590 -1.21194693829383
 1  18.61471052795279  1.91175244324432  1.30712265906591
 1  18.80315627812782  0.40760560006001  1.63321656715672
 1  20.91835166746675  0.34297529512951 -0.16418052585259
 1  19.74676149464947  3.27560833733373 -1.04056624132413
 1  21.53488728952895  2.27273841594159 -1.24968294949495
 1  19.83356175377538  1.66168645884588 -2.03305168956896
 1  20.94262811631163  1.26500214111411  2.25090875967597
 1  22.23132102490249  1.72735320602060  1.02621927552755
 1  20.85842592109211  2.82175829302930  1.34646178287829

