%nproc=4
%Mem=2GB
# td=(NStates=1) CAM-B3LYP/6-31G(d,p) 

TD

0 1
12 -7.15613618661866  0.53300204830483  0.16639432683268
 6 -4.87203182118212 -2.04737591599160  0.58782531523152
 6 -4.78751868076808  2.82272071937194  0.99429579447945
 6 -9.44582931843184  3.13193868936894 -0.35450831053105
 6 -9.47499781348135 -1.64487999899990 -0.79343577267727
 7 -5.03376680128013  0.45580539863986  0.63482390069007
 6 -4.34725443154315 -0.75483530553055  0.80274829802980
 6 -2.91096010141014 -0.38404783048305  1.15740609480948
 6 -3.01557499589959  1.14530719901990  1.62007273797380
 6 -4.32858985388539  1.52432318111811  1.08584561446145
 6 -2.80742582468247  1.20843313141314  3.12237364626463
 6 -1.93780724172417 -0.75086034743474  0.07317127542754
 6 -0.53118054065407 -0.52212655985599  0.46628075737574
 6  0.54976611381138 -0.81558507140714 -0.63088846934693
 8  0.28635987608761 -1.19899530713071 -1.76342267396740
 8  1.77739955045505 -0.54984238063806 -0.20006679557956
 7 -7.06192664056406  2.62631822162216  0.27303599909991
 6 -6.00884016301630  3.34122509830983  0.66785031863186
 6 -6.31950920402040  4.77466175557556  0.75805649284929
 6 -7.71594430143014  4.92880351185118  0.39369776107611
 6 -8.13308758035804  3.43472266756676  0.02867541384138
 6 -5.38962691939194  5.85827829372937  1.05814057455746
 6 -8.57546534413441  6.14107514121412  0.21850883628363
 6 -8.41761565286529  7.30867698629863  0.93864011381138
 7 -9.12022429502950  0.67905076617662 -0.47491152485249
 6 -9.91198745844584  1.79965991909191 -0.66122244634463
 6 -11.22824192079208  1.53382172127213 -1.18832055155516
 6 -11.26336874077408  0.12775813991399 -1.25492420642064
 6 -9.88359404010401 -0.38714068836884 -0.90710572667267
 6 -12.30834965866587  2.46106667766777 -1.45382215701570
 6 -12.39963450975097 -0.75471288138814 -1.69705051355136
 6 -12.45433292169217 -1.00363277447745 -3.20137525612561
 7 -7.17748721702170 -1.41963157675768 -0.18455313231323
 6 -8.23301354115411 -2.18748392049205 -0.59633458865887
 6 -7.81480762636264 -3.54018228572857 -0.46028330563056
 6 -6.50403428752875 -3.58730306730673  0.00404867296730
 6 -6.20504310071007 -2.21253953525353  0.14218702290229
 6 -8.59086655405540 -4.86672951535154 -0.74974345274527
 6 -5.32082655295530 -4.40240412391239  0.27085995859586
 8 -5.26461529942994 -5.61167565096510  0.24454148484848
 6 -4.21374495389539 -3.36476226602660  0.59386925222522
 6 -3.60747137803780 -3.72352757405741  1.94867524042404
 8 -3.79232083268327 -3.18923565976598  2.99194187528753
 8 -2.70982217591759 -4.65375009740974  1.75126370727073
 6 -2.12919350725072 -5.20792502160216  2.96827176267627
 6  2.73707621932193 -0.84003179777978 -1.22603380378038
 6  4.07705979497950 -0.58936711301130 -0.57091724072407
 6  5.06349983438344  0.31814808020802 -0.87385715841584
 6  4.97753617661766  1.24294694399440 -2.10517468276828
 6  6.38959329212921  0.41395324552455 -0.24966145134513
 6  7.59995753365337 -0.08517886478648 -1.15189213971397
 6  8.92192406500650 -0.10438556895690 -0.34838665146515
 6  10.22632325682568 -0.48318539023902 -1.00639160966097
 6  10.13456015621562 -1.92995393149315 -1.58275174017402
 6  11.41995487238724 -0.32857663846385 -0.02803193459346
 6  12.83392830053005 -0.59274332543254 -0.70348037093709
 6  14.03629309770977 -0.03402460526053  0.17450451795180
 6  15.36654277917792 -0.16634036313631 -0.44669290909091
 6  15.75352702160216 -1.71504913871387 -0.65023464116412
 6  16.36765087098710  0.52406676667667  0.44083859105911
 6  17.82969755915591  0.50723212161216 -0.16623243784378
 6  18.76009637913791  1.40987920492049  0.69154958795880
 6  20.16456512571257  1.38213854735474  0.27048181138114
 6  20.43395474927493  2.22371066826683 -1.05319631233123
 6  21.05893682448245  2.01841477777778  1.50102546594659
 1 -4.01557304180418  3.51415693709371  1.44217880478048
 1 -10.01097148984898  3.89854068906891 -0.48738412991299
 1 -10.19926321572157 -2.33610295109511 -1.04986163836384
 1 -2.55088154505451 -0.93288160206021  2.07328802000200
 1 -2.22402600780078  1.78824240684068  1.07427807820782
 1 -1.94263872137214  0.80088054095410  3.46576028952895
 1 -2.95553061306131  2.26406046354635  3.58625079047905
 1 -3.66804024672467  0.79695437943794  3.71406381918192
 1 -2.37994047894789 -1.76790675107511 -0.08434234343434
 1 -2.23541521402140 -0.15577832743274 -0.69460950055006
 1 -0.42234575197520  0.56384099799980  0.97721812091209
 1 -0.25087288928893 -1.30055457065707  1.05974993019302
 1 -5.71559033443344  6.85182382648265  0.77245295449545
 1 -5.17332432183218  6.05652901600160  2.04307060416042
 1 -4.35423937993799  5.54149531593159  0.64565774137414
 1 -9.20967301980198  6.28413456155616 -0.53316354455446
 1 -9.02290350625062  8.13112385128513  0.48137775957596
 1 -7.70305977177718  7.72169856935693  1.66183456895690
 1 -12.31088519361936  3.08817914391439 -2.40926393109311
 1 -13.38220788998900  1.92056594779478 -1.51839303080308
 1 -12.47723945504551  3.18785744044404 -0.55930717471747
 1 -12.30282506090609 -1.50729017411741 -1.16874182908291
 1 -13.25971469036904 -0.19780651745175 -1.35269079657966
 1 -13.32528888148815 -1.47832251845185 -3.60931081558156
 1 -12.75735930013001  0.01365682808281 -3.93548704440444
 1 -11.49860613991399 -1.35707057415742 -3.53643226322632
 1 -8.79255885888589 -4.90917166006601 -1.91915517961796
 1 -7.98182754755476 -5.72743274747475 -0.75072468546855
 1 -9.49249913481348 -4.73879890119012 -0.21947376997700
 1 -3.55822651855186 -3.44697794849485 -0.22871814331433
 1 -1.71049921642164 -4.25876231593159  3.62032494779478
 1 -2.72240184878488 -5.72911452905290  3.53796663556356
 1 -1.19201731323132 -5.78300757395740  2.55406935983598
 1  2.57694699879988 -1.92260409630963 -1.60965493049305
 1  2.81249872747275 -0.13765948634863 -2.09050220242024
 1  4.23140404600460 -1.34176639183918  0.38598181418142
 1  4.01529049254925  1.50329904030403 -2.82798116781678
 1  5.34635004670467  2.36531679057906 -1.49671613981398
 1  5.84813212081208  1.25189629712971 -2.85579431043104
 1  6.62455451835184  1.51454545454545  0.08234087688769
 1  6.40304442384238 -0.16820485788579  0.69960967766777
 1  7.22451983668367 -1.15468470367037 -1.22606392999300
 1  7.81446388228823  0.46214942304230 -2.04371729532953
 1  9.03644569616962  0.94080196519652  0.00434806700670
 1  8.69401789048905 -0.76602210841084  0.66180404410441
 1  10.47536508790879  0.09459199689969 -1.86321121062106
 1  9.42170715621562 -1.88974695119512 -2.36837276207621
 1  11.06905946164617 -2.21355813971397 -1.99414365826583
 1  9.93882676867687 -2.72199414141414 -0.85819525922592
 1  11.65470315121512  0.70666289648965  0.45869735723572
 1  11.09617267066707 -1.03168913021302  0.80885150675067
 1  12.91373469236924 -1.73121128232823 -0.78805647324732
 1  12.91695544804480 -0.04501381038104 -1.73770713201320
 1  13.75066650335033  0.92650520652065  0.41477882088209
 1  13.79642239533954 -0.53193279797980  1.09351586808681
 1  15.16125941444144  0.42617210221022 -1.44368872687269
 1  15.72879032193219 -2.14464475657566  0.40196874297430
 1  14.93822687338734 -2.23834621022102 -1.22502991809181
 1  16.79959958935894 -1.98162368726873 -1.06943841334133
 1  15.94406960766077  1.57072490619062  0.40822736703670
 1  16.15349979717972  0.04726555145515  1.52719548074807
 1  18.08149908860886 -0.48927547494749 -0.08198153855385
 1  17.84120118461846  0.84363168206821 -1.20690426622662
 1  18.23369416201620  2.47812196989699  0.71609961526153
 1  18.83952111241124  0.86669085008501  1.65062506280628
 1  20.36297120982098  0.31909805800580 -0.00699363536354
 1  19.86713081968197  3.12651621352135 -1.06510010341034
 1  21.63872812491249  2.28914556735674 -0.98581994529453
 1  19.93755766016602  1.61697350815082 -1.83876084508451
 1  20.97946392159216  1.41778988808881  2.42637225442544
 1  22.09912161846184  1.75701693139314  1.25287025332533
 1  20.60721045094510  3.16508659195920  1.75531597209721

