%nproc=4
%Mem=2GB
# td=(NStates=1) CAM-B3LYP/6-31G(d,p) 

TD

0 1
12 -7.08236880988099  0.64228297639764 -0.01724403700370
 6 -4.80472509050905 -1.94024520292029  0.46191272397240
 6 -4.85035496439644  2.86793524082408  1.03717008190819
 6 -9.38035277077708  3.09271476697670 -0.55393825352535
 6 -9.49944025772577 -1.75677118811881 -0.97305373447345
 7 -5.02320574517452  0.47265708380838  0.66514693299330
 6 -4.25138484458446 -0.66806662866287  0.81894991819182
 6 -2.88279728512851 -0.30546997269727  1.17307766196620
 6 -3.07236067446745  1.07668033633363  1.70629135983598
 6 -4.33969096399640  1.53931468026803  1.08586561646165
 6 -2.99294437653765  1.01998428652865  3.32993440234023
 6 -1.92637609860986 -0.48758401980198  0.00493445174517
 6 -0.41936935953595 -0.66073042024202  0.48258238753875
 6  0.57882902010201 -0.89388290119012 -0.61270665116512
 8  0.32325356545655 -1.34746015361536 -1.71225755745575
 8  1.86368817931793 -0.51374877127713 -0.17734452335234
 7 -7.06922737063706  2.59903549334933  0.24084277977798
 6 -6.01199047804780  3.38183915971597  0.72574610821082
 6 -6.44035128822882  4.78870315971597  0.87446813401340
 6 -7.73636634363436  4.81890252175218  0.34368275957596
 6 -8.13958823042304  3.52084127942794  0.08498104440444
 6 -5.56814477117712  5.82007447334733  1.50523528402840
 6 -8.57248504610461  6.03472450615062  0.11777876327633
 6 -8.51036492779278  7.18514463306331  0.72509875967597
 7 -9.11004327692769  0.70889375047505 -0.64078811251125
 6 -9.85157141684168  1.78869882298230 -0.69282560666067
 6 -11.23353244984498  1.42816115521552 -1.09167088658866
 6 -11.29791219511951  0.13694905900590 -1.28718743274327
 6 -9.90235591629163 -0.40772274657466 -0.98910392649265
 6 -12.35806463016302  2.44887545854585 -1.34040081488149
 6 -12.40284483078308 -0.83985139523952 -1.63956476497650
 6 -12.23874136253625 -1.11391380258026 -3.26822194079408
 7 -7.12766223452345 -1.41289090269027 -0.20071474847485
 6 -8.26344658445845 -2.26600177227723 -0.66123107830783
 6 -7.82755890149015 -3.62100036753675 -0.57903518081808
 6 -6.47567145124512 -3.52716705370537 -0.08119985188519
 6 -6.17488008440844 -2.15531381268127  0.09211201540154
 6 -8.59519698709871 -4.79768261066107 -0.83956243464346
 6 -5.37056152645265 -4.34757864136414  0.22216508910891
 8 -5.15279411731173 -5.52419690309031  0.20905793649365
 6 -4.14785836523652 -3.19095488528853  0.62248211351135
 6 -3.70676130703070 -3.69827504880488  2.00891126402640
 8 -4.08503010361036 -3.15795253145315  3.14587726882688
 8 -2.81373256695670 -4.71425614801480  1.94298287918792
 6 -2.35621620952095 -5.13913814291429  3.19461439693969
 6  2.85878839053905 -0.74201199579958 -1.20177137753775
 6  4.19450153915392 -0.44686286258626 -0.58433858285829
 6  5.12622610701070  0.45226149154916 -1.01889166186619
 6  5.01803022602260  1.21800444974497 -2.26865103040304
 6  6.43218755155516  0.47311916211621 -0.19115560076008
 6  7.61947948584859 -0.02833318021802 -0.93841079157916
 6  8.84631650425043  0.08653352295230 -0.15314712751275
 6  10.15866649114911 -0.39842691439144 -0.83151412191219
 6  10.06346304650465 -1.83957489358936 -1.34913837883788
 6  11.45554843174317 -0.11876565736574  0.08149901850185
 6  12.82637754545454 -0.43111716281628 -0.69738976187619
 6  13.99571904030403 -0.09447064986499  0.28680574807481
 6  15.29327545244525 -0.15110883998400 -0.49763800360036
 6  15.61275294419442 -1.61753938773877 -0.87351696939694
 6  16.53486759265927  0.38118247824782  0.42535704290429
 6  17.92318690809081  0.34890628902890 -0.22027784238424
 6  18.83297366686669  1.23385160216022  0.75237567056706
 6  20.21767043624362  1.28046838033803  0.12730749394939
 6  20.31600295409541  2.16399469666967 -1.16221721442144
 6  21.29161009180918  1.85920885718572  1.20782614601460
 1 -4.22874435893589  3.72437795919592  1.45910049694969
 1 -10.21608200090009  3.86283711871187 -0.63069846134614
 1 -10.23239652905291 -2.68936827762776 -1.12947960016002
 1 -2.78704516141614 -1.03661197509751  1.92653334453445
 1 -2.25042864806481  1.69811339393939  1.33405405580558
 1 -1.94279873737374  0.91716216911691  3.44559827332733
 1 -3.16519157915792  1.89717377487749  3.82000416581658
 1 -3.70731417411741  0.14188887288729  3.75850826362636
 1 -2.06984946984698 -1.49200916131613 -0.51001491069107
 1 -2.04341601410141  0.04492174257426 -0.83471351095110
 1 -0.02500601800180  0.28555316921692  1.21040143924392
 1 -0.31702950495049 -1.40611512671267  1.21442539773977
 1 -5.65289406480648  6.93302194629463  1.16825253445344
 1 -5.86525351475148  5.93053641674167  2.59336563366337
 1 -4.33236719271927  5.89680084648465  1.29760293589359
 1 -9.24455650815081  6.01675782388239 -0.70249047724772
 1 -9.32858407430743  7.98464920382038  0.64580420222022
 1 -7.70411987778778  7.13815021452145  1.44857324282428
 1 -11.81375548064807  3.29335966196620 -2.12098510321032
 1 -13.29566923612361  2.11027491869187 -1.83145433693369
 1 -12.64622635373537  3.08051670637064 -0.47964920892089
 1 -12.26682146054605 -1.83157260236024 -1.17824277917792
 1 -13.26339505840584 -0.44138087488749 -1.33380890839084
 1 -12.89710606320632 -1.95863054925492 -3.89754963946395
 1 -12.42182574677468 -0.05614015161516 -3.64153764946495
 1 -11.22959923922392 -1.45922078917892 -3.40460908090809
 1 -8.90610021302130 -4.99486022892289 -2.05587885198520
 1 -8.08616798159816 -5.73954395859586 -0.72396200920092
 1 -9.58521840674067 -4.58844386568657 -0.30772259485949
 1 -3.42854355025502 -3.52469572027203 -0.17143241474147
 1 -1.72122028852885 -4.22815925562556  3.72534544984498
 1 -3.17841745034504 -5.74752637023702  3.61644448334834
 1 -1.62656076757676 -5.82648192139214  2.63114706760676
 1  2.73596290039004 -1.72978481438144 -1.65509947494749
 1  2.46059353695370 -0.18061378177818 -2.08410156235624
 1  4.56043694929493 -0.98122033723372  0.41965518151815
 1  4.03994295779578  1.48476718711871 -2.38557692739274
 1  5.27534294599460  2.22467272617262 -2.18665513371337
 1  5.41071837943794  0.95380648814881 -3.30044877587759
 1  6.58658072097210  1.55531953195319  0.04994763756376
 1  6.35818993839384 -0.09220725812581  0.72028174487449
 1  7.34751213591359 -1.01639087428743 -1.20113143674367
 1  7.80251268716872  0.51710491859186 -1.66398932253225
 1  8.72459451105111  1.13999188418842  0.31886951915192
 1  8.72493098179818 -0.53205871207121  0.61543940764076
 1  10.22373992539254  0.16938947664766 -1.72946783628363
 1  9.10339532503250 -2.16108408490849 -1.73456938173817
 1  10.78469102480248 -2.02533931783178 -2.01349559345935
 1  10.23379626562656 -2.39545148714872 -0.45634507420742
 1  11.58830651155115  0.71374360456046  0.42762424992499
 1  11.37699075247525 -0.72313827512751  0.85442606420642
 1  12.94829814871487 -1.42458061926193 -0.98445611321132
 1  12.91437519001900  0.17724841584158 -1.60903426472647
 1  13.86538797549755  0.75956851285129  0.94813215621562
 1  14.20976372947295 -1.02470207490749  1.00873739023902
 1  15.32672596109611  0.34126361136114 -1.45500985898590
 1  15.84400184308431 -2.42287257935793 -0.09581103500350
 1  14.79319236993699 -2.09853222882288 -1.51810922602260
 1  16.50131976137614 -1.73489901480148 -1.53790526002600
 1  16.19056425712571  1.54354218791879  0.76604314861486
 1  16.47103155035503 -0.31518069316932  1.42556531773177
 1  18.32707364606461 -0.62951949934994 -0.33499684008401
 1  17.78807587208721  0.76124344324432 -1.23813738953895
 1  18.57310810341034  2.23466762446245  0.93796180148015
 1  19.01464862516252  0.72552673367337  1.68881888218822
 1  20.57216212891289  0.21675782398240 -0.13237617361736
 1  20.01697580418042  3.20282384428443 -0.84905849924992
 1  21.26126037813782  2.06387304010401 -1.80468183148315
 1  19.59955385978598  1.93635544634463 -1.87762473147315
 1  20.96215219041904  1.23137124622462  2.19463908110811
 1  22.37006871317132  1.70906213591359  0.83440840714071
 1  21.01600133003301  2.87038712201220  1.35327576807681

