%nproc=4
%Mem=2GB
# td=(NStates=1) CAM-B3LYP/6-31G(d,p) 

TD

0 1
12 -7.08648922192219  0.70563931203120  0.01456914431443
 6 -4.84480909890989 -1.95590676907691  0.43346987968797
 6 -4.80658058695870  2.79408785608561  1.30016638153815
 6 -9.44073880938094  3.05127062256226 -0.45852871257126
 6 -9.43924423812381 -1.67648315931593 -0.87378380748075
 7 -5.10631405600560  0.42243206130613  0.73552397069707
 6 -4.37189689578958 -0.70271009300930  0.77118514171417
 6 -2.94832383778378 -0.36181560726073  1.25426578077808
 6 -3.10721415981598  1.07412008030803  1.72052278297830
 6 -4.44241123602360  1.45259600840084  1.19962699259926
 6 -2.98514359645965  1.22270455855586  3.28149955885589
 6 -1.91789525052505 -0.51615687708771  0.17308126642664
 6 -0.41115853845385 -0.58036238343834  0.64354848414841
 6  0.59824096129613 -0.72582609550955 -0.52116749724972
 8  0.35428666876688 -1.07690309790979 -1.62465879757976
 8  1.78548035853585 -0.53555095149515 -0.09402619151915
 7 -7.11211165906591  2.61349693949395  0.28654735023502
 6 -6.12226150515052  3.30701167696770  0.92478601220122
 6 -6.42559981308131  4.75845013441344  0.82074276147615
 6 -7.67460016701670  4.81105173667367  0.29021741304130
 6 -8.21557582918292  3.46743593889389 -0.02298975267527
 6 -5.55193315001500  5.84174664056406  1.22234699519952
 6 -8.56673447104710  6.03188422212221  0.12720970637064
 6 -8.54870876217622  7.20944706330633  0.75524177397740
 7 -9.08304057665767  0.66794965606561 -0.64103813751375
 6 -9.84900115981598  1.72823277637764 -0.71792811691169
 6 -11.16617571417142  1.39848818791879 -1.12311403090309
 6 -11.20490289418942  0.00952631673167 -1.29207792179218
 6 -9.88596427712771 -0.38362033633363 -0.95042005810581
 6 -12.25508433213321  2.32793336433643 -1.37168394319432
 6 -12.36701124742474 -0.88648605870587 -1.71519232773277
 6 -12.49498698709871 -1.08256066726673 -3.18812393099310
 7 -7.15623509180918 -1.32935254885489 -0.24695937293729
 6 -8.22908314811481 -2.22701787388739 -0.55724067926793
 6 -7.77082322792279 -3.63705197269727 -0.52461973927393
 6 -6.45784966906691 -3.54366870387039 -0.18893062496250
 6 -6.11142373877388 -2.16510479177918  0.01961476567657
 6 -8.59749721712171 -4.78179102150215 -0.76325480388039
 6 -5.30098456875688 -4.37934181768177  0.21531440404040
 8 -5.19590842874287 -5.62747723112311  0.24361139183918
 6 -4.14134771417142 -3.27643343314331  0.64166403170317
 6 -3.64198482938294 -3.60043526482648  2.01120149304931
 8 -3.85244684528453 -3.03614035023502  3.01342402350235
 8 -2.83746494019402 -4.62541726412641  1.77689627052705
 6 -2.31753234113411 -5.13286751585158  2.97920285578558
 6  2.87939045074507 -0.70962875747575 -1.15926712711271
 6  4.22935502450245 -0.40374855115512 -0.52633278227823
 6  5.20402388678868  0.38117438283828 -1.06981675437544
 6  5.03763218621862  1.31587423672367 -2.23285745104510
 6  6.51530586338634  0.40189203940394 -0.32312879807981
 6  7.67461499939994 -0.25349569646965 -1.01901885238524
 6  8.90341221382138  0.05526039563956 -0.21462327512751
 6  10.23877450195019 -0.46911398309831 -1.02775374587459
 6  10.03098979917992 -1.95585652175218 -1.40079354435444
 6  11.38683156005601 -0.26069985078508 -0.06042517391739
 6  12.80178508620862 -0.45010906200620 -0.68912893579358
 6  13.98968843724372 -0.14542574537454  0.10491755925593
 6  15.36579270417042 -0.19848357745775 -0.51752999279928
 6  15.70705237413741 -1.60300793459346 -1.02335195289529
 6  16.42632673857386  0.40296465646565  0.41756626382638
 6  17.82842743214321  0.54240563896390 -0.23345916051605
 6  18.76891726122612  1.15247346434643  0.87754818781878
 6  20.21698036723672  1.32158249174917  0.35362012521252
 6  20.37332868666867  2.05930422762276 -1.08071906460646
 6  21.14716564736474  1.91406434273427  1.37945330873087
 1 -4.16502798729873  3.56040156155616  1.57929251615161
 1 -10.04294468716872  3.92999383438344 -0.74239963146315
 1 -10.26471976137614 -2.34797413821382 -1.18140479267927
 1 -2.56026248314831 -1.19636795069507  2.02683337453745
 1 -2.29265287048705  1.66578016061606  1.25487613801380
 1 -1.98976343384338  0.95122557545755  3.45468918241824
 1 -2.81965702570257  2.40867492499250  3.22831499689969
 1 -3.70702414511451  0.62931761576158  3.96420883368337
 1 -2.33525601050105 -1.43779373977398 -0.36290019921992
 1 -1.98887055955596  0.23885113551355 -0.71986202580258
 1 -0.24094761216122  0.33436805070507  0.89626002510251
 1 -0.08234603660366 -1.27818233343334  1.36702065726573
 1 -6.16015479087909  6.59142778687869  0.79538524772477
 1 -5.49910690009001  6.23227659075908  2.31442773987399
 1 -4.56591054705471  5.72051321772177  0.75516869246925
 1 -9.19083113561356  5.86769291739174 -0.74470469866987
 1 -9.18404962086209  8.06550728962896  0.54723434523452
 1 -7.76071553735374  7.17224362386239  1.49181756725673
 1 -11.95023912901290  3.24889521552155 -2.01475448014801
 1 -13.32356202540254  1.93229712091209 -1.97114830633063
 1 -12.55031676277628  2.90142879757976 -0.38061930593059
 1 -12.28163294169417 -1.82537198229823 -1.16905186008601
 1 -13.46599531843184 -0.38775551235123 -1.39924545204520
 1 -13.31195754835483 -1.73002768896890 -3.56927681218122
 1 -12.64327789198920  0.03597906030603 -3.71312480818082
 1 -11.30914719401940 -1.42009687678768 -3.70539915991599
 1 -9.17383698669867 -4.73736447934794 -1.76590985508551
 1 -8.04176354115411 -5.67469747394739 -0.84511412441244
 1 -9.49399928482848 -4.97804282558256  0.00762894029403
 1 -3.37262795869587 -3.59099234993499  0.08607333583358
 1 -1.59060722722272 -4.37010345004500  3.48992190749075
 1 -3.11892150075008 -5.17531914951495  3.89756259515952
 1 -1.70383849534954 -6.07502677587759  2.77509146204620
 1  2.90133943804380 -1.73278511441144 -1.52678664366437
 1  2.69087656525653 -0.14756047644765 -2.11039419161916
 1  4.13815472107211 -1.05642785798580  0.34852806880688
 1  4.02140110361036  1.42387109750975 -2.59316768646865
 1  5.66544195589559  2.24931519041904 -1.97319378757876
 1  5.57101440904090  1.03332443994399 -3.29637836883688
 1  6.53652571547155  1.46424042404240  0.00888353115312
 1  6.33277739713971  0.10262222482248  0.67380709740974
 1  7.35193257795780 -1.21348058325833 -1.22853417701770
 1  7.73986642254225  0.62159536763676 -1.65693861746175
 1  9.06223827542754  1.20965885088509  0.03113074527453
 1  8.87560604930493 -0.53280878707871  0.77255511921192
 1  10.45256280768077  0.07872040974097 -2.02277716721672
 1  9.29236422192219 -2.42795077157716 -2.09236516131613
 1  10.94547710341034 -2.39432621652165 -2.00688493239324
 1  9.90639352535254 -2.58546048804880 -0.52191163086309
 1  11.20672835373537  0.66872910311031  0.35801728922892
 1  11.31475452885289 -1.14253021432143  0.75121574317432
 1  12.91684500340034 -1.57325548674867 -0.89816748434843
 1  12.96310006250625 -0.02198150715071 -1.73078643994399
 1  13.97809924662466  0.89216177217722  0.46345368836884
 1  13.94486723982398 -0.90173977867787  0.86076259275928
 1  15.25591888038804  0.32958244324432 -1.53440779877988
 1  15.78973641654165 -2.16666695879588 -0.20466192009201
 1  15.08882193289329 -2.12731510711071 -1.66086350145014
 1  16.57064669406941 -1.67804332923292 -1.62223369286929
 1  16.09790499119912  1.42096993069307  0.51493803810381
 1  16.57749219641964 -0.26575575067507  1.26817957915792
 1  18.39151008970897 -0.48738528592859 -0.38313165356536
 1  17.72201926642665  1.25679299819982 -0.96255983178318
 1  18.44288508110811  2.28274243194319  1.11986999229923
 1  18.66671383168317  0.66448062906291  1.82231223152315
 1  20.59208412111211  0.35227137533753 -0.00900383638364
 1  19.90227433403340  3.18530209210921 -1.03632722612261
 1  21.29870412251225  1.94637128992899 -1.48677004030403
 1  19.58978288268827  1.68198000880088 -1.71910887988799
 1  21.19850582578258  1.53832194129413  2.41019063626363
 1  22.18345005130513  1.78219944964496  1.02044701100110
 1  20.92780251015101  3.01431151445145  1.65190563106311

