%nproc=4
%Mem=2GB
# td=(NStates=1) CAM-B3LYP/6-31G(d,p) 

TD

0 1
12 -7.12508308130813  0.53953270137014  0.11366905430543
 6 -4.86166078407841 -2.01895307370737  0.52235876857686
 6 -4.77839776867687  2.93099154645464  1.04389075397540
 6 -9.39181391689169  3.03552904840484 -0.25384824452445
 6 -9.55543585728573 -1.75017052805281 -0.85785221432143
 7 -5.00740416501650  0.44614443254325  0.60892131043104
 6 -4.35568527462746 -0.74131395339534  0.73880190339034
 6 -2.95324432983298 -0.42745217091709  1.17450780498050
 6 -3.07727116551655  1.16942961126113  1.58729946064606
 6 -4.41624861976198  1.55744649344935  1.00463749364937
 6 -3.12526760886089  1.34841712981298  3.09337074597460
 6 -1.87412087308731 -0.70416567796780  0.05625958425843
 6 -0.41405882848285 -0.48467281448145  0.55861999129913
 6  0.58802994019402 -0.66624013691369 -0.63076845734573
 8  0.23013425352535 -0.96648205580558 -1.72753908560856
 8  1.82964477497750 -0.40458785518552 -0.23583037193719
 7 -7.03111355925593  2.66487207700770  0.26115481098110
 6 -5.97640691969197  3.45170614641464  0.66485001860186
 6 -6.45959321242124  4.79300358975898  0.69086977417742
 6 -7.79390209720972  4.77649828132813  0.36827521882188
 6 -8.16810108170817  3.38892808810881  0.10260280658066
 6 -5.49482743944394  5.87872033793379  1.00729549004900
 6 -8.68466626422642  5.99736076977698  0.16121310671067
 6 -8.49523341464146  7.19587570617062  0.68182443224322
 7 -9.11428370097010  0.67122998409841 -0.55158919261926
 6 -9.88254451415141  1.68821877497750 -0.60333665776578
 6 -11.19628872547255  1.45580391949195 -0.95228694819482
 6 -11.29579198309831  0.14407977207721 -1.24590330433043
 6 -9.90907658835884 -0.41339331363136 -0.86848186428643
 6 -12.24774359805981  2.40600117111711 -1.24221099589959
 6 -12.41010555685568 -0.74889229932993 -1.64824563306331
 6 -12.38818630703070 -1.19655206640664 -3.14518963756376
 7 -7.25764523282328 -1.40663027662766  0.03094841784178
 6 -8.30385062486249 -2.30198537063706 -0.40901585678568
 6 -7.86059220482048 -3.64227249474948 -0.39015629292929
 6 -6.46948083218322 -3.50944528152815 -0.09922165406541
 6 -6.16313891029103 -2.19104738603860  0.14527733193319
 6 -8.59874734213421 -4.93081592399240 -0.63771224962496
 6 -5.32524699499950 -4.35942982648265  0.12952582518252
 8 -5.22508134603460 -5.52192667606761  0.10549758045805
 6 -4.17434101350135 -3.32449823962396  0.60560042534253
 6 -3.58180881178118 -3.69666488778878  1.88443881678168
 8 -3.88959055965597 -3.17277401360136  2.94784746584658
 8 -2.84075526922692 -4.71942666506651  1.77795637653765
 6 -2.17287787568757 -5.17657188628863  2.88682361786179
 6  2.81971448314831 -0.61586938153815 -1.20115131553155
 6  4.13939602860286 -0.34844302060206 -0.50637078607861
 6  5.18477196159616  0.36328259365937 -0.98939871257126
 6  5.10432885588559  1.16980963026303 -2.35518968426843
 6  6.36699103190319  0.45589743994399 -0.20642712791279
 6  7.56776431433143 -0.06288663556356 -0.94875182568257
 6  8.99390126272627  0.07721259085909 -0.23764557735774
 6  10.24107473197320 -0.35738280998100 -1.05621659215922
 6  10.31378807900790 -1.91454239033903 -1.45419888488849
 6  11.49069194609461  0.07971419061906 -0.25635476687669
 6  12.75694060176018 -0.37766181728173 -0.80341036393639
 6  13.89860932933293  0.09962876007601  0.08653572107211
 6  15.33292941784178 -0.12108583768377 -0.39554779457946
 6  15.53937560646064 -1.51140877467747 -0.87499711741174
 6  16.45732983888389  0.41026538653865  0.40950545774577
 6  17.92959754915491  0.35925732413241 -0.11467728232823
 6  18.95468583808381  1.01392960996100  0.97478791179118
 6  20.37640630983098  1.16910724422442  0.38907367056706
 6  20.50546189999000  1.91014931213121 -0.91090208290829
 6  21.20608153895390  1.68580151645164  1.46756211961196
 1 -4.05004648914892  3.45602112351235  1.39564415131513
 1 -10.08082847554756  3.75307614261426 -0.20509590109011
 1 -10.28922221162116 -2.65425476627663 -1.06211286348635
 1 -2.66815327222722 -0.95734404830483  1.91773246444644
 1 -2.25774938013801  1.47704128672867  1.04338498889889
 1 -2.15416987448745  1.12340279317932  3.46000971447145
 1 -3.07749280928093  2.48230228772877  3.25712787818782
 1 -3.95013845654565  0.65459014301430  3.50419283208321
 1 -2.03401588648865 -1.72334229462946 -0.38357226642664
 1 -2.35081675417542 -0.19717246684668 -0.79580962056206
 1 -0.32066558395840  0.45287990189019  0.99005940504050
 1 -0.22016981898190 -1.27031154635464  1.13205716091609
 1 -6.18803757915792  6.92177082118212  0.70407611681168
 1 -5.35087207660766  5.89487285038504  2.06166246334633
 1 -4.52220617661766  5.51753291969197  0.51098427402740
 1 -9.62381443394339  5.76680282838284 -0.39630985918592
 1 -9.35278649454945  8.04782552145215  0.85599522132213
 1 -7.63907337313731  7.38917531703170  1.34195258075808
 1 -11.89504360946095  3.08803912991299 -2.11060406510651
 1 -13.21322099129913  1.99926381758176 -1.64659585108511
 1 -12.37338907000700  3.22494114881488 -0.37504874887489
 1 -12.68555333373337 -1.68122756785679 -1.12558751365136
 1 -13.26589530843084 -0.29916665346535 -1.63518904640464
 1 -13.21273762636264 -1.97796248244824 -3.62203208770877
 1 -12.71867543174317 -0.49304384198420 -3.82218571427143
 1 -11.49155543484349 -1.70267513461346 -3.41587020702070
 1 -8.85623522652265 -5.10956169906991 -1.73393665776578
 1 -8.15086445124512 -5.76488649284928 -0.32248186118612
 1 -9.45016490139014 -5.20655567686769 -0.30011183378338
 1 -3.44336503240324 -3.50570382108211 -0.12447771927193
 1 -1.60068823532353 -4.52655909560956  3.35900881618162
 1 -2.84805441404140 -5.60722233983398  3.79134197309731
 1 -1.43525163666367 -5.88296756995700  2.54575852875288
 1  2.46625592969297 -1.48985082098210 -1.59024298929893
 1  2.62508998659866  0.06530080968097 -1.92753590579058
 1  4.25950685628563 -1.01591380658066  0.29290250625062
 1  3.94656361986199  1.45371408180818 -2.38649701940194
 1  5.82720813251325  2.07863812271227 -2.24338080628063
 1  5.38194550215021  0.38759986748675 -3.21896062706271
 1  6.33936599949995  1.65518951895190 -0.07225458265827
 1  6.38000211961196  0.00570253285329  0.88360807750775
 1  7.23728111281128 -1.13126236143614 -1.34723604720472
 1  7.57492992889289  0.44422763086309 -1.95287821142114
 1  9.10040209180918  1.19550743574357 -0.01770413821382
 1  8.72468095679568 -0.45126063226323  0.73106096979698
 1  10.24859241064106  0.34750728842884 -1.95778066756676
 1  9.40185517101710 -2.21520949744975 -2.15238116291629
 1  11.24577713341334 -1.98708549244924 -1.95131937583758
 1  10.51659454545455 -2.62431437343734 -0.64737417711771
 1  11.25163284418442  1.26609884008401 -0.17436594909491
 1  11.35572862626263 -0.32811877317732  0.70836145774578
 1  12.72966628552855 -1.73537169836984 -0.69752742034203
 1  12.82991674417442 -0.11116042504250 -1.85420878217822
 1  13.75200663736374  1.16001855785579  0.20679802280228
 1  13.71174392749275 -0.06557616231623  1.26007252375238
 1  15.29861314981498  0.40296978197820 -1.32900725872587
 1  15.57812525542554 -2.28277856995699 -0.08285973987399
 1  14.82906595729573 -1.78678105370537 -1.69012642774277
 1  16.61913154255426 -1.56917244214421 -1.33056452595259
 1  16.40957615831583  1.42246007970797  0.59540608490849
 1  16.47315176237624  0.00630145504550  1.26732949414941
 1  18.15419635833583 -0.77152369976998 -0.42740608100810
 1  18.20932799729973  0.99582690159016 -1.01554513031303
 1  18.42411320392039  2.06502065976598  1.13969197449745
 1  19.07121428172817  0.31543572457246  1.88806880718072
 1  20.72658757145715 -0.02007585938594  0.13003006700670
 1  19.91588569516951  2.72027558945895 -0.78830242364236
 1  21.54544879697970  2.14253090589059 -1.15065642894289
 1  19.93757766216622  1.23592540334033 -1.73770073907391
 1  20.92181815701570  1.26903501260126  2.35814543174317
 1  22.38116982328233  1.68484971467147  1.26066103240324
 1  20.83218294819482  2.70749083238324  1.87990843134313

