%nproc=4
%Mem=3GB
# td=(NStates=1) iop(3/107=0140000000,3/108=0140000000) CAM-B3LYP/6-31G(d,p) 

TD

0 1
12 -7.14069876157616  0.60248863236324  0.19358572857286
 6 -4.92090090659066 -2.06626385698570  0.53745914831483
 6 -4.61036706730673  2.78338705660566  1.08307841304130
 6 -9.27563432793279  3.20428798179818 -0.38049052435244
 6 -9.53250934893489 -1.64432619831983 -0.91897870277028
 7 -5.03459049024903  0.34997108770877  0.66386421042104
 6 -4.44600684798480 -0.75846698989899  0.72243013771377
 6 -2.93381960256026 -0.55859425742574  1.14431010011001
 6 -2.98735196209621  0.91007970957096  1.65935221452145
 6 -4.30931116581658  1.43327797889789  1.19504389828983
 6 -2.79436561736174  1.06538935823582  3.14380969556956
 6 -1.93619934963496 -0.84196018521852  0.05024883518352
 6 -0.48098380758076 -0.74513776177618  0.51013439573957
 6  0.55007693089309 -0.91791841374137 -0.70539032913291
 8  0.29460967776778 -1.22807658535854 -1.84403179627963
 8  1.77842644104410 -0.57574751315132 -0.31333672127213
 7 -7.01742938633863  2.56466967686769  0.35838676277628
 6 -5.91264140794079  3.25828959635964  0.79554543064306
 6 -6.16274118251825  4.66891375497550  0.73389164786479
 6 -7.56657144244424  4.82352415761576  0.29284541094109
 6 -8.01379090659066  3.48137507630763  0.10595859445945
 6 -5.21848388228823  5.81915138883888  1.08399855505551
 6 -8.33999400740074  6.08443871347135  0.06875748824883
 6 -8.01714012401240  7.27500665036504  0.59783384268427
 7 -9.13304234533453  0.81370836523652 -0.51013758765877
 6 -9.88519600590059  1.91708503280328 -0.53196601010101
 6 -11.18690264296430  1.66431587608761 -1.03356821652165
 6 -11.33238272547255  0.28490603640364 -1.14225425372537
 6 -9.98038564216422 -0.31424161756176 -0.88427062836284
 6 -12.23095403310331  2.62431767316732 -1.29024847754775
 6 -12.45608940184018 -0.55572169596960 -1.58951828242824
 6 -12.47029893879388 -0.86396658895890 -3.11986263746375
 7 -7.24608757115712 -1.39090392609261 -0.10471314641464
 6 -8.30026435273527 -2.15226377187719 -0.40423200310031
 6 -8.03021506130613 -3.63026357775778 -0.39203950375038
 6 -6.68339613011301 -3.57298028012801 -0.04005608730873
 6 -6.25147887958796 -2.20120807660766  0.10776261166117
 6 -8.86705904540454 -4.64906100450045 -0.97462084518452
 6 -5.47541300420042 -4.43655721912191  0.24773974807481
 8 -5.38736972927293 -5.63460031703170  0.34531047964796
 6 -4.32796729932993 -3.42374982238224  0.58880720232023
 6 -3.63396757355736 -3.65823376607661  1.95870183868387
 8 -3.83319610301030 -2.98757611551155  3.03437679587959
 8 -2.81124647744774 -4.75723434193419  1.74209324682468
 6 -2.20095905290529 -5.36469167506751  2.89839724012401
 6  2.70118643904390 -0.80764905380538 -1.32224574177418
 6  4.08529941514151 -0.49358462636264 -0.65442800560056
 6  5.04168966026603  0.28926545454545 -1.06851972897290
 6  5.11061478707871  0.96013368866887 -2.43944807980798
 6  6.37385366406641  0.26325694169417 -0.32950347474747
 6  7.71310276287629 -0.14314286228623 -1.10714104280428
 6  8.95778348994899 -0.19585140124012 -0.20941704410441
 6  10.22974843544355 -0.50266192939294 -0.96634235423542
 6  10.12607588418842 -1.92091997189719 -1.46767373337334
 6  11.48771343514351 -0.26469136023602  0.06459849734973
 6  12.80984872037204 -0.54827486098610 -0.76512401750175
 6  13.91899317111711 -0.24329004330433  0.14225063666367
 6  15.39007499849985 -0.28321740534053 -0.34942059455946
 6  15.74725099609961 -1.64403279157916 -0.96687851415142
 6  16.46469346204621  0.39557607490749  0.49375411011101
 6  17.69161674937494  0.79585331493149 -0.06433296029603
 6  18.70251066966696  1.53392147064706  0.86736999369937
 6  20.08602140654065  1.62084151665167  0.42864957095710
 6  20.34215706150615  2.40502780788079 -0.91902659855986
 6  21.06363143014301  2.24075577547755  1.46829076907691
 1 -3.92615297879788  3.45064831623162  1.49357545334533
 1 -9.86345846914691  4.09007128162816 -0.55623014921492
 1 -10.29618404250425 -2.25288082318232 -1.19837765716572
 1 -2.55033232043204 -1.10213041574157  2.03335982668267
 1 -2.06410987728773  1.49130119121912  1.07764141314131
 1 -1.73684677107711  0.60221932833283  3.34815515291529
 1 -2.85138224732473  2.08631785458546  3.58837685988599
 1 -3.38120092059206  0.31571672597260  3.74641632683268
 1 -2.02412753175318 -1.72984365516552 -0.33941194829483
 1 -2.12352872187219 -0.10494287448745 -0.71782851745175
 1 -0.24331976067607  0.30462004930493  0.80372423542354
 1 -0.39590801110111 -1.51448221482148  1.29976343464346
 1 -5.55416959465947  6.70063757575758  0.44664449574958
 1 -5.40133160446045  6.12461534293429  2.14587660016002
 1 -4.17458230283028  5.63749801780178  1.11861259385939
 1 -9.20342060186019  6.19498288028803 -0.75773712641264
 1 -8.40947001070107  8.12077179817982 -0.01997222152215
 1 -7.27969590169017  7.40591742814281  1.41276023632363
 1 -11.95096556955695  3.18302744984498 -2.29295512701270
 1 -13.22108940664066  2.08843758615862 -1.40567629582958
 1 -12.09848088078808  3.46420375447545 -0.65632607210721
 1 -12.32182414731473 -1.66774769756976 -0.88164166506651
 1 -13.31617391649165 -0.01830454095409 -1.46800255465547
 1 -13.21842704190419 -1.45946960906091 -3.60946190429043
 1 -12.55779618531853  0.02503403210321 -3.76663564196420
 1 -11.45908074747475 -1.34422544974498 -3.37241551975198
 1 -9.18301291989199 -4.46672317311731 -1.86689275227523
 1 -8.53942832803280 -5.62691864516452 -0.91940189528953
 1 -9.93580775977598 -4.69087753615362 -0.34407667636764
 1 -3.70744826332633 -3.34500110571057 -0.38252599069907
 1 -1.40685407300730 -4.68606081948195  3.27523924152415
 1 -3.11285772307231 -5.29983950885089  3.75742678037804
 1 -1.83892441294129 -6.29736052085209  2.75206856795680
 1  2.55710376517652 -1.86575319811981 -1.78683013171317
 1  2.53893033433343 -0.12155407060706 -2.10422147964796
 1  4.30990147684768 -1.13183159695970  0.24520592079208
 1  4.25366067756776  1.27067260996100 -2.88772925862586
 1  5.46424335653565  2.15197562146215 -2.21124856325633
 1  5.78029759825983  0.57563875477548 -3.05587184408441
 1  6.52550073397340  1.24246422702270  0.04688430233023
 1  6.31215908800880 -0.35756309300930  0.73853004850485
 1  7.55133725652565 -1.10304097709771 -1.84904966216622
 1  7.99624218271827  0.82088119111911 -1.71640246314631
 1  9.08627467176718  0.87328682618262  0.36745917401740
 1  8.90533365416542 -0.89121747444744  0.66458258165817
 1  10.45746037783779  0.07154330213021 -1.76242140014001
 1  9.37031664076408 -2.36956524002400 -2.04705308720872
 1  10.92175131573157 -2.31658505780578 -2.17741309940994
 1  10.15554775187519 -2.74701881658166 -0.55676307000700
 1  11.29353099469947  0.62963939733973  0.51946971777178
 1  11.35059265476548 -0.80236153375337  1.07502382248225
 1  12.73188114061406 -1.47103452275228 -1.12796506800680
 1  12.70453628352835  0.07624256025603 -1.64569890359036
 1  13.70183160346035  0.82463782708271  0.47788261696170
 1  14.07488579917992 -0.86369274817482  1.02146452045205
 1  15.40529093049305  0.40790418741874 -1.26723799259926
 1  15.84392818961896 -2.30320966216622 -0.14425256075608
 1  14.79560120452045 -1.82825734573457 -1.57681905540554
 1  16.81482976257626 -1.69112000900090 -1.45864237753775
 1  16.03555682918292  1.34919325302530  0.93296921322132
 1  16.56717079487949 -0.17077336213621  1.50635913061306
 1  18.14664140184018  0.00753423942394 -0.60654084968497
 1  17.51293860346034  1.31741063516352 -0.97854359795980
 1  18.33465252215221  2.68482975097510  1.09019096589659
 1  18.67819378187819  1.08854369386939  1.99000224572457
 1  20.27133696599660  0.58072907050705  0.34202009420942
 1  19.92107892639264  3.47242801930193 -1.07918010271027
 1  21.40205400620062  2.41689283138314 -1.12536051725173
 1  19.83539193679368  2.00163045324532 -1.80065845024502
 1  21.02159601310131  1.87964360526053  2.51208487728773
 1  22.07528542134213  2.40886135683568  1.19070572417242
 1  20.71506158465847  3.33037915511551  1.81582871957196

