%nproc=4
%Mem=2GB
# td=(NStates=1) CAM-B3LYP/6-31G(d,p) 

TD

0 1
12 -7.07697827082708  0.61769051715172  0.02022971037104
 6 -4.92219683768377 -2.01530270867087  0.54589112181218
 6 -4.77991792069207  2.79072752005200  1.15353171807181
 6 -9.33095783128313  3.06940243574357 -0.44633749344934
 6 -9.44837515121512 -1.75451096209621 -0.99675610471047
 7 -5.16072949754976  0.42189200730073  0.78431885018502
 6 -4.33840354645465 -0.68863868586859  0.79570759395940
 6 -2.93299230463046 -0.43044246994699  1.19489984418442
 6 -3.10812425082508  1.05881855015502  1.75725645634563
 6 -4.44149114401440  1.47171792059206  1.19157618751875
 6 -3.07338242034203  1.24495678377838  3.27687909680968
 6 -2.01358481948195 -0.59459472087209 -0.00119616131613
 6 -0.53395081768177 -0.52396674387439  0.52533666296630
 6  0.46216735393539 -0.67995150805081 -0.53749913041304
 8  0.24190543064306 -1.05126053365337 -1.63991032273227
 8  1.77251906240624 -0.40440783718372 -0.01935872477248
 7 -7.06727717561756  2.60442603240324  0.27569626512651
 6 -6.03495277427743  3.41142211801180  0.69635316891689
 6 -6.38804605770577  4.76559084848485  0.72495318251825
 6 -7.66862956995700  4.82821345284528  0.35895428672867
 6 -8.06022029362936  3.46683587888789  0.05996854315432
 6 -5.37669562626263  5.81904437033703  1.05687044754475
 6 -8.60946874447445  5.95690672437244  0.05288227362736
 6 -8.53627751905191  7.13717983658366  0.71042729252925
 7 -9.06172844544454  0.64444730583058 -0.53421745544554
 6 -9.78372463216322  1.83142309540954 -0.68276460056006
 6 -11.18722781938194  1.50102844194419 -1.13125484498450
 6 -11.20095249914992  0.18265362946295 -1.27075578957896
 6 -9.88337401810181 -0.31851382568257 -0.88385340144014
 6 -12.30617944164416  2.54277484848485 -1.36265304010401
 6 -12.41564611091109 -0.63094050415042 -1.81964277277728
 6 -12.22084957335734 -1.06764917611761 -3.42169728832883
 7 -7.16246571487149 -1.34334394799480 -0.23209788678868
 6 -8.26506674647465 -2.27166233833383 -0.59352430763076
 6 -7.82248839443944 -3.69227749524953 -0.53223050035004
 6 -6.55484936903690 -3.57125146214621 -0.02989472137214
 6 -6.20133272967297 -2.23864214551455  0.06614941914191
 6 -8.77897536493649 -4.73632647504750 -0.77973645204520
 6 -5.38361283158316 -4.37774165766577  0.24162703530353
 8 -5.15421425932593 -5.54084856825683  0.18740577127713
 6 -4.19567314671467 -3.33736952675268  0.55615548084809
 6 -3.66454708560856 -3.78201342264226  1.89630000290029
 8 -3.74260586118612 -3.04781151735174  2.93552623372337
 8 -2.95843703740374 -4.92954767716772  1.80689927082708
 6 -2.25010559845985 -5.27748197729773  3.01067600310031
 6  2.79491200290029 -0.67496529112911 -1.13665486588659
 6  4.18407049604961 -0.50201837813781 -0.49274942394239
 6  5.13208669306931  0.34929119451945 -0.81027079977998
 6  5.13878230123012  1.23326597589759 -1.99387355265527
 6  6.34977931073107  0.37324917511751  0.05466898169817
 6  7.60790832873287 -0.19037938483848 -0.75252220272027
 6  8.95097697029703 -0.13756888728873  0.00528871607161
 6  10.20308093259326 -0.66884395609561 -0.74447541804180
 6  10.12343904410441 -2.13564450055005 -1.08084154915492
 6  11.48903178007801 -0.28543232403240 -0.03863299469947
 6  12.75463037073707 -0.40060411151115 -0.70568059095910
 6  13.96824629302930  0.02921171837184  0.15816288378838
 6  15.40720684558456 -0.03838756785679 -0.65860410021002
 6  15.70402207110711 -1.51297893169317 -1.08438805650565
 6  16.41083518941894  0.61782614261426  0.28498300550055
 6  17.88269285868587  0.63313471187119 -0.35325113971397
 6  18.84741511101110  1.37130534753475  0.54258469146915
 6  20.22491116031603  1.40450078357836  0.09318408160816
 6  20.53480483428343  2.16706500370037 -1.15409640234023
 6  21.21829276007601  1.76094903120312  1.27626298969897
 1 -3.83980546504650  3.44119964136414  1.44427901480148
 1 -10.14545493819382  3.90502133713371 -0.68385377687769
 1 -10.35571886128613 -2.51589092989299 -1.16854350655066
 1 -2.60553701060106 -1.13242155605561  2.05078576977698
 1 -2.28514211941194  1.64540812341234  1.36036668706871
 1 -2.20257471497150  1.01962241514151  3.84380809430943
 1 -3.17769282928293  2.19305336283628  3.72439460486049
 1 -3.78321176387639  0.48145282928293  3.71426383918392
 1 -2.12519500440044 -1.62947290769077 -0.28623253245324
 1 -2.11589326182618  0.20374762516252 -0.90461050065007
 1 -0.15073859125913  0.38696331023102  0.89817021612161
 1 -0.44208201020102 -1.39740425562556  1.40246420162016
 1 -5.79968874427443  6.66823546764677  0.25548125732573
 1 -5.60799778917892  6.26079944304430  2.10387668476848
 1 -4.23477743374337  5.62346351275127  1.08345152075208
 1 -9.66268832133213  5.76608275637564 -0.39871009920992
 1 -9.13664488038804  7.88698943784378  0.67652727452745
 1 -7.64536400220022  7.37175357485749  1.50201858735874
 1 -12.21244534963496  2.95258558455846 -2.26649965466547
 1 -13.36354602380238  2.03542743394339 -1.68809000050005
 1 -12.40228195929593  3.38496715141514 -0.48158940294029
 1 -12.48211298969897 -1.50102954805481 -1.12680763566357
 1 -13.27649636853685  0.04333759695970 -1.71055658315832
 1 -13.45767211981198 -1.36722140834083 -3.36309619411941
 1 -12.07137070127013 -0.15400993859386 -4.09838333403340
 1 -11.49746602590259 -1.79921478857886 -3.75448406840684
 1 -9.06788639163917 -4.73937468036804 -1.88736200030003
 1 -8.22544190899090 -5.76371637583758 -0.82876248924892
 1 -9.68125801070107 -4.60864588588859 -0.11676349894989
 1 -3.33398409430943 -3.47702095279528 -0.17454272577258
 1 -1.67812597909791 -4.42451889158916  3.52493540884088
 1 -2.97310691929193 -5.64509612721272  3.89709254815482
 1 -1.82526063756376 -6.31877115031503  2.63154710761076
 1  2.80103940804080 -1.61884372027203 -1.48770273527353
 1  2.56624410201020 -0.01311703210321 -1.92234538673867
 1  4.28854976057606 -1.08875109030903  0.46719993599360
 1  4.11620058355836  1.31686039643964 -2.54948331803180
 1  5.62275768746875  2.09711997089709 -1.68128459665967
 1  5.90078738633863  0.89103021052105 -2.75670440144014
 1  6.45670773367337  1.37623162316232  0.49637228002800
 1  6.24129824922492 -0.26570460786079  0.94730444714471
 1  7.26645403010301 -1.37240647584758 -0.95310663426343
 1  7.81135357125713  0.22867607570757 -1.85694861846185
 1  9.10394244584458  0.82073995899590  0.26373400560056
 1  8.64565305400540 -0.54880038623862  0.99597746144614
 1  10.10381793319332 -0.10965842814281 -1.57985287478748
 1  9.22831781728173 -2.55056303280328 -1.69535546034603
 1  10.92980553625362 -2.57985476937694 -1.85437968186819
 1  10.31681456745675 -2.67915985798580 -0.21752119181918
 1  11.22003968486849  0.66635886608661  0.37524901240124
 1  11.42970602400240 -0.90396635793579  0.76308693029303
 1  12.88554187308731 -1.37896605780578 -0.93562122972297
 1  12.59877362986299  0.05130582158216 -1.75838920022002
 1  13.98074951165117  1.05415797179718  0.50633797679768
 1  13.78219097219722 -0.65052465716572  1.02611912841284
 1  15.23059634813481  0.72000148514852 -1.59823418141814
 1  15.91824926782678 -2.12771306340634 -0.29055050895090
 1  15.08095114581458 -2.06495887148715 -1.68944635973597
 1  16.61628125752575 -1.51060658555856 -1.91383285278528
 1  16.10949615031503  1.66377421112111  0.49839638393839
 1  16.54076852405240  0.00553137803780  1.09010177137714
 1  18.27515845454545 -0.44027057445745 -0.41902524292429
 1  17.70079714421442  1.10934825372537 -1.29551312711271
 1  18.44986577917792  2.35702986068607  0.71665967126713
 1  18.84636179647965  0.87753193419342  1.58201820212021
 1  20.68099301200120  0.26649279747975  0.03378044204420
 1  20.26640074667467  3.30678424032403 -0.73053664706471
 1  21.49361361346135  1.99057571037104 -1.72002336563656
 1  19.78237214161416  1.87063887468747 -1.93576054505450
 1  21.22489846504650  0.98604671377138  2.21057067426743
 1  22.23755546184618  1.71953318301830  0.93079804610461
 1  20.89716944684469  2.60783086638664  1.62178261876188

