%nproc=4
%Mem=2GB
# td=(NStates=1) CAM-B3LYP/6-31G(d,p) 

TD

0 1
12 -7.13258383138314  0.66294504260426  0.06010369776978
 6 -4.73069768776878 -1.96253743214321  0.41153768646865
 6 -4.91104103300330  2.79425787308731  1.19077544244424
 6 -9.44084882038204  3.09402489798980 -0.47880073977398
 6 -9.54040435413541 -1.78351386238624 -0.97385381448145
 7 -5.17876130073007  0.42740255835584  0.71482190049005
 6 -4.35073477957796 -0.63708353035304  0.70367839103910
 6 -2.99397840324032 -0.30770019571957  1.29353970817082
 6 -3.15558899729973  1.07190985928593  1.74923565426543
 6 -4.49670666556656  1.49717046584658  1.10376740664066
 6 -3.17279236133613  1.27671996009601  3.31995340424042
 6 -1.93428688968897 -0.49311457285729  0.15401936023602
 6 -0.50093751635164 -0.43141748894889  0.61869599889989
 6  0.53765490269027 -0.62537605050505 -0.39660504100410
 8  0.23577481758176 -0.89634504210421 -1.69594592629263
 8  1.83799561006101 -0.44928232463246  0.10981419251925
 7 -7.18648909680968  2.57315290509051  0.43382207770777
 6 -6.17961724072407  3.34184516031603  0.72904643824382
 6 -6.53835108820882  4.79572386178618  0.79464015121512
 6 -7.82088479547955  4.87971860336034  0.24611300260026
 6 -8.16971124272427  3.52048124342434  0.01376392269227
 6 -5.51166912361236  5.89146161206121  0.98607336783678
 6 -8.66547434503450  6.05409644334433  0.09983696909691
 6 -8.39548343964396  7.23746986558656  0.67975422522252
 7 -9.17716998959896  0.68513137423742 -0.55557959165917
 6 -9.93774003370337  1.83583353645365 -0.74850117421742
 6 -11.32055115171517  1.49815815491549 -1.16822854235424
 6 -11.24374677857786  0.11798716281628 -1.23692240624062
 6 -9.95709138983898 -0.45121709600960 -0.91108612471247
 6 -12.51379020272027  2.37358792979298 -1.42012878767877
 6 -12.37127167346735 -0.84507191729173 -1.69419022752275
 6 -12.24106159455946 -1.28487089828983 -3.04627974657466
 7 -7.20057952625263 -1.38541815541554 -0.24980965796580
 6 -8.19385962576258 -2.27422259435944 -0.55864081928193
 6 -7.76138228382838 -3.66639490699070 -0.56639391669167
 6 -6.49370325442544 -3.60055439243924 -0.09186091799180
 6 -6.16570916731673 -2.20184846614662  0.00563336753675
 6 -8.55644311171117 -4.83015585798580 -0.70960943934393
 6 -5.26487095739574 -4.38283216671667  0.09982285488549
 8 -5.06724556245625 -5.58604308770877 -0.01727469676968
 6 -4.11491507090709 -3.36163195299530  0.56350621592159
 6 -3.50079070997100 -3.71270649194920  1.90951132403240
 8 -3.67639924052405 -3.11067780398040  2.97339002010201
 8 -2.67355854955496 -4.73816853925393  1.72477105800580
 6 -2.07615820372037 -5.27182141124112  2.98335327082708
 6  2.88045055675568 -0.60242803740374 -1.00823202360236
 6  4.13235532453245 -0.34953312961296 -0.33539368836884
 6  5.15429891429143  0.39892615801580 -0.76028580128013
 6  5.20585900890089  1.12566521582158 -2.13661782708271
 6  6.56451078387839  0.52248409860986 -0.02997948314831
 6  7.68143568146815 -0.00012035893589 -0.90501745224522
 6  8.98476034863486  0.18120298989899 -0.10464227702770
 6  10.20276090059006 -0.39522659435944 -0.96487745824582
 6  10.02049875007501 -1.89764070017002 -1.40931439643964
 6  11.42272514941494 -0.20685446624662 -0.06243537493749
 6  12.75701060876088 -0.46293034413441 -0.88543856675668
 6  13.93447291569157 -0.09705090789079 -0.02217515001500
 6  15.39781590649065 -0.28096182528253 -0.51899013881388
 6  15.67877954685468 -1.78741637543754 -0.87621723942394
 6  16.38793289918992  0.23005736573657  0.40899540674067
 6  17.83111770117011  0.45058645704570 -0.22237805240524
 6  18.87129749924993  1.10855907290729  0.69681011401140
 6  20.28469713891389  1.18462879637964  0.18281304450445
 6  20.55186654045405  2.11382968016802 -1.05829682238224
 6  21.19680061086109  1.74632756905691  1.28990435383538
 1 -4.07440892539254  3.47284280568057  1.49347393429343
 1 -10.11296168886889  3.99811064606461 -0.80873626512651
 1 -10.21844513391339 -2.42666200700070 -1.32829948214821
 1 -2.62818927582758 -0.95829414331433  2.10087077827783
 1 -2.32656626182618  1.80959454205421  1.50248089848985
 1 -2.41777623512351  0.80888134103410  3.80251396489649
 1 -3.41003606360636  2.37995205270527  3.64573673907391
 1 -3.90254369706971  0.75151983598360  3.70229264206421
 1 -2.04555704060406 -1.40838079847985 -0.41814572377238
 1 -1.98685035753575  0.21620887128713 -0.83356339593959
 1 -0.24252777017702  0.56139075297530  1.18325872497250
 1 -0.28805660766077 -1.18398291349135  1.47045100030003
 1 -5.65770454585459  6.71354999909991  0.45804151335133
 1 -5.65014200360036  6.46825018811881  1.97772406950695
 1 -4.42905686168617  5.40686185258526  1.11391456705671
 1 -9.59737178967897  5.89478562666267 -0.36691691989199
 1 -8.98700991689169  8.17175791469147  0.68962858465847
 1 -7.42303176897690  7.68658505800580  1.24213259875988
 1 -12.37400150525052  2.90851117711771 -2.37209021372137
 1 -13.46055572477248  1.76651054225422 -1.37841903340334
 1 -12.35789752085209  3.26828548324832 -0.52295353935394
 1 -12.38891366976698 -1.87500694579458 -1.16025097999800
 1 -13.31654037293729 -0.49029576637664 -1.47961348884889
 1 -13.01051740434044 -1.92678736493649 -3.26785667016702
 1 -12.35004856905691 -0.43912845044504 -3.79936343204320
 1 -11.25550182948295 -1.69348421552155 -3.29477809780978
 1 -8.95681528452845 -4.89457019991999 -1.68926219031903
 1 -7.89085845064506 -5.76084608880888 -0.57644725772577
 1 -9.26019590449045 -4.84597961926193  0.10383856125613
 1 -3.30075077097710 -3.48740199089909 -0.38429370087009
 1 -1.26319448594859 -4.62015845554556  3.25611852715272
 1 -2.94902451105110 -5.56026764436444  3.75904874377438
 1 -1.71825993749375 -6.23929320252025  2.85380933383338
 1  2.88507781188119 -1.79551138703870 -1.29748371337134
 1  2.73300077767777 -0.10309603000300 -1.96926007820782
 1  4.16405731133113 -0.75302751795180  0.66419963596360
 1  4.08015697919792  1.19065777617762 -2.44463283298330
 1  5.56230164186419  2.26161642054205 -1.96178264646465
 1  5.81783909150915  0.54591569906991 -2.92656138713871
 1  6.81246330923092  1.53377737773777  0.10060270307031
 1  6.51171529092909 -0.18380641804180  0.87567728442844
 1  7.47954533923392 -1.10105934113411 -1.14153547714772
 1  7.62921535743574  0.49067227532753 -2.00427335093509
 1  9.23850590219022  1.33654153915392 -0.01850421822182
 1  8.85732422112211 -0.14539004520452  0.92332019571957
 1  10.21272882428243  0.19612214991499 -1.87207209670967
 1  9.08274325982598 -1.71040901740174 -2.07171309610961
 1  10.85190774647465 -2.19896668056806 -2.12432667656766
 1  9.72069495549555 -2.64863680568057 -0.76733617331733
 1  11.29897757865787  0.91591382158216  0.15599708720872
 1  11.38875192859286 -0.80579654095410  0.62657327892789
 1  13.01456477537754 -1.61925008620862 -1.13443111071107
 1  12.64712846534653  0.09842053305331 -1.97542090339034
 1  13.84687612431243  1.07415997199720  0.08645598859886
 1  13.81709446254625 -0.69346895159516  0.76407292379238
 1  15.18383167166717  0.37292677767777 -1.27180153815382
 1  15.59262670557056 -2.32273256535654  0.06944549064907
 1  15.11445449614961 -2.32515489108911 -1.82047946304630
 1  16.62744237363736 -2.02069759465947 -1.39888135763576
 1  15.98920412111211  1.15970380408041  0.63497004130413
 1  16.58014246144614 -0.40983015811581  1.35434819601960
 1  18.04409534823482 -0.68722526992699 -0.55815915631563
 1  17.57176424092409  1.22811012991299 -1.19929350515052
 1  18.31622241484148  2.21915607330733  0.98763676897690
 1  18.87578473877388  0.62905708670867  1.61684168446845
 1  20.69194410711071  0.16319246744674  0.21375843984398
 1  20.24377848444844  3.13111667356736 -0.79817341074107
 1  21.67018127022702  2.12873952675268 -1.18171953525352
 1  19.88415231963197  1.79708151895189 -1.94292126112611
 1  20.96949292449245  1.27013512261226  2.29781939913991
 1  22.31166287258726  1.86482771247125  0.85943090939094
 1  20.71477120702070  2.81974205750575  1.70444088458846

