%nproc=4
%Mem=2GB
# td=(NStates=1) CAM-B3LYP/6-31G(d,p) 

TD

0 1
12 -7.12850342334233  0.58769751785179  0.19075676307631
 6 -4.84122874087409 -1.97690886928693  0.50911744444444
 6 -4.86017594649465  2.89250769806981  1.12622898779878
 6 -9.42910764626463  3.06922241774177 -0.33872673237324
 6 -9.45297561126113 -1.74117962896290 -0.77707413651365
 7 -5.06246967156716  0.48448826692669  0.59003942224222
 6 -4.37758746484648 -0.69851967396740  0.73598162136214
 6 -2.90523952935294 -0.31767119281928  1.20704105830583
 6 -3.00628406680668  1.13590625892589  1.59726045674567
 6 -4.34904189908991  1.55906665546555  1.07382441234123
 6 -2.87493257535754  1.37485977407741  3.08639004790479
 6 -1.91298475947595 -0.61394665606561  0.02673663196320
 6 -0.47444486708671 -0.43861820902090  0.53818794809481
 6  0.48678981618162 -0.65534904780478 -0.61832721322132
 8  0.08713995409541 -1.13212862046205 -1.69020535223522
 8  1.78377018751875 -0.54720211661166 -0.28228501740174
 7 -7.10634108200820  2.68592418221822  0.30237893339334
 6 -6.05030430943094  3.34706568236824  0.80567410101010
 6 -6.45187244034403  4.77257154655465  0.89358004520452
 6 -7.71103381038104  4.87415804730473  0.37899629092909
 6 -8.15258953055306  3.53331252655266  0.06345889218922
 6 -5.53331128782878  5.94685715161516  1.19734449494950
 6 -8.56543434103410  6.04359539323932  0.09473645904590
 6 -8.58819271057106  7.18139425802580  0.93034928472847
 7 -9.07918019061906  0.72341520262026 -0.57460149384938
 6 -9.92804906460646  1.81603155625563 -0.68945526962696
 6 -11.17746684328433  1.52104044314431 -1.20078179767977
 6 -11.28850125402540  0.12544790889089 -1.26310502450245
 6 -9.94100978167817 -0.45041701600160 -0.86758177427743
 6 -12.23069189288929  2.45622619361936 -1.47256403120312
 6 -12.38028257455746 -0.71044845494549 -1.83446425492549
 6 -12.33890137853785 -1.21660407160716 -3.27873299189919
 7 -7.26573604190419 -1.41491110471047 -0.04664934193419
 6 -8.24367460726073 -2.32166733883388 -0.42714766996700
 6 -7.83259940554055 -3.67703597109711 -0.43130040734073
 6 -6.43509739383938 -3.54163850085009 -0.10038177007701
 6 -6.15501809820982 -2.13360164146415  0.07638044224422
 6 -8.57442490989099 -4.86885972837284 -0.84619309770977
 6 -5.27930240054005 -4.43195707920792  0.25190806340634
 8 -5.09639847774777 -5.61310579397940  0.20733776447645
 6 -4.21326490589059 -3.32252804260426  0.52014187948795
 6 -3.43496412731273 -3.59186440774077  1.92274264716472
 8 -3.44408600920092 -3.06632336853685  2.99815249634963
 8 -2.53192438613861 -4.67031175357536  1.65673425432543
 6 -1.92018260616062 -5.05960018911891  2.90678561406141
 6  2.74785729742974 -0.74895268986899 -1.40134133453345
 6  4.11607369636964 -0.46600477677768 -0.74163431243124
 6  5.10589407380738  0.33313957935794 -1.14222399509951
 6  5.08198662166217  1.26780943024302 -2.20061422672267
 6  6.32307664046405  0.29631148134813 -0.26865335053505
 6  7.61742928082808 -0.26670701760176 -0.88251520202020
 6  8.80911278387839 -0.08703383378338 -0.04931674447445
 6  10.10390101460146 -0.58710578227823 -0.80649161966197
 6  10.08512521272127 -2.02880381648165 -1.23143660866087
 6  11.37241011791179 -0.20837461826183  0.12238310691069
 6  12.78214312201220 -0.42304635573557 -0.66085610851085
 6  13.97209667806781 -0.20738194099410  0.30725779327933
 6  15.30664678957896 -0.29111284038404 -0.44477271707171
 6  15.55839750865086 -1.76950458425843 -0.87221683938394
 6  16.35518962486249  0.37704206420642  0.39708421562156
 6  17.82323691309131  0.53839523792379 -0.22181799639964
 6  18.74891526102610  1.19663788078808  0.78256868986899
 6  20.22809147834784  1.31042137563756  0.21607637083708
 6  20.20374172797280  2.20553885108511 -1.07974896759676
 6  21.14782571337134  1.96824976127613  1.28894425782578
 1 -4.07559904440444  3.53808933033303  1.51377596449645
 1 -10.08735912861286  3.98335917091709 -0.44184957645765
 1 -10.11493478287829 -2.47371671247125 -1.23493014521452
 1 -2.88369482638264 -1.02324063796380  2.14692538373837
 1 -2.37854145934593  1.68924250685068  0.99133978437844
 1 -1.75648010551055  1.00902135503550  3.34629834333433
 1 -3.07058211821182  2.30551460896090  3.47857002240224
 1 -3.43891733443344  0.72839752375238  3.72565497829783
 1 -2.26575906080608 -1.61026098649865 -0.38563247244725
 1 -1.99632130463046  0.21343859425943 -0.86401644124412
 1 -0.49422293969397  0.39782439633963  1.29703010211021
 1 -0.25146294829483 -1.20500501570157  1.25533948914892
 1 -5.65078385378538  6.86819546364636  0.63469917911791
 1 -5.69102609200920  5.98570193329333  2.34143044014401
 1 -4.47033098909891  5.58177934433443  1.08914208980898
 1 -9.22467451995200  5.91503765186519 -0.72861308950895
 1 -9.34087530343034  7.99850058895890  0.72648227002700
 1 -8.02532199799980  7.13942034153415  1.82141052655266
 1 -11.86161026612661  3.31007133313331 -2.24155716041604
 1 -13.17748741794179  2.22322621382138 -1.68581977347735
 1 -12.30754248534854  3.12430108480848 -0.42322356635664
 1 -12.63907868626863 -1.54272371747175 -1.17887284218422
 1 -13.28464718361836 -0.22010874767477 -1.57145267276728
 1 -13.03429978257826 -1.97126181238124 -3.62530241474147
 1 -12.36329989418942 -0.35375991359136 -3.88280177587759
 1 -11.37743402270227 -1.90143501060106 -3.43990261026103
 1 -8.96631623462346 -4.85951669456946 -1.80161342544254
 1 -8.01985134993499 -5.81257126132613 -0.46943655665567
 1 -9.53851373627363 -4.94912993429343 -0.32914473707371
 1 -3.32258295419542 -3.46544979567957 -0.19260453195320
 1 -1.35875404190419 -4.40515695539554  3.48107102240224
 1 -2.66919652825282 -5.61418303590359  3.63660649954995
 1 -1.28599671117112 -5.81009028222822  2.93585753865387
 1  2.69197850195019 -1.70233206910691 -1.77776174117412
 1  2.40225770337034  0.13603788338834 -2.11738489068907
 1  4.23680458605861 -1.25278749394939  0.22830604660466
 1  4.17893685718572  1.38636734713471 -2.73894226392639
 1  5.24291970367037  2.34517477637764 -1.70757722592259
 1  5.91648895649565  1.26527763526353 -3.03749248024803
 1  6.69308137103710  1.29491349134914 -0.07394475167517
 1  6.12441656105610 -0.23172120952095  0.61926164286429
 1  7.49909729442944 -1.33055229042904 -1.17273859745975
 1  7.74554699059906  0.33152636073607 -1.82026495009501
 1  9.15839789138914  1.05358324332433  0.22407003920392
 1  8.70691918061806 -0.70588609480948  0.98554641834183
 1  10.37868541994199 -0.01553901620162 -1.65504039353935
 1  9.33052803830383 -2.28460643714371 -1.80271619641964
 1  10.89491204690469 -2.25893267716772 -1.79757400130013
 1  10.02301518751875 -2.65571751375137 -0.21279071877188
 1  11.37938561946195  0.93088531873187  0.31937342484248
 1  11.49580263366337 -0.85532149344934  0.80886150775077
 1  12.79906322522252 -1.55108326952695 -0.74804247184718
 1  12.96963071557156  0.15453614461446 -1.50252361366137
 1  14.04386582328233  0.75923847984798  0.72909025202520
 1  13.83510626372637 -0.76337594229423  1.20401691819182
 1  15.20250353885388  0.44932441744174 -1.35435979397940
 1  15.42512995589559 -2.46043633573357  0.00299884598460
 1  14.80006305700570 -2.04920729632963 -1.58845626072607
 1  16.62240186958696 -2.17106263116312 -1.42112358185819
 1  15.99962516321632  1.56969480318032  0.46069261356136
 1  16.36173062026203 -0.15871504660466  1.37423018421842
 1  18.25545648434844 -0.30985753315332 -0.71889522992299
 1  17.50836790129013  1.32933025192519 -1.00536411221122
 1  18.42666345894590  2.28945310301030  1.01161916721672
 1  18.76371353165317  0.76302048304830  1.79070907120712
 1  20.61331624432443  0.37840398859886 -0.06029896589659
 1  20.10252435903590  3.36139970187019 -0.81552514591459
 1  21.15228948104810  2.27182383518352 -1.54784614791479
 1  19.56490039443944  1.81199301010101 -1.76769373837384
 1  21.36863283848385  1.23134124322432  2.20262988018802
 1  22.20007171347135  2.23042427212721  0.96491145744574
 1  20.84072380228023  2.92313239653965  1.74198463896390

