%nproc=4
%Mem=2GB
# td=(NStates=1) CAM-B3LYP/6-31G(d,p) 

TD

0 1
<<<<<<< HEAD
12 -7.13013358635864  0.57550629872987  0.02412009940994
 6 -4.84886950495050 -1.97041822022202  0.47338387108711
 6 -4.85904583348335  2.72750119741974  1.30856722162216
 6 -9.29631436693669  3.11243673917392 -0.59303216291629
 6 -9.62172248594860 -1.72398790979098 -0.84180060916092
 7 -5.07385080968097  0.50747056515652  0.66955737403740
 6 -4.38212791889189 -0.72398222022202  0.64367239043904
 6 -2.99771877727773 -0.44695412111211  1.24989534373437
 6 -3.04171761016102  0.94965763406341  1.79719044974497
 6 -4.32649964486449  1.43710445924592  1.20497752765277
 6 -2.98247332943294  1.20607289538954  3.27336874577458
 6 -1.80808426942694 -0.63440870227023  0.20973493179318
 6 -0.48863628622862 -0.41118546574657  0.69520364966497
 6  0.49949108630863 -0.69252276517652 -0.42989837033703
 8  0.24054529462946 -1.13618902650265 -1.50269660136014
 8  1.82194400490049 -0.42518991539154 -0.02210899979998
 7 -7.13596404430443  2.55104069386939  0.40232892839284
 6 -6.12747202620262  3.25353632943294  0.92611614521452
 6 -6.36175342844284  4.76248053745375  0.85577626482648
 6 -7.62894560156016  4.87243787528753  0.21497988928893
 6 -8.07437170877088  3.43962315761576  0.03091563786379
 6 -5.37359531623162  5.87691015691569  0.98410317081708
 6 -8.49841763936394  6.04150518421842  0.02132911831183
 6 -8.36075996729673  7.08118423702370  0.84623087288729
 7 -9.13619589218922  0.65215807690769 -0.60434446814681
 6 -9.87669392909291  1.81407136023602 -0.71505782988299
 6 -11.18136723332333  1.43013135223522 -1.19824154365437
 6 -11.23739614351435  0.11451681578158 -1.16527524152415
 6 -9.96656233693369 -0.39376135043504 -0.87574259035904
 6 -12.24935375907591  2.39863043404340 -1.51564833963396
 6 -12.37964251055105 -0.77032444254425 -1.70072088058806
 6 -12.13931141954195 -1.12028443964396 -3.24930004860486
 7 -7.21321078937894 -1.38947856145615 -0.08785346234623
 6 -8.32382262206221 -2.16209138123812 -0.45615057025703
 6 -7.89444559015902 -3.63005127262726 -0.39816709400940
 6 -6.57094097819782 -3.52555689268927 -0.05886761866187
 6 -6.19802239863986 -2.18943722502250  0.07017982218222
 6 -8.80456792419242 -4.81075391779178 -0.74042252065206
 6 -5.44614908520852 -4.38346222972297  0.23223609620962
 8 -5.22750158805881 -5.60351483488349  0.19822685338534
 6 -4.24590817021702 -3.38431422122212  0.50240010531053
 6 -3.59477010791079 -3.69477469876988  1.75790616351635
 8 -3.69617121772177 -3.00517725392539  2.85812849394939
 8 -2.71769296299630 -4.69813453585359  1.65798437933793
 6 -2.09259984788479 -5.11476570567057  2.91802673817382
 6  2.84048656035604 -0.56238403300330 -1.05139634003400
 6  4.16644873387339 -0.43407158345835 -0.42717286628663
 6  5.06718020242024  0.39146541194119 -0.92901267396740
 6  5.00454887788779  1.11972462176218 -2.15021918721872
 6  6.46321065386539  0.45205705590559 -0.30455694089409
 6  7.59615715361536 -0.20828117501750 -1.11555850635064
 6  8.96502837543754  0.02916778637864 -0.34805661846185
 6  10.19763038753875 -0.52582965466547 -0.98846981748175
 6  10.03265996619662 -1.96568750485048 -1.31923538853885
 6  11.36643952085209 -0.18592237303730 -0.07961709310931
 6  12.73034794249425 -0.39420347144714 -0.76018604150415
 6  13.92833230163016  0.08416721392139  0.11850891839184
 6  15.31133725862586 -0.12578630773077 -0.58997723752375
 6  15.76115778467847 -1.56808444224422 -0.90842045974597
 6  16.38580268616862  0.52624698469847  0.31592609980998
 6  17.81095568496849  0.54886628502850 -0.24262007660766
 6  18.79754012351235  1.12727094409441  0.85307574057406
 6  20.20986965616562  1.23067340084008  0.36014077727773
 6  20.40858221202120  2.11801009820982 -1.03496448914891
 6  21.17678860966097  1.81348428472847  1.36529189258926
 1 -4.07181866636664  3.30436595799580  1.52067665456546
 1 -9.87575796849685  3.99192002700270 -0.75173056455646
 1 -10.38701199059906 -2.39899924072407 -1.30264691689169
 1 -3.01679813671367 -1.10202851675168  2.12906359755976
 1 -2.24520812601260  1.35295887848785  1.29501015141514
 1 -2.03701815931593  1.12180263316332  3.79501321482148
 1 -3.21209626962696  2.25190924842484  3.43736590199020
 1 -3.59752319501950  0.66429111311131  3.73325573837384
 1 -2.02769525442544 -1.60766072647265 -0.16812072127213
 1 -1.83119479197920  0.08598584898490 -0.79910995059506
 1 -0.13801731913191  0.69525413931393  1.06204660376038
 1 -0.22284008600860 -1.12430694589459  1.48352230743074
 1 -5.51212998839884  6.76983562766277  0.22128783798380
 1 -5.48718570797080  6.39184254735473  2.00608690579058
 1 -4.37217117311731  5.39631079747975  0.49214238983898
 1 -9.38261031353135  6.06275242334233 -0.57383761196120
 1 -9.12640385628563  7.88099883878388  0.78826844864486
 1 -7.56603606940694  7.14280067956796  1.58364675017502
 1 -11.76805091019102  3.11040136613661 -2.41507451215121
 1 -13.28614828402840  2.09021291249125 -1.91891308280828
 1 -12.26807853895390  3.10332898759876 -0.81534277827783
 1 -12.67756253465347 -1.56853629872987 -1.17229218411841
 1 -13.14243296219622  0.04944820802080 -1.69370489798980
 1 -13.07998435103510 -1.64465915211521 -3.80421030553055
 1 -12.01881544574458 -0.21052559015902 -3.94742823852385
 1 -11.27769404870487 -1.80435530263026 -3.30980960096010
 1 -9.21370097309731 -4.67457820072007 -1.85786905100510
 1 -8.18869823462346 -5.54751475567557 -0.56868648164816
 1 -9.75296518141814 -4.88922394369437  0.04708288568857
 1 -3.37468816471647 -3.65447869856986 -0.28870414191419
 1 -1.24223238973897 -4.51095753545354  3.31155407070707
 1 -2.76469607820782 -5.24576619421942  3.74739757865787
 1 -1.70776888838884 -6.09822909610961  2.71584553745374
 1  2.71226053015302 -1.68890072597260 -1.66011997699770
 1  2.73945142274227  0.22681696129613 -1.88464161636164
 1  4.15643654925493 -0.96002821802180  0.37546076207621
 1  4.09056802030203  1.03890260066007 -2.46762513221322
 1  5.40053546524652  2.13903416231623 -2.03677014521452
 1  5.65621292889289  0.90006111361136 -2.94605333633363
 1  6.87014907780778  1.47926192619262 -0.18360571777178
 1  6.59265338473847  0.13266522912291  0.61730144684468
 1  7.30304768946895 -1.37599683488349 -1.16904822842284
 1  7.76364880078008  0.36227943604360 -2.05604852845285
 1  8.95895794739474  1.13204108910891 -0.00099246704670
 1  8.68060654935494 -0.55799130533053  0.62353021672167
 1  10.25808335973597  0.03355589328933 -2.09183407290729
 1  9.26718170367037 -2.21214919141914 -2.01352727752775
 1  10.73528608430843 -2.39216600050005 -1.79988423232323
 1  10.00143302930293 -2.56588853085308 -0.27777721742174
 1  11.36726440734073  0.85830806100610  0.34774626212621
 1  11.42388544194420 -0.71495745704570  0.80541116271627
 1  12.81785510441044 -1.36450461166117 -1.34308197579758
 1  12.71990574307431  0.38278896989699 -1.54451781308131
 1  13.63968540524052  1.06602915891589  0.20811815481548
 1  14.19416216931693 -0.54701430613061  0.99246576307631
 1  15.61518480698070  0.45668515351535 -1.50981533953395
 1  15.38140558345835 -2.31279157125713  0.09795834193419
 1  15.11656470717072 -2.00903327892789 -1.75570298539854
 1  16.64796442584258 -1.58208373327333 -1.42019348884888
 1  16.14565976667667  1.80780861456146  0.65562210651065
 1  16.36976142334233  0.02561338623862  1.35814857605761
 1  18.28728966766677 -0.48409495689569 -0.35187852825282
 1  17.91680874537454  1.09420673957396 -1.21908548434843
 1  18.47892868546855  2.08103226092609  1.01038904420442
 1  18.59343650395040  0.60279446044604  1.87121712201220
 1  20.26912182488249  0.18186433463346  0.02781984598460
 1  20.31445555215521  3.28981254315432 -0.81687528092809
 1  21.46450070217022  1.92273892669267 -1.29035039833983
 1  19.87585148954896  1.62455426622662 -1.86347331633163
 1  21.09295527072707  1.31600971007101  2.41136075327533
 1  22.20729243554355  1.80550177987799  1.00389535583558
 1  20.99103883378338  2.89605968926893  1.51236167666767
=======
12 -7.11748232123212  0.60695944404440  0.06177386478648
 6 -4.88008262626263 -1.87284846324632  0.55292182488249
 6 -4.77965789468947  2.87159560686069  1.16157252215222
 6 -9.43540827632763  3.11186668216822 -0.45396825652565
 6 -9.41256156985699 -1.70866637763776 -0.89930635973597
 7 -5.07283070767077  0.40546036413641  0.76847726602660
 6 -4.29659936603660 -0.68630845284528  0.89591761496150
 6 -2.85030403580358 -0.33376280198020  1.30624097829783
 6 -2.98583202160216  1.09499216751675  1.79842057275728
 6 -4.31680867576758  1.49262001080108  1.31051808170817
 6 -2.95531061316132  1.25466775487549  3.30854226312631
 6 -1.90684414541454 -0.61910717211721  0.09652361066107
 6 -0.44348177077708 -0.49837418461846  0.50348447774777
 6  0.50038117531753 -0.61555506840684 -0.66082146264626
 8  0.18982022212221 -1.05980138773877 -1.71550788248825
 8  1.77080889138914 -0.33603099949995 -0.17255404430443
 7 -7.14521496939694  2.60188577837784  0.30955965146515
 6 -6.01976125512551  3.30922189798980  0.82093562716272
 6 -6.37074432753275  4.73683797319732  0.76062674987499
 6 -7.70863357035704  4.76501713321332  0.37164555585559
 6 -8.19757402900290  3.41722091739174  0.00199274557456
 6 -5.47349530623062  5.81226369226923  1.00532529302930
 6 -8.55626342394239  6.01432246594660  0.18974595999600
 6 -8.51690558185819  7.08754487308731  0.96678292809281
 7 -9.11880415301530  0.59915277637764 -0.48630266396640
 6 -9.86733299299930  1.77206715981598 -0.64425074917492
 6 -11.21682077867787  1.48845718481848 -1.15072679217922
 6 -11.25543794769477  0.08160352445245 -1.25768448244824
 6 -9.89223490419042 -0.41946392069207 -0.87937295339534
 6 -12.27740656435643  2.43416398739874 -1.47908468326833
 6 -12.33129767606761 -0.75148255835584 -1.87322813131313
 6 -12.14693218161816 -0.92839525072507 -3.37215233383338
 7 -7.23264273257326 -1.36963657725773 -0.18520319731973
 6 -8.22963320312031 -2.31183635573557 -0.57046200140014
 6 -7.80777692329233 -3.62253052055206 -0.53337061436144
 6 -6.48564244834484 -3.58253259025903 -0.11819355125513
 6 -6.20462305870587 -2.13534181548155  0.07656046024602
 6 -8.57413488088809 -4.85754859725973 -0.68478695709571
 6 -5.29473394369437 -4.34197808130813  0.12572544514451
 8 -5.07919675757576 -5.50414489788979  0.17238426912691
 6 -4.15473905330533 -3.24025981578158  0.56527639293929
 6 -3.60953158405841 -3.66062128342834  1.89890026292629
 8 -3.88222982358236 -3.21599833603360  2.98632131323132
 8 -2.80285147884788 -4.75336005840584  1.86112469336934
 6 -2.33868445634563 -5.22180640974097  3.07764269976998
 6  2.83952646434643 -0.69244703930393 -1.15780698109811
 6  4.08514060306031 -0.48598677497750 -0.58579872887289
 6  5.13224670907091  0.33886015141514 -1.07247702040204
 6  4.96398482148215  1.01663431273127 -2.43403756905691
 6  6.43456778957896  0.40877272747275 -0.24838132333233
 6  7.64316185408541 -0.14841518841884 -1.08242519301930
 6  8.87533940654065  0.04385925552555 -0.25731754455446
 6  10.14275489999000 -0.45825289698970 -0.88028899939994
 6  10.08236493669367 -2.05437637373737 -1.20893435843584
 6  11.36171904880488 -0.12690647144714 -0.05075420682068
 6  12.73342825052505 -0.36931098219822 -0.67273729662966
 6  13.98230769916992  0.07377617481748  0.12706977447745
 6  15.28466459135914 -0.23943767286729 -0.40680892069207
 6  15.55522719161916 -1.67401503530353 -0.79198881658166
 6  16.41080518641864  0.35110947094709  0.41695620282028
 6  17.80158474787479  0.60026142454245 -0.27740355495550
 6  18.81684205370537  1.19403762076208  0.77493792679268
 6  20.32043071227123  1.20207054055406  0.23153791699170
 6  20.42922427622762  2.15250354755476 -1.07394838753875
 6  21.16152708350835  1.86751968826883  1.28438380178018
 1 -4.09201068556856  3.60148566996700  1.66790137703770
 1 -10.06798719141914  3.93825466046605 -0.48752414391439
 1 -10.13405669506951 -2.44750409120912 -1.05810246244624
 1 -2.51184764166417 -1.13443175707571  2.15482617381738
 1 -2.02328593379338  1.78883246584659  1.36991764216422
 1 -1.88995345284528  1.01735218811881  3.70939465296530
 1 -3.05242030203020  2.27404146164616  3.47042920832083
 1 -3.81822526522652  0.70216490049005  3.76499891269127
 1 -2.10069255415542 -1.66158611901190 -0.28427233643364
 1 -2.30388206070607  0.01454870527053 -0.71974201380138
 1 -0.21361487888789  0.31706632053205  1.38003840294029
 1 -0.07329513151315 -1.36004051925192  1.27971192639264
 1 -5.88190696609661  6.81489013311331  0.61667737693769
 1 -5.49391638103810  6.15761912501250  2.10275657275728
 1 -4.41880583658366  5.67546871327133  0.71932510811081
 1 -9.30697274977498  5.95370151825183 -0.76559678787879
 1 -9.29317053295329  7.79901063996400  0.75028465026503
 1 -8.08205767156716  7.20760716021602  1.86260464596460
 1 -11.81092519761976  3.02166249224923 -2.38648165286529
 1 -13.18991866106611  2.13980787198720 -2.20150134163416
 1 -12.73160489158916  3.03703235793579 -0.67834907890789
 1 -12.33014779317932 -1.77394683978398 -1.63866882178218
 1 -13.29081780068007 -0.24383111991199 -1.59967549504950
 1 -12.88486483908391 -1.76421110731073 -3.71222110661066
 1 -12.35754931913191 -0.11429596719672 -4.00934443014301
 1 -11.18306458575858 -1.29416428352835 -3.78625724572457
 1 -8.93494309730973 -4.88398914181418 -1.69395265936594
 1 -8.08059742454245 -5.83698370257026 -0.34273388638864
 1 -9.27797768266827 -4.75257027832783  0.01353953135314
 1 -3.16523721962196 -3.36157940864086 -0.10705597709771
 1 -1.90972913941394 -4.41916835653565  3.71610452575258
 1 -3.01340094869487 -5.73869548714872  3.75609844874487
 1 -1.49922803430343 -5.85495476867687  2.91557551045105
 1  2.83066237033703 -1.80975281118112 -1.45713967896790
 1  2.50947842544254 -0.37747346774677 -2.27254040624062
 1  4.20150105570557 -0.97374959015902  0.36350956695669
 1  4.00600956445644  0.72030074047405 -3.07443581328133
 1  4.99850526222622  2.25760601950195 -2.12156862506251
 1  6.00623793139314  0.98992009950995 -3.07641637263726
 1  6.55272733563356  1.29570357035704  0.28064070687069
 1  6.47346146554655 -0.33407144454445  0.72029174587459
 1  7.32916030073007 -1.15251448664866 -1.58995031863186
 1  7.77924035993599  0.60904411251125 -1.99350227382738
 1  8.77653970557056  1.18714659965997 -0.30024239203920
 1  8.81810029872987 -0.63600910711071  0.84579244294429
 1  10.15385293669367  0.08326086378638 -1.91094598409841
 1  9.37768275377538 -2.39897787428743 -1.98832475727573
 1  11.06363891959196 -2.41350813471347 -1.60908515241524
 1  10.02376526252625 -2.62111405340534 -0.23639307900790
 1  11.51011869276928  1.13791602180218  0.07361884938494
 1  11.13660671407141 -0.66977293859386  0.92506312791279
 1  13.03910722962296 -1.48247640884088 -0.95789345694569
 1  12.81319507200720  0.33419411041104 -1.67142050335033
 1  13.90637207390739  1.08084064006401  0.73248059105911
 1  13.64975772887289 -0.47612721742174  1.14823133963396
 1  15.33769705820582  0.32328181318132 -1.38486284428443
 1  15.60623806670667 -2.18294858695870  0.16948549464946
 1  14.82241529222922 -2.20999337493749 -1.55551296639664
 1  16.52652228162816 -1.67595312021202 -1.16657812731273
 1  16.08307350805080  1.56094392809281  0.78372491679168
 1  16.54994944214421 -0.16668584368437  1.25863862506251
 1  18.20960189888989 -0.31613816121612 -0.51711505190519
 1  17.68152521702170  1.19062638153815 -1.11875545134513
 1  18.57984877747775  2.29847400510051  0.93824182948295
 1  18.82147930823082  0.68682286328633  1.70654065436544
 1  20.78336324902490  0.15653180138014 -0.13602653865386
 1  20.09967407400740  3.28948251015102 -1.09030262366237
 1  21.50373462556256  2.16249290209021 -1.68843020632063
 1  19.88565246964697  1.38932074287429 -1.88633560256026
 1  21.17097307250725  1.10952906200620  2.14347396459646
 1  22.18026973327333  1.85781701140114  1.12289725602560
 1  20.87317704760476  2.88476856015602  1.56035647614761
>>>>>>> 8e03b5b5abfc0030b3aa597dc0de36371bfbd096

