%nproc=4
%Mem=3GB
# td=(NStates=1) iop(3/107=0140000000,3/108=0140000000) CAM-B3LYP/6-31G(d,p) 

TD

0 1
12 -7.10800549224922  0.60978936243624  0.07266363636364
 6 -4.81678049454946 -1.91521875247525  0.50027542994299
 6 -4.72063809440944  2.80426914481448  1.24214431963196
 6 -9.40593735823582  3.08986653965397 -0.33934640994099
 6 -9.50227632563256 -1.72791455715572 -1.00855766066607
 7 -5.14969200040004  0.43089918051805  0.86261408540854
 6 -4.38354060136014 -0.66307745094509  0.85688358305831
 6 -2.96066228682868 -0.51286968496850  1.23842951205121
 6 -3.06684991189119  0.99885858745875  1.71676795609561
 6 -4.36752698739874  1.48607325842584  1.21406580048005
 6 -3.07930411121112  1.15754857415742  3.36268158275828
 6 -1.99790552025203 -0.64381037023702  0.10312412271227
 6 -0.54932064126413 -0.40737398539854  0.50395377767777
 6  0.46690861406141 -0.71972859475948 -0.60182997309731
 8  0.16396661346135 -1.04349812751275 -1.68345573867387
 8  1.70575917431743 -0.42049198759876 -0.28718410601060
 7 -7.04388203160316  2.58964217411741  0.46743766786679
 6 -6.06042618641864  3.49221298869887  0.81880775687569
 6 -6.23659856825683  4.77530439403940  0.78622688138814
 6 -7.61664644994499  4.87655946114611  0.40409653605361
 6 -8.10397992549255  3.46239317811781  0.12118011661166
 6 -5.32843487738774  5.97121659535954  0.90067022222222
 6 -8.39113912191219  6.03172344194419  0.09168978147815
 6 -8.24958336833683  7.25699484918492  0.70236429572957
 7 -9.02521156225623  0.70565756015602 -0.54480105400540
 6 -9.87875536183618  1.80716404070407 -0.65673848734873
 6 -11.18020197289729  1.50432987748775 -1.16872173187319
 6 -11.24219370657066  0.12846039183918 -1.32991301960196
 6 -9.91672927652765 -0.38293848724873 -0.90083228452845
 6 -12.27610854855486  2.42995823722372 -1.40659011171117
 6 -12.34942873577358 -0.70056618041804 -1.71393072367237
 6 -12.27169907880788 -1.21643183548355 -3.22793344454445
 7 -7.16640960336034 -1.38898373407341 -0.22538521362136
 6 -8.20033435973597 -2.19658820432043 -0.69438101800180
 6 -7.80853289308931 -3.60560111151115 -0.66121642144214
 6 -6.49359715021502 -3.57478046014602 -0.15935801750175
 6 -6.17150088178818 -2.26210416621662  0.08760059545955
 6 -8.65384772427243 -4.82403850225023 -0.95963934703470
 6 -5.39858532143214 -4.39166272967297  0.18204317841784
 8 -5.15852684498450 -5.59072592959296  0.17069301790179
 6 -4.18074257685769 -3.34365181258126  0.57525584718472
 6 -3.56747092389239 -3.62036997969797  1.93892986148615
 8 -3.80249303270327 -3.09239659755976  2.99239259745975
 8 -2.77356270907091 -4.71678029652965  1.79862890039004
 6 -2.17943690069007 -5.18467367326733  3.05260266066607
 6  2.75781210161016 -0.65200348924893 -1.17637115431543
 6  4.13627451265126 -0.44912017991799 -0.50117268006801
 6  5.10255574687469  0.36052258025803 -0.87994087108711
 6  5.00795452105210  1.23838151345134 -2.11678581358136
 6  6.39612589128913  0.32689330533053 -0.10123064746475
 6  7.55025647824782 -0.15911445944594 -0.80804113281328
 6  8.81641935353535 -0.11991380748075 -0.06325242764276
 6  10.11641710231023 -0.50310197339734 -0.87057277727773
 6  10.02358563516352 -1.94584246414641 -1.48105507150715
 6  11.43876854065407 -0.25511040214021 -0.00303826632663
 6  12.74415215071507 -0.44725475897590 -0.72873037813781
 6  13.99086035783578 -0.14169988428843  0.07144355595560
 6  15.34895088608861 -0.19487857145715 -0.55468112061206
 6  15.64714098509851 -1.67606599489949 -1.05014684098410
 6  16.32249924262426  0.34139065636564  0.36804153885389
 6  17.85936352405241  0.57084081368137 -0.19906643364336
 6  18.75746616521652  1.30021810031003  0.76077933463346
 6  20.29201200560056  1.39188862136214  0.22911961796180
 6  20.49850269606961  2.15367267236724 -1.02704740064006
 6  21.15183025002500  1.83395509540954  1.33478741874187
 1 -4.19795015851585  3.61010426182618  1.75890198599860
 1 -10.17493961726173  3.91974424892489 -0.44554908110811
 1 -10.13594801890189 -2.59522505760576 -1.16474429382938
 1 -2.73540082728273 -1.19677988068807  1.95252174287429
 1 -2.41135460176018  1.68665072617262  1.28711236023602
 1 -2.11343442984298  1.02570167656766  3.95454579197920
 1 -3.37272438153815  2.25981520432043  3.69337735993599
 1 -3.82916571707171  0.61145629992999  3.73697538273827
 1 -2.32360747974797 -1.60905157595760 -0.11088909600960
 1 -2.34698106710671 -0.04411679187919 -0.69283601820182
 1 -0.36064149284928  0.71494108140814  0.82495635863586
 1 -0.35870429072907 -1.18799956655666  1.36668012631263
 1 -5.96495067276728  6.60035754775478  0.15634546584659
 1 -5.22370384168417  6.21881476287629  1.90768278077808
 1 -4.24623946854686  5.88898316631663  0.53568430103010
 1 -9.25534579437944  5.99817319931993 -0.63533488618862
 1 -9.02007107080708  8.16018573957396  0.64137391309131
 1 -7.67671560366037  7.36349318571857  1.77157611791179
 1 -11.88826929992999  3.26093524062406 -2.04114994649465
 1 -13.01485878357836  1.88665740814081 -1.92066779497950
 1 -12.73804483718372  2.88286562066207 -0.48439887938794
 1 -12.37508947384738 -1.52589351215122 -1.00899440034003
 1 -13.31322362146215 -0.11705441594159 -1.49028478287829
 1 -13.18000319951995 -1.99222288438844 -3.25610656875688
 1 -12.21429183488349 -0.51551002230223 -3.97985696409641
 1 -11.26475131453145 -1.86312733993399 -3.38489676787679
 1 -8.48598321692169 -5.07164366516652 -2.28479454245425
 1 -8.20970535573557 -5.67263321662166 -0.34451440654065
 1 -9.71694587358736 -4.65485393379338 -0.82063433213321
 1 -3.28384590309031 -3.40284689028903 -0.17893563166317
 1 -1.38718210581058 -4.59411162456246  3.37828954655466
 1 -2.98826526382638 -5.42274179907991  4.03014405210521
 1 -1.66175669616962 -6.17366815161516  2.81692505360536
 1  2.57958601340134 -1.79469609240924 -1.59084053275328
 1  2.65681212251225  0.05119320412041 -2.03133419091909
 1  4.33158364506451 -1.08399681348135  0.44427582778278
 1  3.99477478897890  1.10737628032803 -2.63834432013201
 1  5.23214014621462  2.32426285018502 -1.84697213561356
 1  5.53348291679168  0.85619681058106 -3.16143240014001
 1  6.45348353225323  1.21813179377938  0.38583819771977
 1  6.17380525262526 -0.49678701540154  0.63602979847985
 1  7.38745086788679 -1.18845951895189 -1.03844860206021
 1  7.47670022852285  0.20878998199820 -1.92557338023802
 1  9.17213325762576  0.95492498999900  0.30957338543854
 1  8.76800992179218 -0.81505985868587  0.91387751115112
 1  10.28949358115812  0.29139528732873 -1.72008716671667
 1  9.31849145824583 -2.05428371187119 -2.42284066596660
 1  11.03055219581958 -2.22347574687469 -1.69652501060106
 1  9.55395759285929 -2.54272838753875 -0.67254464816482
 1  11.25626726832683  0.85222165556556  0.44484225502550
 1  11.31863945944595 -0.84334563216322  0.76316263636364
 1  12.79764771727173 -1.51888930823082 -1.32066433793379
 1  12.77497332723272  0.25483041904190 -1.62448678237824
 1  13.77779920022002  0.86083144644464  0.50404523322332
 1  14.03107141774177 -0.75676205510551  0.87985035903590
 1  15.36181658305831  0.33978737573757 -1.44100536933693
 1  15.98079187598760 -2.31969131033103 -0.32071020652065
 1  14.95753739813981 -2.15931045104511 -1.68975034853485
 1  16.53557183678368 -1.52209310631063 -1.53713022632263
 1  15.97855112861286  1.43392172587259  0.80371628792879
 1  16.52507658545855 -0.35195147994799  1.50277877257726
 1  18.37187392509251 -0.33566008000800 -0.39836003160316
 1  17.81033834343434  1.20489938403840 -1.11700744434443
 1  18.36262531943194  2.20220148814881  0.82138408520852
 1  18.78207416991699  0.96804164366437  1.75555880138014
 1  20.53984381668167  0.28772977057706 -0.10097420522052
 1  20.39640645914591  3.43960473697370 -0.99337152185219
 1  21.54344814561456  1.84027516961696 -1.58669665086509
 1  19.73906230383038  1.78337862806281 -1.70724910931093
 1  20.89182303580358  1.24095973687369  2.01739540834083
 1  22.27071496429643  1.78523899459946  1.02669932353235
 1  20.87776785528553  2.73313943114311  1.81741887858786

