%nproc=4
%Mem=2GB
# td=(NStates=1) CAM-B3LYP/6-31G(d,p) 

TD

0 1
12 -7.06373694669467  0.58126687478748 -0.00168248084808
 6 -4.85690030803080 -1.97429860826083  0.58061459415942
 6 -4.88280820972097  2.79676812411241  1.10878724362436
 6 -9.37412214771477  3.11528702420242 -0.45154801450145
 6 -9.49529984368437 -1.74234974597460 -0.76233266236624
 7 -5.09944336893689  0.35952577067707  0.86014643294329
 6 -4.35618532463246 -0.73296311831183  0.86169419261926
 6 -2.82820182558256 -0.37556698239824  1.17154750895089
 6 -2.97264070247025  1.16607927622762  1.62522325302530
 6 -4.44489148404841  1.49267001580158  1.24166119601960
 6 -2.82041712381238  1.12700498859886  3.16257766666667
 6 -1.92828628962896 -0.66142140354035  0.02407636593659
 6 -0.49467689028903 -0.37132147934794  0.41962609190919
 6  0.53114425162516 -0.67675118801880 -0.70399578007801
 8  0.24313555365537 -0.97777318491849 -1.84008033973397
 8  1.88497030753075 -0.42308970537054 -0.37462425132513
 7 -7.15669611751175  2.53235882568257  0.30060875637564
 6 -6.14722400140014  3.33799477527753  0.67571110471047
 6 -6.39057631073107  4.72461675107511  0.74196488368837
 6 -7.70421312831283  4.82654328582858  0.21641003230323
 6 -8.12498677027703  3.48773796909691 -0.05017247094709
 6 -5.43346130283028  5.75888835473547  1.14958971947195
 6 -8.52474027162716  6.05784681838184  0.10627761316132
 6 -8.34834872617262  7.16640275887589  0.78641489128913
 7 -9.14247652025202  0.71396425752575 -0.59428346204620
 6 -9.86080233993399  1.82195214831483 -0.71646797089709
 6 -11.18885798239824  1.49219755885589 -1.07273899339934
 6 -11.25901830573057  0.18785414951495 -1.21569028302830
 6 -9.92540822152215 -0.35312728702870 -0.88769378547855
 6 -12.28187701140114  2.49552012301230 -1.30975775057506
 6 -12.38339288558856 -0.82444985508551 -1.72352316081608
 6 -12.25683317171717 -1.19250166136614 -3.17812293089309
 7 -7.19333880218022 -1.39630924452445 -0.09267394439444
 6 -8.28861910171017 -2.22489766186619 -0.50394534973497
 6 -7.96495264086409 -3.53716198369837 -0.34882215951595
 6 -6.61287517161716 -3.56092042904290 -0.00990272217222
 6 -6.17106970337034 -2.22687096839684  0.20972377657766
 6 -8.79710717811781 -4.70343318571857 -0.84859333773377
 6 -5.39491396169617 -4.41040492399240  0.28912178477848
 8 -5.19694853275328 -5.57252173557356  0.25627265796580
 6 -4.24269784918492 -3.32866865666567  0.52375224052405
 6 -3.53133376427643 -3.80544576587659  1.88636900980098
 8 -3.73257485808581 -3.26458319451945  2.95370805190519
 8 -2.64618581228123 -4.79039376177618  1.69876845774577
 6 -2.11390197809781 -5.27352158125813  2.95804073957396
 6  2.84037654935494 -0.54189198379838 -1.34494569496950
 6  4.09510159915992 -0.39660783708371 -0.59332948194819
 6  5.04538802320232  0.38847511291129 -0.95725549824982
 6  5.11858028102810  1.30164281358136 -2.19478364366437
 6  6.43419775257526  0.49336118631863 -0.18729521472147
 6  7.62100963886389 -0.03795414231423 -0.99623657415742
 6  8.97017889048905  0.05683055265527 -0.11381319411941
 6  10.19543016751675 -0.48384545624562 -0.81073204370437
 6  10.09454615481548 -1.99737067316732 -1.20921438643864
 6  11.42844572147215 -0.17311109190919  0.08121899049905
 6  12.82371727942794 -0.54657870897090 -0.71139116201620
 6  13.97592706110611 -0.13895509830983  0.25138220572057
 6  15.33574969986999 -0.23720744984498 -0.36942518231823
 6  15.55275694459446 -1.70800843464346 -0.78855847354735
 6  16.39505361126113  0.38733309330933  0.50295480268027
 6  17.75123971337134  0.61887328572857 -0.13034884948495
 6  18.78297866736674  1.33540175717572  0.77236766976698
 6  20.25616428562856  1.26009634313431  0.18399316251625
 6  20.37541889568957  1.98190648784879 -1.15922691539154
 6  21.16892782358236  1.88323125942594  1.19404476787679
 1 -4.13071455595560  3.57406292769277  1.36240082698270
 1 -10.20385077777778  3.89438027302730 -0.56217160866087
 1 -10.00288357775777 -2.55331467226723 -0.90990764296430
 1 -2.50190664756476 -1.06010432433243  2.07079777097710
 1 -2.43848745394539  1.84149773237324  1.18612926332633
 1 -1.89345380288029  0.75941639453945  3.45020873437344
 1 -3.00402546254625  2.13991804930493  3.74653681908191
 1 -3.49637308000800  0.43654833883388  3.65503791659166
 1 -1.96057854275428 -1.79929989038904 -0.18015192439244
 1 -2.13861553405341 -0.05630838043804 -0.81392143174317
 1 -0.46722023942394  0.71553616751675  0.74246464556456
 1 -0.17045484748475 -0.85924043924392  1.39658361356136
 1 -5.84530330573057  6.65053369746975  0.78019372857286
 1 -5.32648963836384  6.03719708280828  2.21455775287529
 1 -4.52814677067707  5.41061222762276  0.72998617421742
 1 -9.26548860136014  5.62582873097310 -0.62665289348935
 1 -9.12169338523852  7.95757649654965  0.66968659045904
 1 -7.67355682148215  7.14306070557056  1.63379176467647
 1 -11.85972007710771  3.26138646464646 -1.84053705840584
 1 -13.14314398359836  2.02385627682768 -1.70736192769277
 1 -12.80022175327533  2.87449610431043 -0.33928517251725
 1 -12.37561233963396 -1.67781722682268 -1.38744369926993
 1 -13.46299501840184 -0.51891862866287 -1.53326885438544
 1 -13.12255860846085 -1.67358204440444 -3.44239412391239
 1 -12.40769433363336 -0.33809834743474 -3.66923041874187
 1 -11.30691697099710 -1.72087695479548 -3.43862248224822
 1 -9.28786838983899 -4.37567831073107 -1.78037130123012
 1 -8.16011537633763 -5.43661366556656 -0.84545415841584
 1 -9.60639052395240 -4.83781880318032 -0.08066988958896
 1 -3.21873256915692 -3.27990124082408  0.02193692219222
 1 -1.63426159265927 -4.37890433013301  3.41149406470647
 1 -2.98276788538854 -5.77613923152315  3.60746358525853
 1 -1.39592770427043 -6.05834510771077  2.70556450935094
 1  2.72763206730673 -1.42867470337034 -1.73741770677068
 1  2.70818829642964  0.11218549814982 -2.17131028322832
 1  4.12687359295930 -0.83769598479848  0.46850006600660
 1  4.21359032253225  1.27385609600960 -2.70104847454745
 1  5.18476388808881  2.32626288518852 -1.69397586578658
 1  5.79655696329633  1.12634374187419 -2.97351608260826
 1  6.67720978387839  1.60348434843484  0.09897254005401
 1  6.39321344074407  0.18670063266327  0.90974069076908
 1  7.42148953365337 -1.09800903610361 -1.22749407300730
 1  7.67361979787979  0.51211441954195 -2.02183510711071
 1  9.25024707630763  1.02296018101810  0.03225085728573
 1  8.90213870257026 -0.44260976717672  0.76964482818282
 1  10.19556710811081  0.15552809050905 -1.84214910441044
 1  9.20001498699870 -1.97817579407941 -1.88599452425242
 1  10.85365792149215 -2.15883266716672 -1.81262550645065
 1  10.04307719371937 -2.54998694069407 -0.26247568726873
 1  11.38175585648565  0.81074330453045  0.54385587308731
 1  11.48592164556456 -0.85444140544054  0.86911753335334
 1  12.70483380228023 -1.60033819501950 -0.81584925252525
 1  12.90106385888589 -0.09955926492649 -1.79321268256826
 1  13.82692412911291  0.97438999499950  0.33533087608761
 1  13.88342109520952 -0.80870047474747  1.11046756325633
 1  15.42852614111411  0.38537802280228 -1.34496885488549
 1  15.33787123002300 -2.42476276837684  0.16592513861386
 1  14.66809986068607 -1.91692406800680 -1.51960937603760
 1  16.54829445884588 -1.74770029492949 -1.06884835433543
 1  15.85423062376238  1.30380821452145  0.87970451475147
 1  16.69205365256526 -0.08980815591559  1.57189995119512
 1  17.98837977667767 -0.40949749714971 -0.46104944534453
 1  17.67998506300630  1.15663298219822 -1.08113168896890
 1  18.47797859045905  2.50330448814881  0.93210121542154
 1  18.65453261356136  0.93700788178818  1.76004600490049
 1  20.64572948564857  0.24512066026603 -0.04877781378138
 1  19.92983709030903  2.97349091099110 -1.00212380578058
 1  21.36593084518452  2.12104875767577 -1.36784814811481
 1  19.87761166556656  1.49656146694669 -2.10438740774077
 1  21.12768874407441  1.55359346844684  2.22528214541454
 1  22.10476218251825  2.20342157185719  0.93055802210221
 1  20.57549727962796  2.78929901320132  1.48498893939394

