%nproc=4
%Mem=2GB
# td=(NStates=1) CAM-B3LYP/6-31G(d,p) 

TD

0 1
<<<<<<< HEAD
12 -7.19324989798980  0.62524127222722  0.14690237763776
 6 -4.87274189218922 -1.87030820922092  0.45341187388739
 6 -4.82279220812081  2.86952539983998  1.15084144904490
 6 -9.52912764826483  3.06844233973397 -0.28481134083408
 6 -9.68876919061906 -1.77557306830683 -0.71346777587759
 7 -4.99576300090009  0.47444726282628  0.54948536683668
 6 -4.29587929402940 -0.57562738473847  0.67325534873487
 6 -2.88400740614061 -0.41118054375438  1.01780213441344
 6 -2.96384982338234  1.17596026432643  1.49669039973997
 6 -4.30538753365336  1.52064281308131  1.05182221212121
 6 -2.68439352145215  1.31838412651265  3.03863527242724
 6 -1.88389185018502 -0.52621788318832 -0.11072711441144
 6 -0.45039246184618 -0.40595494269427  0.49379350865087
 6  0.56905804300430 -0.73204671757176 -0.69251463196320
 8  0.28754999509951 -1.11045645324532 -1.82217854955496
 8  1.82940475097510 -0.48529592599260 -0.14429121802180
 7 -7.18905935383538  2.72262785258526  0.40960965646565
 6 -6.08535781478148  3.41774275007501  0.67179071267127
 6 -6.43042029512951  4.78743303270327  0.69522020922092
 6 -7.78453116011601  4.83772440394039  0.37682607390739
 6 -8.20824509610961  3.54369356465647  0.00762330863086
 6 -5.64111206790679  5.97009947584758  1.14180894139414
 6 -8.62543034063406  6.01161219491949  0.14667165256526
 6 -8.65338923022302  7.20823694229423  0.89594584438444
 7 -9.22324459705971  0.58896175727573 -0.43432746644664
 6 -10.04236049574958  1.74217417051705 -0.56274259835984
 6 -11.36507560416042  1.41111945104510 -1.00233195269527
 6 -11.28605100900090  0.08851421552155 -1.14655336933693
 6 -9.97618329902990 -0.47376935123512 -0.74860987708771
 6 -12.41394021772177  2.37930850185018 -1.51558833363336
 6 -12.40548509480948 -0.79006641674167 -1.59039984848485
 6 -12.26607409580958 -1.01671408260826 -3.17885300390039
 7 -7.27501696999700 -1.38483809740974 -0.05012968996900
 6 -8.28372861266127 -2.23462863496350 -0.40441539673967
 6 -7.84133027862786 -3.66963523102310 -0.33696097339734
 6 -6.47053093719372 -3.52653699069907 -0.06751848374837
 6 -6.23536613301330 -2.08745702700270  0.08965176937694
 6 -8.60852832023202 -4.80162300470047 -0.75854433283328
 6 -5.30757522782278 -4.35577946144614  0.17579045164516
 8 -5.12902174007401 -5.53476796019602  0.26186321702170
 6 -4.12457603700370 -3.25847163696370  0.43779364466447
 6 -3.40877150805081 -3.58710393169317  1.75455582848285
 8 -3.71728332893289 -3.02806954315432  2.88486116721672
 8 -2.47953914761476 -4.57419214161416  1.63107168806881
 6 -2.01091167906791 -5.10144437353735  2.85676061156116
 6  2.79716222792279 -0.84592238683868 -1.13473467386739
 6  4.17978006700670 -0.63881205750575 -0.51981213021302
 6  5.16344982938294  0.26882314771477 -0.87470724342434
 6  5.01759018201820  1.14363701300130 -2.03235740104010
 6  6.48663299609961  0.25368721892189 -0.21572805800580
 6  7.59606714461446 -0.27023737063706 -1.08207515801580
 6  8.92766463906391 -0.22419755015502 -0.23130494329433
 6  10.34100472497250 -0.58447551925193 -0.90414138463846
 6  10.23251995219522 -2.08041897799780 -1.36670013501350
 6  11.51617449434944 -0.32428620942094 -0.05611474287429
 6  12.84192910061006 -0.61114516561656 -0.65172519541954
 6  13.98571804020402 -0.18302950575058  0.27410447794779
 6  15.27435356025603 -0.19105283438344 -0.38567680748075
 6  15.77239890879088 -1.60155778957896 -0.80321993969397
 6  16.43373747964797  0.36894125412541  0.47256176337634
 6  17.81682627202720  0.47275867426743 -0.20637645224522
 6  18.79732010151015  1.17301551855186  0.67665809880988
 6  20.17269593879388  1.46270660416042  0.23493825702570
 6  20.32682403620362  2.43220151735173 -0.94421541424142
 6  21.02473340414042  1.84804774107411  1.37735309870987
 1 -4.09350083458346  3.68593411481148  1.46070065696570
 1 -10.49054944764477  3.85326616161616 -0.44589998149815
 1 -10.39524281368137 -2.37525686648665 -0.99793644584458
 1 -2.67613407030703 -0.75494380828083  1.95906659785979
 1 -2.42580618581858  1.69574315691569  0.73329397979798
 1 -1.75850030753075  1.19878033093309  3.25370908440844
 1 -3.03596865686569  2.37408146564657  3.12401456685669
 1 -3.43743718641864  0.53502818681868  3.58864127692769
 1 -2.09119160406041 -1.51748170857086 -0.70234414361436
 1 -2.16790846334633  0.25986323672367 -0.99679971957196
 1 -0.18621213861386  0.56722133603360  0.63375377447745
 1 -0.27151495349535 -1.11368588378838  1.28951290649065
 1 -6.04363313871387  6.93040168426843  0.56912262146215
 1 -5.62183917331733  6.30677404050405  2.12236853395340
 1 -4.52873682968297  5.79948111451145  0.79937311291129
 1 -9.37643969646965  6.08759490759076 -0.58858908710871
 1 -9.49347056295630  7.86801754065407  0.72985260706071
 1 -8.24933439923992  7.27390378987899  1.83878226372637
 1 -11.97866197129713  3.07600792679268 -2.27654065876588
 1 -13.23280294949495  1.92963685488549 -2.17962915441544
 1 -12.91254298539854  2.93447210191019 -0.51954319831983
 1 -12.32444722312231 -1.92705215031503 -1.25783073797380
 1 -13.28961768066807 -0.52251898869887 -1.44979050655066
 1 -13.12902925552555 -1.71601628782878 -3.41823170767077
 1 -12.36055962016202 -0.03777831543154 -3.89794329002900
 1 -11.61977825712571 -1.71746661376138 -3.38070669066907
 1 -8.97091669466947 -4.74676541944194 -1.84661792589259
 1 -7.94878424322432 -5.70616062026203 -0.56455606860686
 1 -9.67528741364136 -4.92200722202220 -0.20329215181518
 1 -3.43340403630363 -3.26306955765577 -0.37612288378838
 1 -1.56615478197820 -4.33336977667767  3.41670458575858
 1 -3.00848045664566 -5.49963158075808  3.37809064796480
 1 -1.22355046654665 -5.79794906810681  2.54342829572957
 1  2.86726603070307 -1.87937977387739 -1.55756972197220
 1  2.51128860646065 -0.30827654805481 -2.05303845604560
 1  4.18452935853585 -1.13255547074707  0.46072928892889
 1  4.01690065356536  1.70609932033203 -2.42910127982798
 1  5.76194160586059  1.98519877877788 -1.94500096829683
 1  5.48878618621862  0.65664677217722 -2.82817154815482
 1  6.59960202310231  1.26414041404140  0.21533417621762
 1  6.44558867826783 -0.37663570097010  0.63947366406641
 1  7.24763214791479 -1.34787402260226 -1.39776109970997
 1  7.84015645154515  0.15846905500550 -2.04671759535954
 1  9.05537758935893  0.84818270327033  0.26064369656966
 1  8.95713420212021 -1.01352685888589  0.62591045474547
 1  10.56577412881288  0.12576511421142 -1.83629851935193
 1  9.43185817131713 -2.20895887238724 -2.22960888568857
 1  11.19883243894390 -2.50084686858686 -1.74922916681668
 1  10.14332721872187 -2.81581352335234 -0.42643208290829
 1  11.39014669556956  0.86741897209721  0.25856734423442
 1  11.42320537393739 -0.84912087338734  0.98506912851285
 1  12.97405072397240 -1.53374153535354 -0.83219088668867
 1  12.74096784928493 -0.09850915991599 -1.83005636693669
 1  13.75353679037904  0.80394295029503  0.53550089308931
 1  13.87234998809881 -0.87935754045405  1.18498501500150
 1  15.10318360686069  0.27776726172617 -1.33186754475448
 1  15.95116255915592 -2.16281657375738 -0.04402585648565
 1  15.01355440614062 -1.87901027662766 -1.69050646574657
 1  16.59093872327233 -1.63793931883188 -1.42188365786579
 1  15.91845704640464  1.43895172887289  0.66381292559256
 1  16.38091253845384 -0.14566374147415  1.40387314851485
 1  18.04232517121712 -0.58634518191819 -0.29603294369437
 1  17.60963802830283  1.05428274717472 -0.99913348914891
 1  18.50816160876088  2.25164932263226  1.49725773107311
 1  18.88392555285529  0.49092327332733  1.73628362866287
 1  20.59386429912991  0.53369951815182 -0.04601753775377
 1  19.99121322792279  3.44569813171317 -0.56794038743874
 1  21.33692794489449  2.41539819261926 -1.30480184348435
 1  19.59655355975598  2.18231004180418 -1.77926489548955
 1  20.59525550075007  1.45119322842284  2.41925154235424
 1  22.12604431073107  1.65359658935894  1.20753571987199
 1  20.95292502240224  2.94963504680468  1.57973841434143
=======
12 -7.05594616761676  0.51175992409241  0.06646433383338
 6 -4.83039765776578 -1.94159533793379  0.50073660636064
 6 -4.79684961386139  2.88645709300930  1.15231159605961
 6 -9.43368810431043  3.14046954245425 -0.31891475117512
 6 -9.61149146284628 -1.74057956895690 -0.86230265936594
 7 -5.06419984458446  0.47071688978898  0.62244266256626
 6 -4.34925463156316 -0.66313613561356  0.70649867306731
 6 -2.89618862426243 -0.34725415111511  1.15095544974497
 6 -3.05401884028403  1.11498416671667  1.61371210191019
 6 -4.40003699859986  1.55509625842584  1.01385841574157
 6 -3.08565364746475  1.19938222632263  3.14446585548555
 6 -1.87425088608861 -0.56519178057806 -0.08575461716172
 6 -0.48545596819682 -0.40346469366937  0.48400252955296
 6  0.48622976017602 -0.65137865076508 -0.52140752125212
 8  0.20936217631763 -1.07156256385639 -1.60778711041104
 8  1.75414722522252 -0.51831922832283 -0.07611440034003
 7 -7.09241968986899  2.58040363016302  0.23830252575257
 6 -6.00506978597860  3.33598457425743  0.70634416801680
 6 -6.28856610971097  4.70311460086009  0.70037072427243
 6 -7.63758646564656  4.87044767626763  0.37937632893289
 6 -8.12074634623462  3.40746994229423  0.03187573387339
 6 -5.29425738243824  5.85607807370737  1.18754351485149
 6 -8.52901069866987  6.06207724142414  0.17967495289529
 6 -8.38527241854185  7.20017613621362  0.81718796859686
 7 -9.14797707030703  0.68082094319432 -0.56041007470747
 6 -9.91771803150315  1.80786073917392 -0.72342866696670
 6 -11.23033212981298  1.51126946604660 -1.11336305580558
 6 -11.25378778267827  0.14283964806481 -1.25620433443344
 6 -9.94215989668967 -0.37269924422442 -0.92574759085909
 6 -12.24479330303030  2.53128369936994 -1.36427320212021
 6 -12.37448199449945 -0.73875128522852 -1.76051686018602
 6 -12.26976446484649 -1.08261067226723 -3.26504162276228
 7 -7.18982845114512 -1.39109872347235 -0.08270294729473
 6 -8.31640187998800 -2.26869204130413 -0.44199915511551
 6 -7.87778392399240 -3.56054432193219 -0.40428770607061
 6 -6.51259514361436 -3.59062339933993 -0.05018675057506
 6 -6.21625422182218 -2.13029131043104  0.19978278247825
 6 -8.70957842524252 -4.79433227562756 -0.71326980538054
 6 -5.32355682598260 -4.36138002150215  0.15293816641664
 8 -5.22364120202020 -5.57551203460346  0.22892992369237
 6 -4.22263584298430 -3.31655744554455  0.58088795409541
 6 -3.57214784568457 -3.65186040734073  1.80592096499650
 8 -3.84015561616162 -3.13902063826383  2.87265994709471
 8 -2.74851604530453 -4.76693141554155  1.75598417931793
 6 -2.17188777667767 -5.24574880398040  2.95318025352535
 6  2.67888039973997 -0.65010280488049 -1.17166836723672
 6  4.12500458945895 -0.56606478277828 -0.54454460346035
 6  5.19902338673867  0.22309857525753 -1.02061183388339
 6  5.13834225722572  0.99282193149315 -2.28517268256826
 6  6.33872820562056  0.24472632283228 -0.18834531973197
 6  7.62968050595059 -0.24187453435344 -0.88508545904590
 6  8.98639051165117 -0.08632376277628 -0.05983779657966
 6  10.17593821832183 -0.59923699539954 -0.73095406590659
 6  10.12870957115712 -2.10049098519852 -1.23485695069507
 6  11.43841671857186 -0.22727650845085  0.05386625522552
 6  12.72383729142914 -0.46501055215522 -0.70554057695770
 6  14.00908037643764 -0.24376557935794  0.27562462996300
 6  15.41044716961696 -0.23549727882788 -0.41874011381138
 6  15.75095676457646 -1.51665929972997 -0.98633825152515
 6  16.41596570247025  0.42624698469847  0.40795530273027
 6  17.76412100150015  0.67041844024402 -0.27976379097910
 6  18.82889325882588  1.27276549354935  0.75857629062906
 6  20.14799346854685  1.51833216671667  0.20251501470147
 6  20.30675202900290  2.35710400760076 -1.06040703340334
 6  21.15979691049105  2.10403333963396  1.18920428382838
 1 -4.04544602910291  3.65433095449545  1.42487707460746
 1 -10.18405879857986  3.92794362936294 -0.72732812431243
 1 -10.34305759515952 -2.58034737553755 -1.12727938013801
 1 -2.51480793769377 -1.12414072797280  1.85684637583758
 1 -2.22785639083908  1.76402998559856  1.30240089048905
 1 -2.07976243374337  0.97593804670467  3.43554726822682
 1 -3.61986704670467  2.19201325882588  3.45207737313731
 1 -3.56797023972397  0.45208989298930  3.68761117391739
 1 -1.98910139503950 -1.58555851625163 -0.35628953815381
 1 -2.03402507500750  0.09841709210921 -0.83557359695970
 1 -0.26245976337634  0.65084969886989  0.88011841094109
 1 -0.29603740574057 -1.08591310651065  1.25596955215522
 1 -5.51337011241124  6.77707635173517  0.84167987718772
 1 -5.28170515991599  5.98678204130413  2.24689098619862
 1 -4.18983293929393  5.78260942734273  0.99948312391239
 1 -9.42389444194419  5.70712686078608 -0.61772200040004
 1 -9.11576279217922  8.06431717061706  0.88919854165417
 1 -7.59976944274427  7.20031643114311  1.75017340284028
 1 -11.84698880398040  3.52779310531053 -1.87624062876288
 1 -13.14599426862686  2.35057894909491 -1.92288347984799
 1 -12.47816954805481  2.96324497919792 -0.32114335833583
 1 -12.45714049244925 -1.64574401950195 -1.21077603250325
 1 -13.34058277717772 -0.23214995179518 -1.36302182968297
 1 -13.18371472407241 -1.41976666286629 -3.71859174367437
 1 -11.92924648884889 -0.15139967756776 -3.81728522422242
 1 -11.49193547284729 -1.65240010711071 -3.46013463346335
 1 -9.19383898689869 -4.60553129602960 -1.72530579467947
 1 -8.12317168196820 -5.67943794799480 -0.75190480348035
 1 -9.32307219211921 -4.83558858015802  0.17206538393839
 1 -3.47381807770777 -3.41899515021502 -0.20232550405040
 1 -1.67755592209221 -4.42624906460646  3.51119403470347
 1 -3.07336694529453 -5.73699531713171  3.46331917081708
 1 -1.62376048754875 -5.95781505470547  2.60289424232423
 1  2.54856416051605 -1.55959779567957 -1.67317128212821
 1  2.62858033563356  0.19184346394639 -1.91298445064506
 1  4.27966887248725 -1.18029024422442  0.25355857185719
 1  4.08217718121812  1.20044875527553 -2.90443881358136
 1  5.36173158485849  2.07568782768277 -2.34029049724972
 1  5.64844215181518  0.37048815631563 -3.11336006700670
 1  6.37472953585358  1.22582658265827  0.29250189298930
 1  6.22781690109011 -0.26187422482248  0.85051476817682
 1  7.43691107580758 -1.35220445564556 -1.07650897449745
 1  7.54222665856586  0.18108131623162 -1.92894581818182
 1  9.16114816641664  1.00449833483348  0.01309894209421
 1  9.03764225292529 -0.53831933813381  0.90783864756476
 1  10.23501105250525 -0.25679314161416 -1.65421031053105
 1  9.16969195469547 -2.22063003950395 -1.64586051085109
 1  10.93057561326133 -2.65851263516352 -1.93027727162716
 1  10.37396028202820 -2.76578852085209 -0.16792623232323
 1  11.57693537443744  0.72948517871787  0.60990247774777
 1  11.43370642404240 -0.88851481278128  0.93562418401840
 1  12.64280759965997 -1.46386454765477 -1.03311097869787
 1  12.88234198669867  0.25371606260626 -1.82365572687269
 1  13.64350578727873  0.66557911391139  0.79546688968897
 1  14.02462521562156 -1.00684028872887  1.15494201070107
 1  15.18761204970497  0.55559504450445 -1.33159751775178
 1  15.95786322922292 -2.22761305340534 -0.25227668156816
 1  14.98886193689369 -2.17071944754476 -1.63474088918892
 1  16.72744237363737 -1.64534005890589 -1.66113758325833
 1  16.22807800850085  1.36132396609661  0.93523006730673
 1  16.69013346054605 -0.30946012111211  1.32260502170217
 1  18.36737767646765 -0.25062160956096 -0.72287562796280
 1  17.59388645314532  1.21152847174718 -1.12569614541454
 1  18.41118191079108  2.22470662836284  1.21519952525253
 1  18.76176333663366  0.49893407440744  1.57589759005901
 1  20.52865777847785  0.38877502570257 -0.09835277127713
 1  19.72645675227523  3.17490105200520 -0.88078167156716
 1  21.36302055415542  2.62614926772677 -1.30363172647265
 1  19.72969687408741  1.79047085788579 -1.75264223322332
 1  21.11695767096710  1.64819292839284  2.22874249144915
 1  22.34712641894189  1.84175540524052  0.78553351965196
 1  21.07209693959396  3.29682976627663  1.35793623412341
>>>>>>> 8e03b5b5abfc0030b3aa597dc0de36371bfbd096

