%nproc=4
%Mem=3GB
# td=(NStates=1) iop(3/107=0140000000,3/108=0140000000) CAM-B3LYP/6-31G(d,p) 

TD

0 1
12 -7.19187387908791  0.56537492099210  0.12486885688569
 6 -4.87545636213621 -1.99465669626963  0.45067046944694
 6 -4.80777680828083  2.88268698659866  1.22145225042504
 6 -9.46358312281228  3.12938049104911 -0.34130660596060
 6 -9.58034413241324 -1.72210397609761 -0.86204300920092
 7 -5.12199923112311  0.36679276987699  0.72510033403340
 6 -4.36491873917392 -0.67682882608261  0.81745964066407
 6 -2.91137735833583 -0.34257265526553  1.22550821992199
 6 -3.05660888778878  1.04886358795880  1.71444772407241
 6 -4.44638487318732  1.47447209830983  1.16871126502650
 6 -3.06234241504150  1.14346716601660  3.21766708130813
 6 -1.91754748444845 -0.44155014421442 -0.02993918361836
 6 -0.41825753495350 -0.40949419741974  0.47280066236624
 6  0.50920284348435 -0.61413803570357 -0.60263005310531
 8  0.27918813561356 -1.03371714941494 -1.73131052415242
 8  1.84006260466047 -0.47830776917692 -0.14987037463746
 7 -7.12601024442444  2.63738694859486  0.33226415051505
 6 -6.00295043884388  3.38833260066007  0.76722259835984
 6 -6.39050395879588  4.75632249584959  0.77812607130713
 6 -7.74317910321032  4.86944875007501  0.37892401880188
 6 -8.15503503100310  3.48027496629663 -0.00325232663266
 6 -5.48267030093009  5.86780625432543  1.18412856805681
 6 -8.54510451845185  5.99468973857386  0.12069268176818
 6 -8.41548995899590  7.20911006070607  0.64638869816982
 7 -9.13644268536854  0.72796979137914 -0.47514408830883
 6 -9.92302978927893  1.77691101540154 -0.67045985948595
 6 -11.25833978667867  1.45746519101910 -1.06703156285629
 6 -11.31450093729373  0.05664321012101 -1.15939596789679
 6 -10.01172877647765 -0.35821601500150 -0.79906210751075
 6 -12.32919385708571  2.54243948534853 -1.36832628532853
 6 -12.49642343524352 -0.72361848564857 -1.64824415501550
 6 -12.31409331823182 -1.02033222552255 -3.19744039523952
 7 -7.14872783518352 -1.45430026572657 -0.26442911801180
 6 -8.25781010731073 -2.19133767926793 -0.69228080798080
 6 -7.83502554235424 -3.59670022142214 -0.58760906070607
 6 -6.52833062356236 -3.63683666576658 -0.04293637533753
 6 -6.14369810151015 -2.16174413021302  0.03875571097110
 6 -8.60465280478048 -4.85112121052105 -0.91574495759576
 6 -5.35755121802180 -4.33834739813981  0.19878485258526
 8 -5.10603159545955 -5.57083394039404  0.19799574817482
 6 -4.10662516511651 -3.34152159955996  0.49780810241024
 6 -3.52845702250225 -3.60766870957096  1.84716068456846
 8 -3.81187397079708 -3.00549790769077  2.90974433263326
 8 -2.76450180298030 -4.70319893839384  1.86341537903790
 6 -2.16161511851185 -5.21045625152515  3.01245864626463
 6  2.84354067446745 -0.73621191009101 -1.24543806100610
 6  4.16391727692769 -0.51462673057306 -0.51297386018602
 6  5.10359585088509  0.25635216321632 -0.95723860086009
 6  5.05741946754675  1.26400407570757 -2.05157929292929
 6  6.43539981868187  0.44848546454645 -0.26912743714371
 6  7.72622407500750 -0.15446399439944 -1.04563489218922
 6  8.94495220682068 -0.15685750185018 -0.24348045044504
 6  10.20505596619662 -0.59570123332333 -0.91695741574157
 6  10.14316759335934 -1.98859673957396 -1.51785875187519
 6  11.45721038483848 -0.28807369846985 -0.15785374787479
 6  12.83000073557356 -0.57006704020402 -0.66495400050005
 6  13.99412068386839 -0.18298401270127  0.25411182278228
 6  15.29949594059406 -0.26293537713771 -0.45834148664866
 6  15.74987125812581 -1.70126851515152 -0.88938076437644
 6  16.43878087078708  0.35165168246825  0.44040877557756
 6  17.88246583428343  0.54370810041004 -0.13078960596060
 6  18.77870828942894  1.25594367286729  0.79123237993799
 6  20.22335513991399  1.37520695319532  0.30309701570157
 6  20.41507435323532  2.07207451255125 -1.09178387428743
 6  21.12460752775278  1.98023972387239  1.36487042704270
 1 -4.10765112861286  3.76580983238324  1.68519461526153
 1 -10.20048217151715  3.94509678417842 -0.24915944214421
 1 -10.25247967206721 -2.61295683078308 -1.12611043044304
 1 -2.49990727792779 -0.91554175687569  2.01041753245324
 1 -2.18758222452245  1.64415647674768  1.44443809280928
 1 -2.12208529492949  0.85579468586859  3.76916725412541
 1 -3.37151426052605  2.16891611441144  3.79914793699370
 1 -3.74809761026103  0.15325047934794  3.60663234843484
 1 -2.07058217721772 -1.46095676647665 -0.22698070517052
 1 -2.10743711271127  0.34113173297330 -0.78978571317132
 1 -0.05561098979898  0.54210379767977  0.93808767176718
 1 -0.29509793009301 -1.20487125372537  1.39208266656666
 1 -5.57006118381838  6.70567807980798  0.69884971627163
 1 -5.39602107340734  6.13812669406941  2.20181219371937
 1 -4.44717956255626  5.66137040504050  0.57876860946095
 1 -9.38266852665267  5.86846022802280 -0.68320967366737
 1 -9.31202026572657  8.03409313031303  0.31216099179918
 1 -7.61056898899890  7.30731756815682  1.46342530283028
 1 -11.87368784178418  3.09486863396340 -2.13023885538554
 1 -13.34481177887789  2.10751949434943 -1.60319604780478
 1 -12.37861889458946  3.26278361246125 -0.42552299179918
 1 -12.34644660956096 -1.56176709950995 -1.03428692959296
 1 -13.58933123222322 -0.31618432893289 -1.43836959135914
 1 -13.19537473667367 -1.72559622172217 -3.60826178427843
 1 -12.19225963166317 -0.07613608490849 -3.73977295569557
 1 -11.41053589298930 -1.48178920612061 -3.36225450365037
 1 -9.18346296489649 -4.82783928472847 -1.93927999099910
 1 -7.76050043524352 -5.53688964226423 -0.93204315941594
 1 -9.48875305430543 -4.78777722612261 -0.27008927762776
 1 -3.59697721622162 -3.49783638923892 -0.40104784288429
 1 -1.51529491709171 -4.40389260266027  3.54511622922292
 1 -3.03617005430543 -5.37116664156416  3.73260429812981
 1 -1.53907442794279 -6.11333211801180  2.81450481158116
 1  2.79831788658866 -1.70114673747375 -1.62652410111011
 1  2.60282672397240  0.05832391719172 -1.97206826432643
 1  4.11715220192019 -1.06519493329333  0.47949935013501
 1  4.04655996749675  1.24304984768477 -2.60525101080108
 1  5.08187511971197  2.34840526442644 -1.92052949134914
 1  5.72240180868087  1.29512070297030 -2.87117337423742
 1  6.51931011491149  1.36934691529153 -0.19438982508251
 1  6.36620449254926 -0.02452978967897  0.87898409390939
 1  7.52403452625263 -1.28634930793079 -1.32024678187819
 1  7.83146570507051  0.25526462946295 -1.84415523842384
 1  9.15877192149215  0.71798129562956  0.16366879497950
 1  8.88729184998500 -0.96740509320932  0.54806092949295
 1  10.32226685848585  0.32088823662366 -1.74461961996200
 1  9.41566117521752 -2.12064034753475 -2.17836621852185
 1  11.13742288288829 -2.27464086338634 -1.87200255835584
 1  10.28722091919192 -2.81801591629163 -0.69831722542254
 1  11.25480712231223  0.63828026142614  0.34069183998400
 1  11.28497609310931 -0.93967526512651  0.66605292539254
 1  12.89321727422742 -1.59825724502450 -0.88449072057206
 1  12.79672550245025  0.00443537953795 -1.59714404810481
 1  13.78201962226223  0.86115147844784  0.52999782848285
 1  14.04921323192319 -0.71710808970897  1.09652202620262
 1  15.26519692109211  0.35942933993399 -1.44554582338234
 1  15.63396719351935 -2.28419776097610  0.12386425092509
 1  15.03729537393739 -2.24607912791279 -1.32821419491949
 1  16.90856913651365 -1.68212910991099 -1.11793830713071
 1  16.04385765926592  1.47449578327833  0.47632354865487
 1  16.62200627842784 -0.15586187098710  1.34384287898790
 1  18.22837957565757 -0.39730624462446 -0.41770196579658
 1  17.92185949554955  1.06863575767577 -1.10620636423642
 1  18.35912496939694  2.27019828782878  1.03652559935994
 1  18.93541950445045  0.90194503400340  1.89846309180918
 1  20.61357118941894  0.32555355295530  0.14705059725973
 1  20.00033685218522  3.10918169466947 -1.02253443814381
 1  21.38816261706171  2.24128527062706 -1.61651963316332
 1  19.73645204280428  1.74342463266327 -1.91453983838384
 1  21.19170302380238  1.59112475337534  2.30685435423542
 1  22.19562745554555  1.86407687838784  0.92100875447545
 1  20.91383146164616  3.06237235443544  1.60137727442744

