%nproc=4
%Mem=3GB
# td=(NStates=1) iop(3/107=0140000000,3/108=0140000000) CAM-B3LYP/6-31G(d,p) 

TD

0 1
12 -7.11722641434143  0.56326470997100  0.10104647464746
 6 -4.87172598909891 -2.04157138773877  0.48530393279328
 6 -4.76669269986999  2.79263798169817  1.24581468666867
 6 -9.30355712021202  3.10576812981298 -0.40140261556156
 6 -9.55863196119612 -1.68875064076408 -0.91826863176318
 7 -5.05764279547955  0.43429952055206  0.73296112011201
 6 -4.36623887118712 -0.70447159035904  0.79116701140114
 6 -2.85292151275128 -0.43620201820182  1.18464413351335
 6 -3.02938616551655  1.01928062966297  1.78790506980698
 6 -4.28825906060606  1.49796444754475  1.16154054795480
 6 -3.16128230903090  0.96995981528153  3.25058037263726
 6 -1.96380210991099 -0.43442943214321 -0.10374656435644
 6 -0.49551526072607 -0.33665691369137  0.39274265656566
 6  0.46896882008201 -0.50867748964897 -0.72579236933693
 8  0.20299051585159 -0.83966774447445 -1.84710210331033
 8  1.69053765216522 -0.26879681808181 -0.37739312691269
 7 -7.06059370277028  2.58757196709671  0.47387831193119
 6 -5.98970911471147  3.31099486688669  0.83687956405641
 6 -6.34510941934193  4.78714557815782  0.78573683238324
 6 -7.68132291759176  4.89780158535854  0.25610173657366
 6 -8.05893542104210  3.46706364516452  0.05514351295130
 6 -5.50627266116612  5.90962043574357  1.17977813301330
 6 -8.48912892089209  6.07294756435644  0.00272088458846
 6 -8.42732114211421  7.27918706840684  0.54862892219222
 7 -9.11000004110411  0.71025802020202 -0.51627820172017
 6 -9.82806029232923  1.78916224052405 -0.65362817631763
 6 -11.14637859055906  1.49891933643364 -1.12353721342134
 6 -11.16356584378438  0.11811935773577 -1.14364439273927
 6 -9.85120272387239 -0.35962615601560 -0.80068226952695
 6 -12.27496843454345  2.40450569196920 -1.26893634633463
 6 -12.30595438833883 -0.76263238703870 -1.77474680528053
 6 -12.05906781568157 -1.16126631893189 -3.24588523972397
 7 -7.25054801720172 -1.37713254895490  0.03452077697770
 6 -8.30956528282828 -2.24204274977498 -0.40865244514451
 6 -7.82588462826283 -3.60130068146815 -0.53636393619362
 6 -6.51469926042604 -3.62488547064706  0.03468138643864
 6 -6.24151788348835 -2.19782773857386  0.28935077047705
 6 -8.60574291379138 -4.78190428882888 -0.94441782488249
 6 -5.28906436933693 -4.43027659105911  0.17364233833383
 8 -5.24792578487849 -5.62224908190819  0.08342429102910
 6 -4.15733023562356 -3.46548399579958  0.47292561416142
 6 -3.60279445624562 -3.77421536423642  1.87338330683068
 8 -3.86241902530253 -3.15937329522952  2.88403176137614
 8 -2.77384273707371 -4.76751537003700  1.78930796829683
 6 -2.08515747274728 -5.15302050795079  3.07511491189119
 6  2.76778309870987 -0.69080736963696 -1.36661017821782
 6  4.04276516171617 -0.41812708060806 -0.67537009980998
 6  5.15664115541554  0.42186871487149 -0.89614249124913
 6  5.09544326992699  1.23611128642864 -2.16745088008801
 6  6.36891317001700  0.38709932593259 -0.08379890429043
 6  7.61493294589459 -0.12254080208021 -0.84126445514551
 6  8.87592530413041 -0.16113792989299 -0.10962706510651
 6  10.14699015961596 -0.52295395859586 -0.83631935193519
 6  10.10387366396640 -2.01554943484348 -1.41784875087509
 6  11.36881154495449 -0.12261715281528  0.00266230373037
 6  12.63069080458046 -0.37529756325633 -0.69226673177318
 6  13.90877214901490 -0.04361007530753  0.28452486408641
 6  15.26933292429243 -0.22793187678768 -0.49096474897490
 6  15.58028429942994 -1.72728111641164 -0.66505833213321
 6  16.43465045774578  0.38348486578658  0.39035377007701
 6  17.80923851155115  0.46860058965897 -0.20223675067507
 6  18.80448086668667  1.25248332683268  0.64314757145715
 6  20.30052285668567  1.22576200870087  0.17778448444844
 6  20.49413225902590  2.05399270437044 -1.11979667556756
 6  21.10486555355536  1.76560826072607  1.31966590659066
 1 -4.13075343884388  3.60655390679068  1.84405050085008
 1 -9.97941006430643  3.97621989648965 -0.68244277047705
 1 -10.32519694379438 -2.33012854795480 -1.17202502190219
 1 -2.68805609280928 -1.12368257095710  1.83981047174717
 1 -2.23109657595760  1.79158121922192  1.48381203020302
 1 -2.07273035943594  1.01935104150415  3.63792412981298
 1 -3.77476458555856  1.82770199299930  3.61864988718872
 1 -3.78532133263326  0.04155931023102  3.71096278147815
 1 -2.15301042004200 -1.46639731053105 -0.72481048814881
 1 -2.21002737173717  0.22636025582558 -0.67831456605661
 1 -0.22642807150715  0.68031761906191  1.01330519351935
 1 -0.28334675497550 -1.05965673227323  1.19305276357636
 1 -5.70054423212321  6.82000951295130  0.61198102940294
 1 -5.46890836213621  6.07859074047405  2.28667067956796
 1 -4.34867971257126  5.77007127512751  0.99730046264626
 1 -9.35111537133713  5.93368675067507 -0.68177953065307
 1 -8.96609567326733  8.11778149914992  0.21721149684969
 1 -7.60552848494850  7.37775461186119  1.28419738003800
 1 -12.05180565356536  3.01871101820182 -2.04948077957796
 1 -13.32277957565756  2.01565030743074 -1.34936066426643
 1 -12.54964599729973  2.90465779987999 -0.28888932843284
 1 -12.58725068996900 -1.57353827662766 -1.16771027192719
 1 -13.24635693479348 -0.21227393789379 -1.73518927332733
 1 -12.81914711391139 -1.76023968606861 -3.66859781788179
 1 -11.99180958665866 -0.24465293659366 -3.98590756915692
 1 -11.15355019441944 -1.76269729692969 -3.25012329052905
 1 -8.89731435003500 -4.61311781258126 -2.06653271627163
 1 -7.97089147434743 -5.84523047634764 -1.06316627172717
 1 -9.08129230823082 -5.35424387278728 -0.26545881458146
 1 -3.31421894039404 -3.37638424402440 -0.32667040514051
 1 -1.58743213081308 -4.39703191659166  3.53796551415142
 1 -2.89407584488449 -5.34715424032403  3.92652369006901
 1 -1.64744526502650 -6.14267505230523  2.91159452055206
 1  2.66272432723272 -1.55607223002300 -1.62801425012501
 1  2.59037547884788 -0.02070398559856 -2.22077313481348
 1  4.06323681038104 -1.14713312711271  0.32913431363136
 1  3.97330264176418  1.20465600830083 -2.63016350205021
 1  5.15504243644364  2.28818924282428 -1.85930336873687
 1  5.84266383488349  0.98594978587859 -3.17357361426143
 1  6.53419160306031  1.49716969756976  0.34800441434143
 1  6.28023589568957 -0.23181051775178  0.86978317381738
 1  7.10970309310931 -1.19180985398540 -1.15087984518452
 1  7.63512607110711  0.53746284928493 -1.74918574147415
 1  8.80537658195820  0.81728122562256  0.23230565866587
 1  8.67904102490249 -0.77571592429243  0.83940006340634
 1  10.07782241404140 -0.03194704690469 -1.82109726772677
 1  9.26507611671167 -2.12566084958496 -2.04665304720472
 1  11.02089122972297 -2.16387978727873 -1.99415477357736
 1  10.19124132123212 -2.70561467616762 -0.67613500720072
 1  11.32425406700670  0.94784121752175  0.12087985878588
 1  11.37695529102910 -0.88134943254325  0.84629094919492
 1  12.60620857335734 -1.41175859515952 -1.04529680118012
 1  12.88842467236724  0.30553548954895 -1.45232956665667
 1  13.83043446374637  0.90161552485249  0.58058288698870
 1  13.91956026662666 -0.53772015091509  1.26368874287429
 1  15.19459986138614  0.52023542054205 -1.30255152395239
 1  15.60700449724973 -2.13436277747775  0.37874973947395
 1  15.00492213661366 -2.37614213421342 -1.43770514401440
 1  16.67623590319032 -1.71429232623262 -1.12895940924092
 1  16.18280155365537  1.56368470217022  0.62312822912291
 1  16.32135621342134 -0.16845313011301  1.40307880258026
 1  18.24928166586659 -0.56010252425242 -0.23068326392639
 1  18.03247055665566  0.88212710681068 -1.22022776637664
 1  18.66039509640964  2.39185045304530  0.61208315511551
 1  18.62613857635764  0.92950779027903  1.70423366886689
 1  20.79601943424343  0.18131912951295  0.03951984418442
 1  20.00341716021602  2.96847762426243 -0.95370755545555
 1  21.68144194499450  2.11252239433943 -1.35165314651465
 1  19.96457485508551  1.58234852505251 -2.03480186458646
 1  21.10118397189719  0.99052469336934  2.16516018481848
 1  22.20792868566857  1.76457692839284  1.17040369396940
 1  21.01089116761676  2.87456357355736  1.45362249894989

