%nproc=4
%Mem=3GB
# td=(NStates=1) iop(3/107=0140000000,3/108=0140000000) CAM-B3LYP/6-31G(d,p) 

TD

0 1
12 -7.20947563926393  0.58837722122212  0.21813818381838
 6 -4.92628144464446 -2.06603383398340  0.48249365176518
 6 -4.73829986058606  2.70942966086609  1.14228433363336
 6 -9.33200996549655  3.15884343734373 -0.40597307260726
 6 -9.61617771577158 -1.72928469416942 -0.82369917481748
 7 -5.14037106830683  0.31485757635764  0.77478530253025
 6 -4.44187643494350 -0.74637578077808  0.90123801850185
 6 -2.94137035763576 -0.44371276927693  1.26170183928393
 6 -3.03380660756076  1.00580928252825  1.66187246654665
 6 -4.35279551425142  1.40068471957196  1.10056445034503
 6 -2.95368154895490  1.19231205050505  3.14693000760076
 6 -1.98775450515051 -0.78668465766577 -0.00359654935494
 6 -0.53843955315532 -0.56673992199220  0.42535591789179
 6  0.49192111531153 -0.77970459235924 -0.60362015211521
 8  0.20772098889889 -1.31162494019402 -1.75124251735174
 8  1.75404400280028 -0.34812475087509 -0.24236962456246
 7 -7.05275291869187  2.59058226812681  0.22859378347835
 6 -5.96359650345035  3.33541730913091  0.72128800490049
 6 -6.28577348574857  4.71435829942994  0.80053831253125
 6 -7.56267105240524  4.88555036023602  0.29921604800480
 6 -8.01831135863586  3.52752969176918  0.03471146974697
 6 -5.31206324022402  5.81789126282628  1.06065622082208
 6 -8.29894990299030  6.10786105570557  0.21380199269927
 6 -8.07322573257326  7.36133528322832  0.83218727802780
 7 -9.05621466256626  0.77485447984798 -0.63112968686869
 6 -9.81243873017302  1.86442976727673 -0.64051686518652
 6 -11.18307225992599  1.53092253675368 -1.13786864656466
 6 -11.24215370257026  0.22455000080008 -1.25589561786179
 6 -9.94365196879688 -0.37652784618462 -0.89087128842884
 6 -12.18163910161016  2.71906714811481 -1.39395884858486
 6 -12.38134192709271 -0.57626375017502 -1.79107843844384
 6 -12.03094500340034 -1.19475966826683 -3.19439009020902
 7 -7.25677864026403 -1.35275011071107 -0.25827850295029
 6 -8.31841616791679 -2.22345089058906 -0.50817239713971
 6 -7.95085712551255 -3.57715826722672 -0.46635693549355
 6 -6.61060885138514 -3.60372335443544 -0.02295437713771
 6 -6.25366909860986 -2.28899685548555  0.07110894629463
 6 -8.75430777027703 -4.75790188858886 -0.71888527162716
 6 -5.48087355025503 -4.43050661406141  0.26911188528853
 8 -5.39486047834783 -5.69609646664666  0.32206815541554
 6 -4.22572707530753 -3.52346979437944  0.47204552615262
 6 -3.57022119891989 -3.75008295099510  1.89502547104711
 8 -3.64878766216622 -3.06683404130413  2.87893125132513
 8 -2.76200155295530 -4.71187980648065  1.74478351585159
 6 -2.11225018201820 -5.17407261316132  2.93963136353635
 6  2.77647396779678 -0.60809909880988 -1.19409292649265
 6  4.16143702890289 -0.39072434033403 -0.55334789758976
 6  5.13768926022602  0.40237676567657 -0.97087996499650
 6  5.03857758335834  1.35979365466547 -2.11081521652165
 6  6.38483476217622  0.45728634463446 -0.13610413481348
 6  7.54000545314531 -0.19664821282128 -0.80187051575158
 6  8.90203791539154 -0.16321813791379 -0.06085218761876
 6  10.15139059965997 -0.52179384258426 -0.95613133313331
 6  10.11619489608961 -1.93860174007401 -1.47320428642864
 6  11.45093975777578 -0.39264415551555 -0.06277423992399
 6  12.80838857435744 -0.41557159065907 -0.79347685278528
 6  13.97834910671067 -0.18677439173917  0.21293770537054
 6  15.38048403940394 -0.25605468906891 -0.55108076057606
 6  15.70578684968497 -1.62436082438244 -1.01205303160316
 6  16.38633562626263  0.43115963326333  0.45792052675268
 6  17.75249283698370  0.46910063966397 -0.02865939293929
 6  18.72698311691169  1.42003008150815  0.83702695939594
 6  20.12180498489849  1.36634606710671  0.28095480148015
 6  20.23257610341034  2.19646695179518 -1.05437013291329
 6  21.05898096509651  2.10389208910891  1.27248118811881
 1 -3.83383374687469  3.41706495789579  1.46156225202520
 1 -10.04350647394740  3.90876315081508 -0.32278680488049
 1 -10.44953937803780 -2.49972550765077 -1.10738855825583
 1 -2.75905319251925 -1.20661086378638  2.05455194589459
 1 -2.26488995529553  1.73300536163616  1.21966561556156
 1 -2.07099018541854  0.93353245964596  3.55530586798680
 1 -3.56998410751075  2.23482270507051  3.49583760596060
 1 -3.72975577607761  0.46805195949595  3.71944362956296
 1 -1.91937705670567 -1.69902057285729 -0.44472247934793
 1 -2.41097746674667 -0.02491487168717 -0.66526326092609
 1 -0.21507693639364  0.44207379467947  0.78449231223122
 1 -0.22936135643564 -1.03018378497850  1.13687714601460
 1 -5.71241541924192  6.82496000800080  0.59360919221922
 1 -5.21373284458446  6.14003688508851  2.14052606510651
 1 -4.35657050165017  5.46681094909491  0.59852058465847
 1 -9.07645790559056  6.21843522552255 -0.53922527522752
 1 -8.70239930363036  7.97514723572357  0.33245302100210
 1 -7.16343427552755  7.51035787218722  1.43675263556356
 1 -11.66648712171217  3.75870501760176 -1.83515934743474
 1 -13.12166946464646  2.29908865126513 -1.91282701090109
 1 -12.58609964266427  2.83552088618862 -0.27449788928893
 1 -12.44978694359436 -1.51781270407041 -1.27848134903490
 1 -13.37095939503950 -0.12997570807081 -1.83899965436544
 1 -12.63966916611661 -1.95262892499250 -3.73281423952395
 1 -11.70744114981498 -0.17478594989499 -4.15981495989599
 1 -11.07881272067207 -1.76584761196120 -3.10764904310431
 1 -8.79937455605561 -4.94163066386639 -1.82235829882988
 1 -8.01518590379038 -5.62980893419342 -0.44138409350935
 1 -9.78280245924593 -4.63551199959996 -0.40111237993799
 1 -3.65738325682568 -3.63612021762176 -0.39976771487149
 1 -1.60055344294429 -4.40379259265927  3.40364208180818
 1 -2.74577101440144 -5.90268979387939  3.48167920562056
 1 -1.21234175467547 -5.86250703550355  2.46032939403940
 1  2.84500255505551 -1.75876249904991 -1.67866931563156
 1  2.69347578887889  0.18874695949595 -1.99906096359636
 1  4.13778426512651 -0.94116253005301  0.40682208240824
 1  3.98898420992099  1.46318186088609 -2.45045553125313
 1  5.31278821102110  2.32460288418842 -1.75821325972597
 1  5.67539710821082  0.92450364126413 -2.94683093999400
 1  6.57853603750375  1.48373835443544  0.15740535443544
 1  6.06960483258326  0.03801646494649  0.74288048354836
 1  7.22672479527953 -1.17504817781778 -0.99535429262926
 1  7.79550210871087  0.15479458245825 -1.98535935883588
 1  9.02024806910691  0.86277577507751  0.18340076817682
 1  8.82629575037504 -0.60124847754776  0.93037916131613
 1  10.22389702150215  0.26940308810881 -1.83767892589259
 1  9.10655026412641 -1.95865414891489 -1.80949933183318
 1  10.73943308390839 -2.39428282758276 -2.30157551565157
 1  10.25258745584559 -2.82197631233123 -0.54218161186119
 1  11.45544718631863  0.66556298969897  0.21411918271827
 1  11.42174977047705 -1.10208150575058  0.82152847294729
 1  12.71778973147315 -1.32568998829883 -1.11282355385539
 1  12.71848767866787  0.16775171117112 -1.60910524422442
 1  13.83624504480448  0.79699506280628  0.65895072377238
 1  13.85967427802780 -0.79844622352235  1.01660403440344
 1  15.21331173257326  0.54003740074007 -1.34391566036604
 1  16.22725652245225 -2.21267060826083 -0.06008414391439
 1  14.87728937333733 -2.17478199819982 -1.74247562106211
 1  16.81211949154915 -1.44254515151515 -1.63294980828083
 1  16.16244951845184  1.50376871057106  0.60060597689769
 1  16.15651972977298 -0.28604488928893  1.37511600630063
 1  18.32698943664366 -0.50133664766477 -0.29207940354035
 1  17.75013232283228  1.00396929102910 -1.06894263786379
 1  18.55582463936393  2.50841210921092  0.83977592439244
 1  18.66766272877288  0.94167900740074  2.02609585508551
 1  20.60162999529953  0.30988198579858  0.13001889408941
 1  19.71482830133013  3.09748052455246 -1.03058524322432
 1  21.14767856865686  2.40988213031303 -1.52396037723772
 1  19.72418081568157  1.61534182438244 -1.94378276267627
 1  20.97419127262726  1.64123976487649  2.43142681148115
 1  22.03581147394739  2.17212768346835  1.17116376997700
 1  20.81342142064207  3.14259037623762  1.30224736143614

