%nproc=4
%Mem=2GB
# td=(NStates=1) CAM-B3LYP/6-31G(d,p) 

TD

0 1
12 -7.12912348534853  0.63950269836984  0.16610429782978
 6 -4.91481609960996 -1.91163234163416  0.46777331003100
 6 -4.78218814771477  2.75498394569457  1.29359572447245
 6 -9.46179091459146  3.06863235873587 -0.30143300300030
 6 -9.62878319201920 -1.77297280828083 -0.80685711481148
 7 -5.04946837143714  0.45453527162716  0.66097651595160
 6 -4.33457316341634 -0.68126794879488  0.73191121432143
 6 -2.85195420082008 -0.39138856455646  1.12439279347935
 6 -2.99508294669467  1.11135380368037  1.51446217691769
 6 -4.29058605350535  1.52676342514251  1.01675870577058
 6 -2.94222930503050  1.33544583268327  3.03941535043504
 6 -1.89636309730973 -0.69591485288529 -0.01441748344834
 6 -0.54494191679168 -0.28849319651965  0.44941907120712
 6  0.49123026022602 -0.56915042794279 -0.68968434893489
 8  0.21532277237724 -0.99124453205321 -1.75270160186019
 8  1.76574838533853 -0.35976337273727 -0.26186297519752
 7 -7.11962241014101  2.62961855165517  0.46594529002900
 6 -6.05344462346235  3.39577055285529  0.81971550515052
 6 -6.37561481458146  4.73155744514451  0.76143683088309
 6 -7.64235694269427  4.79365999749975  0.31447983928393
 6 -8.17036130773077  3.50428962426243  0.15904845114511
 6 -5.52435039173917  5.98127059295930  1.05849060956096
 6 -8.60601839943994  6.04600563426343  0.20283726912691
 6 -8.47400129142914  7.24744086268627  0.78855510531053
 7 -9.15688796139614  0.65362822392239 -0.42019605330533
 6 -9.87723398309831  1.81648160126013 -0.62430875497550
 6 -11.21722081868187  1.45418375747575 -1.14246596609661
 6 -11.24901730563056  0.08795415951595 -1.23932264626463
 6 -10.05941162186219 -0.35304727902790 -0.77303231933193
 6 -12.37499632333233  2.37696826782678 -1.53912068686869
 6 -12.29209375567557 -0.76322373247325 -1.73823463196320
 6 -12.30981847024703 -1.22700511171117 -3.26856197479748
 7 -7.29334880318032 -1.39182879647965 -0.18664334133413
 6 -8.26827706750675 -2.23949912201220 -0.48705366056606
 6 -7.88769491509151 -3.64333260076008 -0.48408568586859
 6 -6.55198908300830 -3.65588992599260 -0.01441317321732
 6 -6.28920151655166 -2.27889617091709  0.17201000520052
 6 -8.60110757815782 -4.90284312671267 -0.80227870627063
 6 -5.41795626592659 -4.41942582608261  0.24056692929293
 8 -5.33569240714071 -5.63954843824382  0.21697872857286
 6 -4.20349392879288 -3.36397218701870  0.52411227652765
 6 -3.50544117501750 -3.70531575287529  1.90130050295030
 8 -3.70764236483648 -3.13971070727073  2.98110079117912
 8 -2.63041423512351 -4.72355707810781  1.67488606950695
 6 -2.12287287518752 -5.13770799989999  3.00542547804780
 6  2.80001251295129 -0.54065185978598 -1.31939313971397
 6  4.09061115011501 -0.44640281658166 -0.68516866586659
 6  5.15042852725272  0.41917818321832 -0.99423919661966
 6  5.14093251625162  1.26710936023602 -2.14957912321232
 6  6.46616094889489  0.40959280948095 -0.19285577077708
 6  7.62268980688069 -0.06005635253525 -1.06446339683968
 6  8.86249812241224 -0.16043117351735 -0.11902371517152
 6  10.11880250475047 -0.53887095879588 -0.77663863436344
 6  10.19104580478048 -2.02009294539454 -1.13365683068307
 6  11.46496937383738 -0.29754353515352  0.13122399099910
 6  12.78145305300530 -0.42239629072907 -0.67702772567257
 6  14.05426489488949 -0.06226742954295  0.24977204470447
 6  15.34622074697470 -0.22430615971597 -0.47701594139414
 6  15.74240590949095 -1.63328096189619 -0.82309192689269
 6  16.44096820272027  0.36136049604960  0.53739824702470
 6  17.83537812721272  0.47130852925293 -0.08620443504350
 6  18.79576994649465  1.17331554855486  0.72125255825583
 6  20.23239190839084  1.40955128862886  0.18791355455546
 6  20.37392874667467  2.21511980918092 -1.08825981868187
 6  21.29034996579658  1.73483641994199  1.16492185558556
 1 -4.05625711021102  3.40545606700670  1.59656424332433
 1 -10.31848224092409  3.88535937093709 -0.80328572007201
 1 -10.35835912531253 -2.47068640944094 -1.08370502270227
 1 -2.57895435233523 -1.19588790269027  2.08352904410441
 1 -2.07648125332533  1.54885846844684  1.05375602600260
 1 -1.88652310981098  1.06745719861986  3.36379009250925
 1 -2.94206926692669  2.31356541404140  3.54069623502350
 1 -3.57924136683668  0.57300198419842  3.52778519131913
 1 -1.87629011391139 -1.84392435283528 -0.31097500670067
 1 -2.17798947144714 -0.17943069266927 -0.96977701730173
 1 -0.40378389578958  0.80536515041504  0.61231163026303
 1 -0.30298810081008 -0.74826934213421  1.29807376257626
 1 -6.14315309070907  6.75256390049005  0.40375608480848
 1 -5.67521451085109  6.22921628472847  2.04153045014501
 1 -4.41625558155816  5.79747091349135  0.68148132373237
 1 -9.50962301480148  5.95283143124312 -0.65822605080508
 1 -9.50115133103310  7.91831257015702  0.78520814261426
 1 -7.45283474927493  7.54919131863186  1.45531391689169
 1 -12.10528463356336  2.85399572557256 -2.48540154485449
 1 -13.07612728192819  1.76130002120212 -1.89803099459946
 1 -12.65121685278528  2.83186184088409 -0.76547779177918
 1 -12.59914469286929 -1.73136258135814 -1.12877783268327
 1 -13.31225994489449 -0.33540027682768 -1.63702923042304
 1 -13.21721807440744 -1.70479516571657 -3.47226711121112
 1 -12.25667923212321 -0.25997053465346 -3.96413990969097
 1 -11.45050132943294 -1.81951681878188 -3.56216483648365
 1 -8.75369497249725 -4.90781152405241 -1.97391065516552
 1 -8.05976534133413 -5.83784378857886 -0.82475208820882
 1 -9.67835772067207 -5.00800582188219 -0.32396421902190
 1 -3.36398709460946 -3.44345759645965 -0.10030530203020
 1 -1.66155432193219 -4.17856429612961  3.31715463076308
 1 -2.76986659525953 -5.49663128072807  3.87043988288829
 1 -1.20279839133913 -5.85220449364936  2.72053600650065
 1  2.84877418151815 -1.60588242414241 -1.79469343434343
 1  2.64706218381838  0.19967424702470 -1.98726187838784
 1  4.16704761036104 -1.09197141234123  0.25256847284729
 1  4.09830879437944  1.40116882728273 -2.48618698839884
 1  5.65426083778378  2.12270252915292 -1.63305977417742
 1  5.75782308990899  0.67674878237824 -2.98527725872587
 1  6.77218928182818  1.42454645464546  0.11793443624362
 1  6.58650276967697 -0.18473651105111  0.70877059375938
 1  7.45934331903190 -1.03973320852085 -1.51163248684869
 1  7.53710614651465  0.61047425552555 -1.93802672627263
 1  9.01951400300030  0.81270915591559  0.37228486068607
 1  8.76556504520452 -0.72539804600460  0.68854671837184
 1  10.43763131453145  0.22041457915792 -1.63249813931393
 1  9.08900388588859 -2.42465044154415 -1.47186311111111
 1  11.19719227492749 -2.26244302820282 -1.92080632453245
 1  10.37558044404441 -2.77770971297130 -0.27697713741374
 1  11.61396907780778  0.74000623082308  0.54454594209421
 1  11.29597265066507 -1.12186814811481  0.97555817741774
 1  13.03180649954995 -1.54935309650965 -1.11309897749775
 1  12.97334108660866  0.31448213921392 -1.53978734003400
 1  13.91614305100510  0.99663221922192  0.50991833483348
 1  13.95426817991799 -0.68257786248625  1.06230274677468
 1  15.46844013251325  0.31055054005401 -1.32729708770877
 1  15.71836927982798 -2.16257654975498  0.01394994109411
 1  15.01560461116112 -2.11667404300430 -1.54685210031003
 1  16.59523915331533 -1.79902542744274 -1.24152562206221
 1  15.95753095379538  1.16873470717072  0.71555810011001
 1  16.66017046424642 -0.25814498959896  1.51182394359436
 1  18.21029196789679 -0.59401594899490 -0.48456179657966
 1  17.83382044654466  1.06548386728673 -1.01743531933193
 1  18.42101289388939  2.09894405210521  0.82795080038004
 1  18.99581674197420  0.63120730173017  1.65853585388539
 1  20.55944085678568  0.29812596079608 -0.13743667966797
 1  20.22567667426743  3.30950451235124 -0.88810240364036
 1  21.48897314941494  2.47247390019002 -1.48123948724872
 1  19.82417632203220  1.96876868766877 -2.02203917291729
 1  21.35599157435744  1.19422753185319  1.99139875707571
 1  22.22784449074907  1.87579880958096  0.64600956725673
 1  21.11153088298830  2.86778686198620  1.52536297679768

