%nproc=4
%Mem=2GB
# td=(NStates=1) CAM-B3LYP/6-31G(d,p) 

TD

0 1
12 -7.17822839583958  0.62509125722572  0.13198088548855
 6 -4.82088670667067 -1.92864404280428  0.39456598929893
 6 -4.91130105900590  2.80435888318832  1.17162352725273
 6 -9.46959169466947  3.10108560406041 -0.38466132583258
 6 -9.58039835353535 -1.79056456745675 -0.90374680378038
 7 -5.14883830843084  0.40045986408641  0.61767218551855
 6 -4.31194090019002 -0.70537035903590  0.64958298149815
 6 -2.91460046544654 -0.45686511221122  1.23776413061306
 6 -3.07273071147115  1.09764243254325  1.56743747444744
 6 -4.46204319921992  1.44845559435944  1.03824085398540
 6 -3.07752283438344  1.38819110721072  3.04726613551355
 6 -1.85242870387039 -0.54266952835284  0.10890484878488
 6 -0.45824324692469 -0.39855420262026  0.52539666896690
 6  0.50697183438344 -0.52531604450445 -0.67964334483448
 8  0.26433767386739 -0.82947835543554 -1.80066639833983
 8  1.75150696119612 -0.44831222762276 -0.10273706260626
 7 -7.25949639753975  2.53684927472747  0.38406710221022
 6 -6.12988226722672  3.29807078287829  0.76686021962196
 6 -6.39806705980598  4.76345063446345  0.68199888708871
 6 -7.70785349234924  4.81816244774477  0.32234062536254
 6 -8.19157342894290  3.43043223852385  0.07522006830683
 6 -5.55704366106611  5.84039650555056  1.18042280278028
 6 -8.60836863446345  5.99842087578758  0.14633161856186
 6 -8.46778066936694  7.12456857545755  0.84281053085309
 7 -9.09689196179618  0.60949381048105 -0.54458849254925
 6 -9.86656291599160  1.74247420052005 -0.61629795389539
 6 -11.26592568916892  1.43477181628163 -1.15724744424442
 6 -11.23433583748375  0.09628499259926 -1.29486820082008
 6 -9.98231391209121 -0.45300727502750 -0.86788180428043
 6 -12.22950177387739  2.44451502250225 -1.48987576237624
 6 -12.37750229652965 -0.74667207730773 -1.70968177667767
 6 -12.37597508590859 -1.13816622782278 -3.21091621022102
 7 -7.25386485478548 -1.37890750435043 -0.13175785278528
 6 -8.29755999579958 -2.21518669076908 -0.56740169536954
 6 -7.83524967056706 -3.67578584608461 -0.46660393769377
 6 -6.54807869196920 -3.56751108810881 -0.08945067696770
 6 -6.23291588798880 -2.20176845814582  0.08781158535854
 6 -8.63553102050205 -4.83441628402840 -0.80469894829483
 6 -5.32038650895089 -4.38989287278728  0.16224909750975
 8 -5.08059689758976 -5.62364684808481  0.08902593329333
 6 -4.17862144154415 -3.32364815461546  0.52805267056706
 6 -3.50943157405741 -3.64275949724973  1.91693206610661
 8 -3.79629122972297 -3.00038677487749  2.93675635673567
 8 -2.62320351405141 -4.67637235963596  1.75614419531953
 6 -2.15971655955596 -5.15995022412241  2.99114404990499
 6  2.80047255895590 -0.51109890449045 -1.18367956835684
 6  4.08337042604260 -0.31222939923992 -0.51065121412141
 6  5.10582406680668  0.40334660006001 -0.92272204490449
 6  5.05637406040604  1.31179382868287 -2.00938510381038
 6  6.45521985478548  0.43194504470447 -0.10743722892289
 6  7.72988052595259 -0.06892723962396 -0.85756270677068
 6  8.99902177477748 -0.14320945134513  0.05418360556056
 6  10.23638426292629 -0.63700077177718 -0.71552252275228
 6  10.18394509470947 -2.12491342744274 -1.16054951995200
 6  11.52992586948695 -0.35677945874587  0.14258512711271
 6  12.78286319401940 -0.42217626872687 -0.62679270217022
 6  13.98349781818182 -0.18392959575958  0.23563063056306
 6  15.35656178107811 -0.17769149824982 -0.36644488428843
 6  15.69107077597760 -1.64749238303830 -0.83276289398940
 6  16.43354746064606  0.45279963996400  0.46231073827383
 6  17.87862245164516  0.47223862226223 -0.28840465506551
 6  18.91882225172517  1.15067328432843  0.69333976697670
 6  20.30063873307331  1.23782411591159  0.03768853205321
 6  20.29657101090109  2.02828112531253 -1.28653964666467
 6  21.34581551235124  2.00786372267227  1.02326769016902
 1 -4.09680116461646  3.60714623602360  1.76557114401440
 1 -10.16979737243724  3.83662449744974 -0.43672906440644
 1 -10.32446573597360 -2.31428076887689 -1.17494414661466
 1 -2.55374183108311 -1.03829214311431  2.09923061426143
 1 -2.34772837803780  1.69935351795180  0.89850050045004
 1 -2.24767922542254  1.14455490839084  3.64616833033303
 1 -3.30356541654165  2.37393145064507  3.21866403180318
 1 -3.90402384508451  0.66019070307031  3.47201961476148
 1 -2.00788327322732 -1.63716367676768 -0.53207711691169
 1 -2.08039971247125  0.30976822722272 -0.67905794539454
 1  0.08103458605861  0.53698831273127  1.05712611171117
 1 -0.15642344434443 -1.19558407360736  1.17002095729573
 1 -6.05097387278728  6.90547919201920  0.92711842104210
 1 -5.44287127652765  5.89324268736874  2.35126142324232
 1 -4.53475743174317  5.67877904430443  0.65926910251025
 1 -9.33374542704270  5.80983713181318 -0.70498072627263
 1 -9.11702291819182  8.05538627752775  0.66873649544955
 1 -7.93389285508551  7.34170056955696  1.80440882638264
 1 -11.85038914401440  3.24270459645965 -2.04239724442444
 1 -13.36877654685468  1.99449334053405 -1.86616780828083
 1 -12.73132486358636  2.87391604630463 -0.58968021202120
 1 -12.51650642904290 -1.54234367946795 -1.29224417931793
 1 -13.19756847574758 -0.26198293509351 -1.36513204070407
 1 -13.24725107770777 -1.77601228742874 -3.66717660216022
 1 -12.19250281448145 -0.26137067466747 -3.96568006370637
 1 -11.40150642994300 -1.67534240134013 -3.35642426242624
 1 -8.85809541254125 -4.73700444334433 -1.83831709580958
 1 -8.05518488328833 -5.68236824102410 -0.26085569856986
 1 -9.68200808570857 -4.82618764006401 -0.50669249184919
 1 -3.43446414231423 -3.56703995469547 -0.32132740424042
 1 -1.44997316381638 -4.46955339503950  3.36016893219322
 1 -2.87427703630363 -5.57908952655266  3.73817665656566
 1 -1.68041615311531 -6.25012428562856  2.89230318321832
 1  2.71419072317232 -1.49448128402840 -1.66368033303330
 1  2.60008748634864  0.20068434803480 -2.03374652685268
 1  4.26540744634463 -1.05544775997600  0.37585080108011
 1  4.05871483498350  1.80201891229123 -2.40516888658866
 1  5.78006341804180  2.23559381828183 -1.72895936413641
 1  5.46231353895389  0.82908401590159 -2.91910064106411
 1  6.60744280718072  1.48849284928493  0.23663630643064
 1  6.23643776317632 -0.32352038943894  0.84895461216122
 1  7.18905629032903 -1.13109234443444 -1.18302962656266
 1  7.93363579947995  0.36156936503650 -1.84121704530453
 1  9.03988604020402  0.94526241124112  0.40340797299730
 1  8.96124461316132 -0.78946445264526  1.00588845254525
 1  10.42599015041504 -0.10342780508051 -1.85038992849285
 1  9.24750973647365 -2.57004498099810 -1.75232115691569
 1  11.09342189788979 -2.32191897579758 -1.67017126102610
 1  10.18248113411341 -2.88686062806281 -0.18765820552055
 1  11.14732241314131  0.76889912011201  0.26340782828283
 1  11.42136518991899 -1.03367932923292  1.03362398399840
 1  13.01198451735173 -1.36777493869387 -1.01398906650665
 1  12.84817857035704  0.21013170417042 -1.48831219251925
 1  13.84914635133513  0.93643619961996  0.81969931293129
 1  14.19608236133613 -0.93341294599460  0.98422493899390
 1  15.32313560206020  0.37981746674667 -1.45543990199020
 1  15.79167661056106 -2.18112840494049  0.23081162726273
 1  14.70771382208221 -2.10356273187319 -1.32251966706671
 1  16.53819344874487 -1.68967449234924 -1.50150161966197
 1  16.13455865656566  1.52328016171617  0.94716126042604
 1  16.47141158835883 -0.15280445554555  1.40142290349035
 1  18.23594453315332 -0.49899644704470 -0.29450279067907
 1  17.65379244374438  1.05676299519952 -1.17636121192119
 1  18.65247604020402  2.19587374507451  0.78793679897990
 1  18.80467762806281  0.53957813881388  1.60654065436544
 1  20.73131804450445  0.19347549574958 -0.20171310731073
 1  19.89631373797380  2.94990855275528 -1.17048064146415
 1  21.21709596169617  2.46500315311531 -1.51196255955596
 1  19.84895880028003  1.28117992879288 -2.01172814181418
 1  21.41511748694870  1.43577168626863  2.11686130333033
 1  22.42650435673567  1.89708093779378  0.70469543584358
 1  21.18833856375638  3.20963104640464  1.37064750525052

