%nproc=4
%Mem=2GB
# td=(NStates=1) CAM-B3LYP/6-31G(d,p) 

TD

0 1
12 -7.15748632163216  0.56117486558656  0.12572025942594
 6 -4.92300691869187 -1.92183336173617  0.68113464616462
 6 -4.82738266716672  2.82454090139014  1.14550091499150
 6 -9.31322605810581  3.06407190269027 -0.42609546924692
 6 -9.48448876257626 -1.63727923892389 -0.91514794389439
 7 -5.21926535113511  0.49686950505051  0.86527694599460
 6 -4.35668537463746 -0.66651647364736  1.00212823602360
 6 -2.89240824622462 -0.40100952665267  1.35978633283328
 6 -3.03125656405641  1.08246091439144  1.83614434513451
 6 -4.35492248714871  1.51934268306831  1.15111214111411
 6 -3.11313639573957  1.26245853395340  3.29855126402640
 6 -1.95904936593659 -0.57648290969097  0.17601155945595
 6 -0.44044146674667 -0.46317066426643  0.61592572187219
 6  0.49552068926893 -0.63893740664066 -0.59475485598560
 8  0.14475571567157 -1.02782819041904 -1.64799113081308
 8  1.73326513701370 -0.29637703410341 -0.22904969386939
 7 -7.10402084998500  2.62898848864887  0.35137383288329
 6 -6.09997927692769  3.37602857865787  0.75964949854985
 6 -6.44384163726373  4.72782707210721  0.82291297849785
 6 -7.68327103410341  4.87238787028703  0.25609400070007
 6 -8.12016628822882  3.42178137343734  0.01691423772377
 6 -5.59286724342434  5.87012947884789  1.16437119761976
 6 -8.64285208280828  5.89626065976598  0.06784376977698
 6 -8.59160305160516  7.17213333193319  0.64323057285729
 7 -9.03851612421242  0.71607446854685 -0.54898893259326
 6 -9.84395065476548  1.81223117621762 -0.70500682478248
 6 -11.20306940354035  1.45834417351735 -1.17133885338534
 6 -11.12902530643064  0.12627799189919 -1.37847656165617
 6 -9.90306598729873 -0.27468944324432 -0.87821283738374
 6 -12.36550537423742  2.49489006000600 -1.44280105490549
 6 -12.25263981028103 -0.80074748484848 -1.73036384488449
 6 -12.22957044544454 -1.11321373257326 -3.24765988458846
 7 -7.19703917221722 -1.39981959555956 -0.08177285428543
 6 -8.27808804860486 -2.26360153225323 -0.53597855305531
 6 -7.75088123372337 -3.64694296179618 -0.57529480678068
 6 -6.49670355445545 -3.54449878687869 -0.10040177207721
 6 -6.21524412081208 -2.18241652295230  0.13371617581758
 6 -8.53949141654165 -4.73879672207221 -0.97321579998000
 6 -5.20252472277228 -4.33625750925092  0.13392626522652
 8 -5.05597443534353 -5.58202268566857  0.15540257095710
 6 -4.14947852725273 -3.28105389518952  0.66388625392539
 6 -3.52575320622062 -3.65851107240724  1.94634500740074
 8 -3.72409401000100 -3.11082781898190  3.04156683778378
 8 -2.55985717941794 -4.62065678807881  1.71103968486849
 6 -2.14836542444244 -5.19876410551055  2.84402933843384
 6  2.72978549024902 -0.66703449804981 -1.14062526292629
 6  4.10082217121712 -0.41733991029103 -0.53772392139214
 6  5.14572805720572  0.31829809520952 -0.94490426312631
 6  5.06944536753675  1.13235588488849 -2.21373553885389
 6  6.42793712651265  0.35926777697770 -0.12751923712371
 6  7.60212775067507 -0.01368171507151 -1.04200115061506
 6  8.94465633823382 -0.04692982338234 -0.33169498229823
 6  10.16582720722072 -0.62360943264326 -1.04650562106211
 6  10.08816551675167 -2.09333026912691 -1.38092155715572
 6  11.40876375327533 -0.34529831063106 -0.07754688608861
 6  12.75311021872187 -0.55409946104610 -0.78937896079608
 6  13.98398786718672 -0.12350355315532  0.10317738523852
 6  15.34245036993699 -0.34536826592659 -0.54056229602960
 6  15.74505617451745 -1.80253788758876 -0.74874449214921
 6  16.45714982088209  0.34229858985899  0.40018452565257
 6  17.83837842724272  0.42570396879688 -0.04648046264626
 6  18.84250461996200  1.23953217021702  0.74422485548555
 6  20.24954362356236  1.42749308280828  0.22403716691669
 6  20.17563891769177  2.25672396959696 -1.03795478817882
 6  21.13708463926393  2.03654659095910  1.32360772417242
 1 -4.17169865436544  3.45552107350735  1.34535912281228
 1 -10.04784517721772  3.88118895389539 -0.58695408690869
 1 -10.32464575397540 -2.41319065986599 -1.31545819801980
 1 -2.70262671957196 -1.20328864276428  2.14289498069807
 1 -2.11981558675868  1.63378696129613  1.35148579897990
 1 -2.03060751825182  0.96409686258626  3.73705741924192
 1 -3.30619567956796  2.19018307580758  3.50326249164916
 1 -3.83199664236424  0.61365604960496  3.63501591439144
 1 -2.08653113801380 -1.58444840524052 -0.23834774397440
 1 -2.17321899439944  0.18966621702170 -0.51039107870787
 1 -0.31334485188519  0.56556117001700  1.05326572567257
 1 -0.28850665266527 -1.14828934413441  1.38718267346735
 1 -5.88896767216722  6.81799044314431  0.72414812401240
 1 -5.48141513091309  5.85013837693769  2.38416471357136
 1 -4.54652860886089  5.62580374677468  0.76882005760576
 1 -9.42093414591459  5.76685283338334 -0.79191942014201
 1 -9.03679489538954  7.91286202510251  0.47465708750875
 1 -7.99138860466047  7.00046644614461  1.48202658815882
 1 -12.21819592469247  3.09890021602160 -2.39061206590659
 1 -13.27277694689469  1.68051194239424 -1.55128632013201
 1 -12.86935866696670  3.15119377407741 -0.58094933893389
 1 -12.26694147254726 -1.59806925202520 -1.22739769466947
 1 -13.20942966186619 -0.31788852565257 -1.67281280878088
 1 -13.23230958355836 -1.57755244144414 -3.60108999349935
 1 -12.11501506570657 -0.14062860046005 -3.62827632333233
 1 -11.38018429772977 -2.01746661376138 -3.44054267426743
 1 -8.75456505950595 -4.81741248414841 -2.09915317941794
 1 -8.13889325412541 -5.80056006020602 -0.81217083008301
 1 -9.43053293819382 -4.82226724802480 -0.45783760636064
 1 -3.28187888378838 -3.27369061976198 -0.14175944744474
 1 -1.44864303080308 -4.53645008470847  3.59180209550955
 1 -2.94427403600360 -5.68603022062206  3.52843568246825
 1 -1.76067417891789 -6.26523579677968  2.68769272217222
 1  2.51214051815181 -1.66581841774177 -1.69337330233023
 1  2.60600807840784 -0.18312403280328 -2.21865501770177
 1  4.34513541914191 -1.02152436763676  0.53104632063206
 1  4.11792075557556  1.33871258165817 -2.76282465216522
 1  5.46054146584658  2.14882514141414 -2.07786425462546
 1  5.83116042364236  0.81360246774678 -3.03606233723372
 1  6.72599466236624  1.45635963596360 -0.01308866606661
 1  6.26104022342234 -0.16534457185719  0.82089180588059
 1  7.48357574227423 -1.04972420762076 -1.08586991059106
 1  7.79375181108111  0.64881808990899 -1.95725864946495
 1  9.04675672727273  0.93643152815282 -0.07225959375938
 1  8.89901839053905 -0.71530703690369  0.56528439213921
 1  10.37777532893289 -0.08002546484648 -1.93412830233023
 1  9.16142112761276 -2.34012198869887 -2.08384430923092
 1  10.96176873257326 -2.61792857675768 -1.82810705460546
 1  9.96477936393639 -2.60236217821782 -0.29959939963996
 1  11.40384806570657  0.68942117231723  0.32896438393839
 1  11.61274432783278 -0.80641660296030  0.90974159575958
 1  12.96244956385639 -1.66546470767077 -1.14995266286629
 1  12.73923767626763  0.02771346234623 -1.73108646994699
 1  13.90955239193919  0.96844940094009  0.21318866186619
 1  13.91523427652765 -0.74014361906191  0.98610512701270
 1  15.33789707820782  0.17339682468247 -1.67691204920492
 1  15.62883032593259 -2.56705699779978  0.11412995909591
 1  14.97081013171317 -2.08513088868887 -1.54092150725072
 1  16.82228185758576 -2.05227075197520 -1.26791826132613
 1  16.26142134283428  1.43680151385139  0.46981352565257
 1  16.59365381258126 -0.16812598769877  1.32935569676968
 1  18.16737767646765 -0.47055360276028 -0.39236257665767
 1  17.62111917641764  0.84714203310331 -1.04733830963096
 1  18.34566535913591  2.24038819651965  0.99837784308431
 1  18.79598675897590  0.62485666666667  1.75481548184819
 1  20.65423033573357  0.32202835103510  0.08156522052205
 1  19.46776088268827  3.22105566746675 -0.99306289968997
 1  21.16315056715672  2.73984063686369 -1.44632599589959
 1  19.74087799219922  1.70919273007301 -1.74729169816982
 1  21.06691266646665  1.48029613871387  2.23749336653665
 1  22.23197490379038  2.11510273997400  0.97047201350135
 1  20.70579030893089  2.89138922222222  1.41020146064606

