%nproc=4
%Mem=3GB
# td=(NStates=1) iop(3/107=0140000000,3/108=0140000000) CAM-B3LYP/6-31G(d,p) 

TD

0 1
12 -7.14511920362036  0.52103048654865  0.13938030803080
 6 -4.90412922942294 -2.03863109370937  0.39293469586959
 6 -4.73870990159016  2.80872959085909  1.16709681488149
 6 -9.38071483598360  3.20928848184818 -0.40558303360336
 6 -9.56477257525753 -1.72537430313031 -0.97239404430443
 7 -5.08092512371237  0.39845593619362  0.69476730073007
 6 -4.33313556085609 -0.71952309550955  0.62124001870187
 6 -2.91617783838384 -0.46385478347835  1.14967063616362
 6 -3.02459568646865  0.99138784038404  1.66949322862286
 6 -4.37823805850585  1.48167281838184  1.10977537143714
 6 -3.01023720452045  1.18867168646865  3.20614592919292
 6 -1.84812054175418 -0.67260324952495  0.05936974727473
 6 -0.48837454665467 -0.47800104810481  0.56495987828783
 6  0.55391731493149 -0.70647726962696 -0.51013080318032
 8  0.32338255505551 -1.16026980468047 -1.56579397249725
 8  1.77824642304230 -0.44803474187419 -0.15126051365137
 7 -7.15512315571557  2.61572478237824  0.37950887498750
 6 -5.95883602740274  3.39264303170317  0.83905978207821
 6 -6.33625853425342  4.76658352195220  0.74330258895890
 6 -7.68590337563756  4.81480328552855  0.28650477687769
 6 -8.08217774527453  3.52568950775078  0.02554055265527
 6 -5.38308034193419  5.89387886158616  1.12881303650365
 6 -8.40310031803180  6.04631490109011  0.08989960246025
 6 -8.38808721872187  7.25355450515051  0.71186524582458
 7 -9.23168220932093  0.68096509090909 -0.45389196309631
 6 -9.83157064336434  1.87776110041004 -0.65046786028603
 6 -11.26986093879388  1.53439288378838 -1.13084794449445
 6 -11.41036052325232  0.17887543334333 -1.18618864716472
 6 -9.92269987358736 -0.35960615401540 -0.86243844514451
 6 -12.31182211991199  2.63701894329433 -1.22105155785579
 6 -12.43075686858686 -0.58860498429843 -1.67293662426243
 6 -12.36153806270627 -0.99777997029703 -3.16625727692769
 7 -7.30902386478648 -1.41527636333633 -0.23138581368137
 6 -8.31893621992199 -2.27772631813181 -0.60862244214421
 6 -7.80844288408841 -3.71357190859086 -0.59780007980798
 6 -6.56264405490549 -3.59370235233523 -0.12995507720772
 6 -6.34824855655565 -2.23546150195020  0.01339317471747
 6 -8.71186352585259 -4.81560765916592 -0.83496687978798
 6 -5.31821728462846 -4.48872243564356  0.10893586768677
 8 -5.23334432673267 -5.67493435043504  0.01995794439444
 6 -4.23678818141814 -3.39149659705971  0.46836515811581
 6 -3.73894807160716 -3.71948989168917  1.91382735123512
 8 -3.85746853025303 -3.03618097599760  2.94400775897590
 8 -2.94214956775678 -4.77566618511851  1.88849788728873
 6 -2.45475443244324 -5.07997320322032  3.11285868626863
 6  2.84310063046305 -0.84295258415842 -1.13398691589159
 6  4.14560544574457 -0.58682395029503 -0.51403396619662
 6  5.04626011731173  0.21921844984498 -0.89496237323732
 6  5.08944266986699  1.20773844914491 -2.09221335633563
 6  6.38738501720172  0.34743535953595 -0.20905142954295
 6  7.57338879147915 -0.17236578457846 -1.03749407810781
 6  8.93992170377038 -0.05605742184218 -0.16001210361036
 6  10.23271873247325 -0.43859552275227 -0.81254697469747
 6  10.15576885348535 -1.86698457835784 -1.30321728772877
 6  11.54511917571757 -0.26351124222422  0.05859789728973
 6  12.88193592909291 -0.45050508400840 -0.70160766586659
 6  14.03260453225322 -0.10999671397140  0.21244765636564
 6  15.40129612061206 -0.25344442804280 -0.49394504700470
 6  15.75925219621962 -1.68949733803380 -0.97734956125613
 6  16.61202819551955  0.31690820812081  0.28758349304931
 6  17.95564315201520  0.63080681028103 -0.40318684568457
 6  18.78465888448845  1.35571364986499  0.72869612631263
 6  20.34788759315932  1.42774220672067  0.31813851985199
 6  20.51380422622262  2.15307261236124 -1.05706040194019
 6  21.24072913991399  2.03981568146815  1.40277421742174
 1 -3.93808417191719  3.72022527392739  1.64383047884788
 1 -10.25709783308331  3.95265754025403 -0.26955148134813
 1 -10.31985640974098 -2.12508804390439 -1.46243406280628
 1 -2.65120240744074 -1.12619282198220  2.10195668636864
 1 -2.05042850915091  1.56358841994199  1.36506015501550
 1 -1.87527061346135  1.09492859925993  3.46389672707271
 1 -3.19548665776578  2.27241646444644  3.57072509470947
 1 -3.56193899439944  0.42773792809281  3.70800248544854
 1 -2.20579569856986 -1.61322199299930 -0.51314932203220
 1 -2.07422379137914 -0.03439581978198 -0.82372910751075
 1 -0.53254868356836  0.56240582788279  1.15843970697070
 1 -0.20698911921192 -0.98214898149815  1.47983144144414
 1 -5.75266944464446  6.71097860986099  0.64502433373337
 1 -5.46993846514651  6.22149503090309  2.11854386688669
 1 -4.37286213081308  5.73568783678368  0.78677941054105
 1 -9.42021228102810  5.71736511851185 -0.67840919361936
 1 -8.85167423112311  8.11184090509051  0.16773654935494
 1 -7.53283121522152  7.71926876327633  1.40211917221722
 1 -11.96298677167717  3.55578472557256 -1.64377020852085
 1 -13.37072437013701  2.45682442484248 -1.73507923612361
 1 -12.53497453015301  3.05434276837684 -0.13065350485049
 1 -12.25706767166717 -1.71466238903890 -1.14099760066007
 1 -13.42951525062506 -0.25954866536654 -1.58746450085008
 1 -13.19435463466347 -1.54133779587959 -3.48425938403840
 1 -12.35298570427043 -0.11300977227723 -3.85253423182318
 1 -11.45787062646265 -1.61979300650065 -3.37695597379738
 1 -9.07843246184618 -4.84219071987199 -1.88021408440844
 1 -8.16612099729973 -5.73052900620062 -0.73182313741374
 1 -9.61920609960996 -4.70853930233023 -0.16949921862186
 1 -3.53517103560356 -3.64881148674867 -0.25862360046005
 1 -1.71481486908691 -4.16673888728873  3.34510622822282
 1 -3.08441487878788 -5.38240776567657  3.78467950565057
 1 -1.63485400590059 -5.91662244704470  2.99833319441944
 1  2.63176123092309 -1.87633425622562 -1.54771622032203
 1  2.52348879017902 -0.25446736193619 -2.13129418691869
 1  4.30858134483448 -1.05958437223722  0.59834123432343
 1  4.22145745724572  1.13952949564956 -2.76896738243824
 1  5.20663759595960  2.31104152805281 -1.90715815421542
 1  5.89169873837384  0.79475066596660 -3.00782703960396
 1  6.63285146904690  1.45219520012001  0.08813842774277
 1  6.42374024612461 -0.23183051975198  0.70824702020202
 1  7.47952007480748 -1.29018969196920 -1.32518727592759
 1  7.61086364486449  0.41903100610061 -1.99216003890389
 1  9.03157920222022  0.99535903340334  0.13725615371537
 1  8.87076019681968 -0.63053140584058  0.98425454885489
 1  10.27532216401640  0.07521366916692 -1.85815097309731
 1  9.34209381848185 -2.38292657615762 -1.87217559945995
 1  10.98753789438944 -1.95052845214521 -1.96880223832383
 1  9.97923012011201 -2.47617173187319 -0.37110450415042
 1  11.51143278487849  0.73855028842884  0.36566433723372
 1  11.32319991549155 -1.07665896349635  0.91393771387139
 1  12.90929888238824 -1.44919233853385 -1.18706097759776
 1  12.89246507640764  0.29571450745075 -1.68582291599160
 1  13.90528194849485  0.95081044434443  0.43745857455746
 1  14.07487579817982 -0.49970634953495  1.15788816281628
 1  15.26398680008001  0.31602499949995 -1.56789805860586
 1  15.83517731453145 -2.43742308350835 -0.17982611811181
 1  14.91683332773277 -1.98677319731973 -1.66001737523752
 1  16.77881616121612 -1.62047294429443 -1.56255276857686
 1  16.06778005150515  1.40350868456846  0.67202311861186
 1  16.62910698849885 -0.22800908570857  1.14958345304530
 1  18.55629236693670 -0.28439495349535 -0.63020321592159
 1  17.79004631423142  1.35930482458246 -1.34622036563656
 1  18.37199625652565  2.28417968596860  1.11615356215622
 1  18.88742470497050  0.95549038853885  1.58216146164616
 1  20.66095592789279  0.50507150475047 -0.07428153595359
 1  20.08343516201620  3.14351512801280 -0.96786897159716
 1  21.60378417921792  2.32253339543954 -1.10667864906491
 1  20.02209060666067  1.72789307950795 -1.94993337773777
 1  20.87469132263226  1.54056969786979  2.17694136293629
 1  22.17622551535153  1.96167663836384  1.28960561416142
 1  20.80565064356436  3.12736885408541  1.36574371107111

