%nproc=4
%Mem=2GB
# td=(NStates=1) CAM-B3LYP/6-31G(d,p) 

TD

0 1
<<<<<<< HEAD
12 -7.13099367236724  0.55584433253325  0.02379006640664
 6 -4.94937955595560 -2.01640281868187  0.60132666536654
 6 -4.72031196009601  2.86785523282328  1.27087345224522
 6 -9.34145888138814  3.06584207970797 -0.49281214091409
 6 -9.57828814251425 -1.72600811181118 -0.83678010711071
 7 -5.02251567616762  0.48086790489049  0.66887730603060
 6 -4.33070277637764 -0.74434425642564  0.78091611481148
 6 -2.84306331173117 -0.46267569326933  1.19389974417442
 6 -2.95294873327333  1.09025169346935  1.68106883758376
 6 -4.25773276817682  1.56608735753575  1.20104713461346
 6 -2.82282736483648  1.14281656975698  3.18652006090609
 6 -1.87889135013501 -0.68600386178618  0.06703066136614
 6 -0.43314073667367 -0.60480482768277  0.57637176647665
 6  0.55306644384438 -0.67950146304630 -0.51832721322132
 8  0.23198443854385 -0.97000240784078 -1.64585091679168
 8  1.78025983648365 -0.48178557495750 -0.12598938783878
 7 -6.99884033193319  2.56746233603360  0.30980967646765
 6 -6.05410468946895  3.28929990579058  0.86498003160316
 6 -6.35580283338334  4.68158244764476  0.79254994219422
 6 -7.71259396639664  4.85306593809381  0.30922931423142
 6 -8.10596486808681  3.42772196749675  0.03119566586659
 6 -5.56106406310631  5.89433189908991  1.14562932343234
 6 -8.46827462506251  6.09187022072207  0.01598858425843
 6 -8.41894578587859  7.17740385898590  0.73154940474047
 7 -9.17755002760276  0.73072593369337 -0.57439147284728
 6 -9.90516677637764  1.85767572067207 -0.71601792589259
 6 -11.22285138173817  1.60815915501550 -1.24100582008201
 6 -11.25351775567557  0.09055441954195 -1.27730644464446
 6 -9.97883356405640 -0.33424539883988 -0.86244126022602
 6 -12.16301512521252  2.56482705370537 -1.58786556135614
 6 -12.40580512681268 -0.68197560766077 -1.81792260076008
 6 -12.16868435683568 -1.09331174237424 -3.30021514011401
 7 -7.30618008630863 -1.37382699629963 -0.12155683268327
 6 -8.32748298809881 -2.24687986008601 -0.52678763396340
 6 -7.82583872947295 -3.60568883638364 -0.51295857315732
 6 -6.56229011311131 -3.55415975297530 -0.08089982188219
 6 -6.19823241964196 -2.21011929322932  0.17296010021002
 6 -8.59950741814181 -4.82080492289229 -0.89572805120512
 6 -5.38769323962396 -4.37629151265126  0.25848872147215
 8 -5.31323016091609 -5.59416389978998  0.18926595729573
 6 -4.17449102850285 -3.41959774957496  0.50566043134313
 6 -3.52314294519452 -3.71589681098110  1.93271364426443
 8 -3.64175577617762 -3.16423315951595  3.06976965806581
 8 -2.77411860556056 -4.90583530593059  1.77500608150815
 6 -2.17692828072807 -5.34374860396040  2.96813174867487
 6  2.77694020572057 -0.57004479907991 -1.13817501790179
 6  4.13469555855586 -0.40895907220722 -0.61088123712371
 6  5.08374185858586  0.44407067246725 -0.90718049074907
 6  4.93489191219122  1.35124777407741 -2.12480664596460
 6  6.30182451525152  0.50516236643664 -0.09783626882688
 6  7.57667520542054 -0.10379072597260 -0.82687963846385
 6  8.87854972757276 -0.00761589198920 -0.08119993279328
 6  10.15564618911891 -0.46614368606861 -0.78591956245625
 6  10.10215691589159 -1.95445638173817 -1.07275074007401
 6  11.47209008590859 -0.26711049184918  0.12383325192519
 6  12.81438634633463 -0.24744879597960 -0.72594261716172
 6  13.97506697509751  0.01953075027503  0.15605267276728
 6  15.32164828972897 -0.10916464556456 -0.54225246504650
 6  15.57189885878588 -1.65231286508651 -1.04138375607561
 6  16.47529163506351  0.35289964996500  0.32499700690069
 6  17.90144473387339  0.42793419181918 -0.26982279687969
 6  18.77171754125413  1.29702791979198  0.67467790079008
 6  20.22396106530653  1.31517185068507  0.19143390659066
 6  20.38217957175718  1.92382067926793 -1.20355134783478
 6  21.07511844264426  1.98558149444944  1.21711707510751
 1 -4.05924740924092  3.59479500090009  1.75498008490849
 1 -9.99356974967497  3.84963579857986 -0.68094348584858
 1 -10.48821211061106 -2.54615395619562 -0.80123677587759
 1 -2.50391684858486 -1.07311562546255  1.97985867706771
 1 -2.21295490069007  1.62698628122812  1.28799945034503
 1 -1.88659311681168  0.80763121602160  3.65401911541154
 1 -2.94999005900590  2.21882594009401  3.48531069646965
 1 -3.53525696839684  0.77313199719972  3.82203461626163
 1 -2.22046453135313 -1.77429739013901 -0.36035994519452
 1 -2.05412708520852  0.04384163456346 -0.62700273987399
 1 -0.44791830923092  0.36918153205321  0.98045844494449
 1 -0.19917771977198 -1.21800631583158  1.55862981818182
 1 -5.55147392279228  6.60855950005000  0.47012272147215
 1 -5.69611660106010  5.97588095119512  2.30087638473847
 1 -4.56513046904691  5.59867103350335  0.96916009160916
 1 -9.32489454195420  5.94220036813681 -0.85255548374837
 1 -9.00003121902190  8.15379611851185  0.28496811861186
 1 -8.00579004480448  7.09055545504550  1.68684707020702
 1 -12.02765687078708  2.74686501250125 -2.81792479717972
 1 -13.50784045324532  2.22966685788579 -1.29857104860486
 1 -12.09005073617362  3.55346400110011 -1.07858910291029
 1 -12.40583536193619 -1.59541898699870 -1.25050000490049
 1 -13.48726744564456 -0.36605334213421 -1.73283881138114
 1 -13.02293864646465 -1.68654334053405 -3.79008889338934
 1 -12.13295685988599 -0.20001453905391 -4.05591908760876
 1 -11.35319159845985 -1.71608647574757 -3.62960158015802
 1 -9.20859046204620 -4.82102284518452 -1.76370963506351
 1 -8.05627499229923 -5.80250025422542 -0.98875848884888
 1 -9.43321320622062 -5.18880390169017 -0.20857267986799
 1 -3.33961465736574 -3.65623887458746 -0.12544781628163
 1 -1.36456462296230 -4.61161760146015  3.17924083938394
 1 -3.01385099369937 -5.45320693829383  3.71122396129613
 1 -1.88994710621062 -6.50906017921792  2.84907886078608
 1  2.82247155125513 -1.63548538443844 -1.66870083508351
 1  2.64003148074808  0.10637491709171 -1.86630978317832
 1  4.33473437903790 -1.03364557975798  0.25956917291729
 1  3.92904186768677  1.38433714411441 -2.50500887058706
 1  5.22018743044304  2.23056331523152 -1.72085855405541
 1  5.43897120472047  0.87268837633763 -3.00252898389839
 1  6.73419548244824  1.52615661566157  0.16913955675568
 1  6.10025414481448 -0.05982401980198  0.72393210991099
 1  7.13423080778078 -1.04847408260826 -1.16261758535854
 1  7.82456489238924  0.34258746684668 -1.74267719131913
 1  9.03498555015501  1.04980286528653  0.10854848704870
 1  8.69126761546155 -0.56615212141214  0.86031389508951
 1  10.38541609300930  0.05107764546455 -1.79020390989099
 1  9.45287027252725 -2.16423439993999 -1.75583150795079
 1  10.93468602430243 -2.61724850875087 -1.48098234213421
 1  9.62536542254225 -2.50567250925093  0.03839439973997
 1  11.18290597149715  0.61125335553555  0.62933442094209
 1  11.37706075947595 -1.21656761806181  0.89803042464246
 1  12.91851517041704 -1.29863802500250 -1.09784745234523
 1  12.63956770927093  0.38564925592559 -1.55643900520052
 1  14.15973741044104  1.00266282228223  0.40913825682568
 1  14.07267002010201 -0.70391999669967  1.00340685718572
 1  15.41817510601060  0.32972245724572 -1.49160351835184
 1  15.54204164706471 -2.11597188928893 -0.18493994789479
 1  14.82445549624963 -2.06233860946095 -1.72562997809781
 1  16.64364399379938 -1.67178270317032 -1.19586105560556
 1  16.04251945264526  1.25023285698570  0.65148169246925
 1  16.33476792399240 -0.09542871797180  1.34709747094709
 1  18.36942788148815 -0.49952650005000 -0.49070241064106
 1  17.80957802230223  1.05347266616662 -1.27196077187719
 1  18.38656944954495  2.25882003970397  0.55961396669667
 1  18.83521068136814  1.08974315531553  1.64962496279628
 1  20.42497741044104  0.27964411261126  0.04374143814381
 1  20.01344545114511  3.03111667356736 -1.27297089048905
 1  21.45952020412041  1.76946359915992 -1.54327569086909
 1  19.74738864326433  1.36498830963096 -1.96262323132313
 1  20.99550552575258  1.22295040414041  1.92215183238324
 1  22.08499020532053  2.27211844154415  1.01395636193619
 1  20.62647237713772  3.11527161046105  1.50237067756776
=======
12 -7.11468204120412  0.64626337443744  0.00086777417742
 6 -4.84476909490949 -1.94275545394539  0.47934446714671
 6 -4.80716064496450  2.82165061236124  1.17339370427043
 6 -9.44736947244724  3.03039853535354 -0.29258211791179
 6 -9.49952026572657 -1.70364587558756 -0.91669809890989
 7 -5.11869529412941  0.46057587568757  0.72599301760176
 6 -4.32430213631363 -0.76426624862486  0.81058908210821
 6 -2.93521252665267 -0.35365479117912  1.22687304150415
 6 -3.12479591799180  1.13380604890489  1.62109283998400
 6 -4.45549254415442  1.51572232103210  1.16864389428943
 6 -2.95591067316732  1.41984427252725  3.18403981288129
 6 -1.93783724472447 -0.73362862426243  0.06224018231823
 6 -0.47341476407641 -0.50243459065907  0.41849597889789
 6  0.55752688988899 -0.68574208710871 -0.59900528102810
 8  0.29713095319532 -0.94680008760876 -1.72509884158416
 8  1.74922673317332 -0.24449184558456 -0.26986377527753
 7 -7.14845529342934  2.58647423722372  0.38351704720472
 6 -6.10662994199420  3.34469544534453  0.84025755935594
 6 -6.37207446054605  4.81189547894789  0.66111679887989
 6 -7.72723543054305  4.80751138263826  0.29930832213221
 6 -8.25808007960796  3.42051124642464  0.16951949824983
 6 -5.55049300600060  5.91418388428843  1.01117587808781
 6 -8.53528132573257  5.95192622632263  0.19070605600560
 6 -8.45149904120412  7.07056317491749  0.94696094589459
 7 -9.19285155775578  0.72710557165717 -0.50489452315232
 6 -9.96066232593259  1.73237319041904 -0.65434175827583
 6 -11.25119421602160  1.48050638973897 -1.20618233773377
 6 -11.24566697059706  0.00678604270427 -1.18723743774377
 6 -9.83644932563256 -0.45211718601860 -0.85148016411641
 6 -12.34792361606161  2.38840941194119 -1.40486726152615
 6 -12.42795734203420 -0.76159356945695 -1.74527533603360
 6 -12.43735122352235 -1.11874428562856 -3.22054717331733
 7 -7.23836330463046 -1.45262487608761 -0.13867854485449
 6 -8.27139737953795 -2.29916508860886 -0.44417937313731
 6 -7.79906605220522 -3.61779004650465 -0.54318159545955
 6 -6.53198708280828 -3.58870320732073 -0.09191092299230
 6 -6.23403600000000 -2.22210049134913 -0.00345754155416
 6 -8.54905237263726 -4.82217505990599 -0.95767424582458
 6 -5.23849832013201 -4.31525540904090  0.18273114571457
 8 -5.10536937483748 -5.49565404880488  0.21678870957096
 6 -4.17224080348035 -3.28339412921292  0.62199206450645
 6 -3.58062869376938 -3.63490871217122  1.94215458835884
 8 -3.81078267886789 -3.00068680488049  3.03112579367937
 8 -2.78452964666467 -4.74984970737074  1.93400198109811
 6 -2.14788537643764 -5.10517474657466  3.13300823632363
 6  2.77587009870987 -0.40554834943494 -1.22364356475648
 6  4.08563065206521 -0.31092926922692 -0.49648979797980
 6  5.21394487888789  0.35312157755776 -0.96187596029603
 6  5.25364378737874  1.16065871517152 -2.17753191849185
 6  6.50104443724372  0.25154700490049 -0.08418490369037
 6  7.70715825372537  0.01188084118412 -1.10291724222422
 6  8.96186805940594 -0.11233636403640 -0.31961377417742
 6  10.23845446994699 -0.62154922662266 -1.00071104160416
 6  10.24131083128313 -2.11573250935094 -1.47513097809781
 6  11.44656753365336 -0.40143392419242 -0.09656878827883
 6  12.76837174487449 -0.68767281838184 -0.73605362826283
 6  13.99765923432343 -0.36144734753475  0.17803487098710
 6  15.36936306120612 -0.32111584068407 -0.51976021582158
 6  15.82310397929793 -1.69232686648665 -0.86827644534453
 6  16.37586169206921  0.43435779577958  0.32526703390339
 6  17.85471006040604  0.60836223462346 -0.17547336193619
 6  18.83826419591959  1.31282949994999  0.78915934893489
 6  20.20219888908891  1.41998233173317  0.26946170937094
 6  20.35471682548255  2.15909420662066 -1.01110210291029
 6  21.04739567036704  1.95845878217822  1.47590295369537
 1 -4.05336682118212  3.27553307470747  1.60483507040704
 1 -10.32608300100010  3.87652848784878 -0.65632102360236
 1 -10.22959624902490 -2.52753209400940 -1.15219187138714
 1 -2.71562801970197 -0.93998231213121  2.30817150835083
 1 -2.35919952515252  1.81711529412941  1.18824947534753
 1 -1.91532599009901  1.17795824872487  3.65044875837584
 1 -2.91822688268827  2.45580963846385  3.41665383078308
 1 -3.77992143484348  0.90461514551455  3.62033444624462
 1 -2.08943142804280 -1.69108906930693 -0.32509641884188
 1 -2.33817549004900 -0.26220897049705 -0.93268330793079
 1 -0.42005552295230  0.45221983588359  0.69786018511851
 1 -0.33855165716572 -1.03703821902190  1.24636859205921
 1 -5.91004978037804  6.81058970307031  0.65277098629863
 1 -5.54202119151915  6.09637300040004  2.08378467556756
 1 -4.50095405140514  5.63676484288429  0.78612178777878
 1 -9.26988904140414  6.05776192429243 -0.76960718891889
 1 -9.33195441134114  7.89432017091709  0.85975559735974
 1 -7.68759822562256  7.33102950245024  1.71939032453245
 1 -12.25243934903490  3.10312063806381 -2.22282528722872
 1 -13.12806247544754  1.70866475767577 -1.68689988148815
 1 -12.32616434753475  3.06824547924792 -0.39969121312131
 1 -12.47345212361236 -1.69475892099210 -1.09333428832883
 1 -13.39556827572757 -0.30421715851585 -1.49842537003700
 1 -13.36200255285529 -1.54091877807781 -3.65287517201720
 1 -12.19120268446845 -0.05526006360636 -3.71202469816982
 1 -11.70817709700970 -1.95296016311631 -3.48378699869987
 1 -8.56044564756476 -4.99131987488749 -1.95267853195320
 1 -8.13322268706871 -5.75456546074607 -0.61103071607161
 1 -9.66913679857986 -4.78108312961296 -0.48321014361436
 1 -3.29054975087509 -3.29248249894990 -0.18798406990699
 1 -1.64990315681568 -4.16033247294730  3.52037495279528
 1 -2.87883749234924 -5.34645626322632  3.78918175707571
 1 -1.46030414191419 -5.79640891409141  3.05046899979998
 1  2.70827013111311 -1.51989382528253 -1.78164212921292
 1  2.77506498409841  0.52380666026603 -1.99680283248325
 1  4.13580448604860 -0.89955217041704  0.22360557655766
 1  4.17550651415142  1.29075778617862 -2.42710107980798
 1  5.51762717441744  2.11900215911591 -1.82276874507451
 1  5.88275558315832  0.83278438593859 -2.92800153115312
 1  6.51641370427043  1.29569356935694  0.48537117991799
 1  6.30817493689369 -0.39910794819482  0.58854857155716
 1  7.56735412011201 -0.95282451765177 -1.61166248984899
 1  7.88090052595260  0.87870107820782 -1.81351427502750
 1  9.22218427002700  0.76287417241724  0.23211084328433
 1  8.97477596629663 -0.93685919211921  0.39755761946195
 1  10.52867041844184 -0.00413787608761 -1.90426531603160
 1  9.35124010951095 -2.25333330983098 -2.20892681748175
 1  11.19324187988799 -2.21880866476648 -2.01469571347135
 1  10.05720860686069 -2.72583452545254 -0.44485392509251
 1  11.52559023992399  0.59592182238224  0.45346683418342
 1  11.31484453785379 -0.99150511181118  0.88632925452545
 1  12.51775509440944 -1.79561772297230 -1.26787445504550
 1  13.00418417091709 -0.23496280528053 -1.63517687898790
 1  13.86159759645965  0.61546410241024  0.89507685068507
 1  14.04738749184919 -1.20172977767777  0.95314183068307
 1  15.06305959445945  0.38384786978698 -1.35995035303530
 1  15.88558600150015 -2.23444373647365 -0.10269172307231
 1  14.90287333803380 -1.98671104670467 -1.43683109820982
 1  16.72722235163517 -1.59047457235724 -1.55185665516552
 1  15.98845404610461  1.33490132383238  0.66344288858886
 1  16.40683513071307  0.07086791169117  1.49300206140614
 1  18.25572651135113 -0.54412095949595 -0.53262660306031
 1  17.75962302680268  1.20342766166617 -1.11213478927893
 1  18.55907670027003  2.32970712841284  0.86696470177018
 1  18.80228738903891  0.81495567656766  1.61390139043904
 1  20.45330024272427  0.30941708990899  0.22288935293529
 1  19.98276238283828  3.20673423532353 -0.77404099749975
 1  21.57420167226723  1.88327498029803 -1.10772213551355
 1  19.93315722012201  1.78240005080508 -1.88700566956696
 1  20.96965294049405  1.40900901000100  2.34553417061706
 1  22.10779248554855  1.95285651535154  1.18726369266927
 1  20.73902363226323  3.06493657695770  1.81634207470747
>>>>>>> 8e03b5b5abfc0030b3aa597dc0de36371bfbd096

