%nproc=4
%Mem=2GB
# td=(NStates=1) CAM-B3LYP/6-31G(d,p) 

TD

0 1
<<<<<<< HEAD
12 -7.15814638763876  0.59088783688369  0.07263495089509
 6 -4.82090670867087 -1.92741391979198  0.41979851255126
 6 -4.75447537643764  2.82739118641864  0.95190155505551
 6 -9.38451318681868  3.11874737023702 -0.39067192689269
 6 -9.51908222192219 -1.72509802080208 -0.92554898399840
 7 -5.21657508210821  0.46779659775978  0.80098051635164
 6 -4.39286899299930 -0.67833765576558  0.73817184038404
 6 -2.88362736813681 -0.36921634733473  1.10778113231323
 6 -3.02046548494849  1.09581224952495  1.66959769046905
 6 -4.32580957585759  1.55760650945095  1.17339436933693
 6 -2.96098118021802  1.15773806190619  3.14769617851785
 6 -1.87931139213921 -0.77116237763776  0.09085304360436
 6 -0.42900032263226 -0.65330967816782  0.59042317161716
 6  0.53065420262026 -0.79502301520152 -0.53859924042404
 8  0.32119335943594 -1.27910331793179 -1.62847917961796
 8  1.78110992149215 -0.53279067546755 -0.08317510641064
 7 -7.11058150605061  2.63164875467547  0.27347604310431
 6 -6.03362264126413  3.23777475327533  0.75507904150415
 6 -6.38044529762976  4.74399868926893  0.85965665286529
 6 -7.63557626462646  4.76650728222822  0.33580197149715
 6 -8.10315458705871  3.47875707100710  0.04631717801780
 6 -5.40154811151115  5.85183764966497  1.21478623912391
 6 -8.42233003060306  6.04528556225623  0.16899388478848
 6 -8.31987587888789  7.26728284688469  0.79995624542454
 7 -9.12237451005100  0.70334319541954 -0.54073810751075
 6 -9.84627088678868  1.81215116821682 -0.62290861496150
 6 -11.18218731533153  1.48887722682268 -1.14758647814782
 6 -11.24573697759776  0.16753211731173 -1.29364807880788
 6 -9.94101978267827 -0.37087906220622 -0.90412542864286
 6 -12.30236906060606  2.51567213821382 -1.33775054985499
 6 -12.39216376267627 -0.72590000010001 -1.80267107560756
 6 -12.40912840124012 -0.90098250945094 -3.31138625722572
 7 -7.24332380068007 -1.36863647724772 -0.20782545954595
 6 -8.30487072687269 -2.22206737883788 -0.59753470867087
 6 -7.79211535713571 -3.55191345884588 -0.44424170147015
 6 -6.50682456655666 -3.52991732873287 -0.02756448834884
 6 -6.12962555895590 -2.17755603690369  0.03475627982798
 6 -8.69837730513051 -4.77986082848285 -0.93230170857086
 6 -5.33615808610861 -4.29654353785379  0.26662953555356
 8 -5.18646748464846 -5.52185666906691  0.09293632433243
 6 -4.19249282868287 -3.37467325712571  0.45627549284928
 6 -3.61342197309731 -3.63485870717072  1.87774814771477
 8 -3.91433303390339 -3.15586232243224  2.94004668576858
 8 -2.89616080978098 -4.78861358375838  1.79329791069107
 6 -2.50507109500950 -5.27854208330833  3.09755469096910
 6  2.76007851955195 -0.79035683028303 -1.07343854425443
 6  4.16267835683568 -0.50750892719272 -0.51785193419342
 6  5.15434891929193  0.26783304870487 -0.96502627532753
 6  5.21502992599260  1.09438208750875 -2.24171833713371
 6  6.39449378217822  0.38188003820382 -0.12276876207621
 6  7.64233177107711 -0.27666801370137 -0.85431238173817
 6  8.85523739633963 -0.14710984138414 -0.03601541434143
 6  10.22584320882088 -0.69158623032303 -0.71543251375138
 6  10.17563426362636 -2.04919585568557 -1.15035850085009
 6  11.40294317121712 -0.25828960976098  0.11502237083708
 6  12.75979088678868 -0.31633568466847 -0.69330935383538
 6  14.03618308670867 -0.00152135493549  0.28238530603060
 6  15.33955007990799 -0.12141587068707 -0.44487272707271
 6  15.73119478837884 -1.54593222702270 -0.80815043274327
 6  16.47172127802780  0.55533989398940  0.38527303450345
 6  17.79400398979898  0.68099949834984 -0.20806662126213
 6  18.85026539603960  1.46334455145515  0.68169860286029
 6  20.25514418361836  1.41518185168517  0.06236099929993
 6  20.20317167096710  2.17488578577858 -1.35387638033803
 6  21.22468339913992  2.00035297159716  1.08710407380738
 1 -3.89049053355336  3.37522304370437  1.15625021192119
 1 -10.10549094179418  3.92098293329333 -0.64667005850585
 1 -10.20870415981598 -2.41580092089209 -1.36920357255726
 1 -2.78581503840384 -1.07071538543854  1.95989668086809
 1 -2.27103070827083  1.75583916651665  1.18304895529553
 1 -1.99280373787379  0.56575702860286  3.20414412791279
 1 -2.72318737873787  2.22886694419442  3.50023218861886
 1 -3.91230467316732  0.63807849184918  3.64899731253125
 1 -1.96733921882188 -1.74071403180318 -0.35572948214821
 1 -1.91702337483748 -0.12526527612761 -0.72282232183218
 1 -0.17656117351735  0.35235984988499  1.00003040214021
 1 -0.23692149414941 -1.25283979917992  1.42604655985599
 1 -5.75828460386039  6.70025866996700  0.50067577677768
 1 -5.29309629902990  6.34934829792979  2.15122141924192
 1 -4.44731868786879  5.53371453785379  0.91693486908691
 1 -9.05998805130513  5.80523667176718 -0.59561979017902
 1 -8.77821903780378  7.99567030593059  0.45403502530253
 1 -7.87366683248325  7.52344874437444  1.69297768326833
 1 -12.00610471557156  3.09939026502650 -2.00910391509151
 1 -13.37645731493149  1.99111300250025 -1.40002119361936
 1 -12.44412614371437  3.05379403410341 -0.39223046704670
 1 -12.17049182758276 -1.75329477457746 -1.31044599949995
 1 -13.28981770067007 -0.30458719551955 -1.22453798129813
 1 -13.24835118771877 -1.61627631383138 -3.67446733123312
 1 -12.36829039323933  0.12616807920792 -3.71311480718072
 1 -11.62868914821482 -1.56307117421742 -3.59094771477148
 1 -8.79299890289029 -4.68666940984098 -2.06301956605661
 1 -8.22185154995500 -5.77383738793879 -0.57054666766677
 1 -9.81156104100410 -4.79807482878288 -0.62442426502650
 1 -3.43800449634963 -3.42693594429443 -0.25778104960496
 1 -2.05774394089409 -4.44989142884288  3.71204411971197
 1 -3.45674528312831 -5.64917653525353  3.54357719661966
 1 -1.64629274077408 -5.86478575177518  2.86433038593859
 1  2.67601690579058 -1.86479831573157 -1.50886485148515
 1  2.43610108770877 -0.04578029842984 -1.91361451365136
 1  4.38659956555656 -1.02328454365437  0.40382359835984
 1  4.10857982148215  1.11648035843584 -2.72676104580458
 1  5.51697710941094  2.06422668156816 -2.18595506370637
 1  5.60841814941494  0.30267137463746 -2.92154088508851
 1  6.41520358325833  1.33530753075308 -0.06866422362236
 1  6.29031315071507  0.10136209880988  1.05093481018102
 1  7.04932231693169 -1.26304553975398 -1.05898722232223
 1  7.83375581148115  0.17690089818982 -1.84116704030403
 1  9.00684273587358  0.85382326732673  0.29574720692069
 1  8.88370685938594 -0.71396690289029  0.91670953465347
 1  10.49995754715471  0.06123866156616 -1.67692258175818
 1  9.30582556805681 -2.27857583408341 -1.72678860366037
 1  10.99512206790679 -2.11108789268927 -2.00356460036004
 1  10.51136402240224 -2.66860880288029 -0.37398683838384
 1  11.25365304620462  0.80476270647065  0.40283177067707
 1  11.18740179357936 -0.91318728002800  1.00402102370237
 1  12.83365668456846 -1.30010817201720 -1.05884355195520
 1  12.86713046554655  0.46488717971797 -1.63606696799680
 1  13.75948738543854  0.86952950895090  0.82665000800080
 1  13.95986873997400 -0.80568017271727  1.06939345584558
 1  15.46440972947295  0.36363584858486 -1.38757311531153
 1  15.55643308620862 -2.31172146424642 -0.06783823772377
 1  15.03641669236924 -1.81945432103210 -1.50562797789779
 1  16.76573620302030 -1.54994051895190 -1.19603107260726
 1  15.93226842754275  1.61014884858486  0.63739028332833
 1  16.39394384158416  0.03330415531553  1.40829359055906
 1  18.31788272697270 -0.28740528792879 -0.38392173257326
 1  17.69609667416742  0.92403972287229 -1.27661123692369
 1  18.64934572717272  2.44500865856586  0.82771077637764
 1  18.80243740404040  1.09749393039304  1.74463446374637
 1  20.55690060276028  0.35044119231923 -0.20421335733573
 1  19.81398550515051  3.18020158205821 -1.09526311971197
 1  21.22620687278728  2.20068672147215 -1.81460282358236
 1  19.69492339673968  1.68485029582958 -2.26644361336134
 1  21.38082405760576  1.41034914401440  1.97129674687469
 1  22.25934764106411  2.14481571127113  0.79397436373637
 1  20.89613934383438  3.01816189948995  1.22495293579358
=======
12 -7.15428600160016  0.72647139523952  0.13924161156116
 6 -4.84867948594859 -2.04112529092909  0.62714924762476
 6 -4.79334926382638  2.79609805710571  1.36441280618062
 6 -9.29351408690869  3.09342483798380 -0.43829668936894
 6 -9.52711302500250 -1.78912442344234 -0.90893732283228
 7 -5.10280370497050  0.45310512861286  0.82221263956396
 6 -4.32134184028403 -0.70511033303330  0.81843986718672
 6 -2.87110611601160 -0.44117354305431  1.22355270947095
 6 -3.10249368776878  0.99522219051905  1.73053378407841
 6 -4.40118711361136  1.47153790259026  1.23150017991799
 6 -3.01233631573157  1.20121240934093  3.30910231913191
 6 -1.93612707370737 -0.47378263966397  0.12749670797080
 6 -0.52011943454345 -0.24679902710271  0.41487561686169
 6  0.49806094329433 -0.67847136003600 -0.63501888238824
 8  0.27819906000600 -0.97777318491849 -1.84687101880188
 8  1.84808661916192 -0.57219461586159 -0.25302209110911
 7 -7.04204465236524  2.63799938973897  0.57920661616162
 6 -6.07738701770177  3.35389636543654  0.97863139673967
 6 -6.45422267536754  4.73750804020402  0.85100578777878
 6 -7.63764647164717  4.84533516501650  0.33019141044104
 6 -8.06128039963997  3.39651884718472  0.10239278557856
 6 -5.62066002270227  5.89611207710771  1.41276603710371
 6 -8.43700149774977  6.04404543824382 -0.05657867246725
 6 -8.49884377567757  7.25338145674567  0.52186843664366
 7 -9.03766603920392  0.62332519361936 -0.74230826452645
 6 -9.79493575327533  1.86473642674267 -0.83713003710371
 6 -11.17225632223222  1.44857319641964 -1.21574329382938
 6 -11.16893929782978  0.12264762886289 -1.37024573857386
 6 -9.85413109380938 -0.37532950725073 -1.04557957405741
 6 -12.22908173187319  2.45744631563156 -1.41685846064606
 6 -12.34594914121412 -0.75544295439544 -1.83401420992099
 6 -12.13589107750775 -1.04974738593859 -3.22586770537054
 7 -7.24753422172217 -1.42252186578658 -0.07642231923192
 6 -8.25856609640964 -2.22505767786779 -0.55592054725473
 6 -7.90812695829583 -3.55213348084808 -0.44520179747975
 6 -6.56372025612561 -3.55580991799180 -0.05002673457346
 6 -6.20964356075608 -2.13558183948395  0.12774557875788
 6 -8.71148861626163 -4.75630847324732 -0.82823130153015
 6 -5.40281475177518 -4.42691657515752  0.36535940854085
 8 -5.22599143704370 -5.64161864526453  0.41454848554855
 6 -4.19255283468347 -3.44496028582858  0.65305517081708
 6 -3.59286991789179 -3.75192041334133  1.96036640954095
 8 -3.71032263286329 -3.05544228042804  3.01470415151515
 8 -2.83941513521352 -4.80421514391439  1.85823440434043
 6 -2.38367895579558 -5.42422665176518  3.15335027052705
 6  2.81939445114511 -0.79361715631563 -1.29323052345235
 6  4.19757184618462 -0.50533871017102 -0.68947909690969
 6  5.11290477487749  0.29192545794579 -1.17606737943794
 6  4.88217664066407  1.23292594189419 -2.30168433373337
 6  6.40536486928693  0.37005885608561 -0.35613209840984
 6  7.61204874277428 -0.21635198209821 -1.09267621812181
 6  8.93742561516152 -0.10588571897190 -0.22830464326433
 6  10.18495912041204 -0.61154822652265 -1.09413038353835
 6  10.16107280748075 -1.96047698379838 -1.50679414441444
 6  11.40776365326533 -0.34648842964296 -0.07440657205721
 6  12.82886779447945 -0.46578062916292 -0.75447547044704
 6  14.01909137753775 -0.12464366716672  0.14174124162416
 6  15.34352047694770 -0.10304403350335 -0.58490673047305
 6  15.78251992089209 -1.48950658445845 -1.07522714041404
 6  16.39743384928493  0.43854821482148  0.40556506370637
 6  17.76408099749975  0.53007440584058 -0.16899271387139
 6  18.79707007650765  1.27197541454145  0.85350578357836
 6  20.22905157435743  1.41715204870487  0.41523628682868
 6  20.39444079787979  2.15497379457946 -0.92884387708771
 6  21.05883681448145  2.07748068436844  1.48260362376238
 1 -3.95713719821982  3.53529905130513  1.72961754865487
 1 -9.96137653035304  4.11694252925292 -0.63853924542454
 1 -10.49432272167217 -2.27999734053405 -1.27003365556556
 1 -2.53830028692869 -0.90467878177818  2.11354204540454
 1 -2.35589919511951  1.77453103570357  1.21329197959796
 1 -2.16353081058106  0.86107656055606  3.76990070357036
 1 -2.84073913391339  2.29539359685969  3.39238140354035
 1 -3.94389783248325  0.80535521952195  3.74140655345535
 1 -1.94465695059506 -1.36460642104210 -0.33752766196620
 1 -2.29781145364536  0.27276452685269 -0.67115715531553
 1 -0.16305982338234  0.76483109700970  0.72799319841984
 1 -0.28049585158516 -0.85229974517452  1.20250420562056
 1 -5.66886566196620  6.70058870297030  0.75884159335934
 1 -5.70935792519252  6.15048841194119  2.57742403950395
 1 -4.53057701370137  5.74196536293629  1.37674084968497
 1 -9.19303135563556  6.07999414751475 -0.81186141434143
 1 -9.10777199309931  8.09593033193319  0.07974759655966
 1 -7.68122758855886  7.49367576707671  1.16255464096410
 1 -12.08920302540254  2.74632495849585 -2.59006201090109
 1 -13.20759042824282  1.98197208840884 -1.36212740424042
 1 -12.07022875397540  3.47098575327533 -0.63961520552055
 1 -12.17815259365937 -1.62238168326833 -1.44532948784878
 1 -13.20370908980898 -0.28268500530053 -1.61577710521052
 1 -12.92105845844585 -1.65269995619562 -3.81635151965197
 1 -11.91645520972097 -0.27855239283928 -4.09610310601060
 1 -11.10129640894089 -1.66543141024102 -3.22864148414841
 1 -9.06775637863786 -4.66599734263426 -1.80366363046305
 1 -8.16221558635863 -5.57120712491249 -0.82314192719272
 1 -9.43025291019102 -4.88062308360836 -0.11417323992399
 1 -3.23825452135214 -3.50445369606961 -0.01183645514551
 1 -1.77971613811381 -4.51207764746475  3.60836375167517
 1 -3.07221683028303 -5.75559717731773  3.70717355625563
 1 -1.71013912541254 -6.15739501270127  2.89791374427443
 1  2.89400870497050 -1.86272810871087 -1.46727069206921
 1  2.47208468606861 -0.11725744614461 -2.39626277847785
 1  4.26907781338134 -1.01402361756176  0.19743295929593
 1  3.85721468496850  1.31063977437744 -2.67757612731273
 1  5.13274868656866  2.32255251415141 -1.94940140834083
 1  5.54105141274127  0.93497460496050 -3.12050078107811
 1  6.53345540844084  1.40038403840384 -0.22725008220822
 1  6.41503562296230 -0.13370140754075  0.54312402910291
 1  7.28132551725172 -1.40641987718772 -1.32444376797680
 1  7.75160759665967  0.33759696779678 -2.06811973557356
 1  9.02712476407641  0.85243312831283  0.19061669386939
 1  9.06994548324833 -0.83861936813681  0.64155201890189
 1  10.26384393579358  0.15026756445645 -1.90797568706871
 1  9.33993897939794 -2.09009698619862 -2.18650457525753
 1  11.06030858655866 -2.21897868176818 -2.05485972987299
 1  9.96526941294129 -2.61624356635664 -0.69543898359836
 1  11.13493117401740  0.68012024222422  0.26364785228523
 1  11.42470552395240 -1.20894685598560  0.90906152775278
 1  12.83582690159016 -1.51760992219222 -1.03677134473447
 1  12.81352510501050  0.15353604460446 -1.78066142744275
 1  13.96397783448345  0.89977253325333  0.53491083408341
 1  14.20581333443344 -0.86284588928893  1.02411892839284
 1  15.38520180868087  0.67527701270127 -1.20588494649465
 1  15.66014345724573 -2.31495178727873 -0.23881533543354
 1  15.08907195789579 -1.77049942554255 -2.00884829992999
 1  16.85760538993900 -1.52166769166917 -1.39542101160116
 1  16.13660886158616  1.30660849454945  0.86987353165317
 1  16.55243969116912 -0.17510668576858  1.33929669086909
 1  18.36188712741274 -0.41049759715972 -0.04783812421242
 1  17.93462052655266  1.09439675857586 -1.22427600340034
 1  18.46882767536754  2.32580673837384  1.00430843614361
 1  18.74159131943194  0.72917709870987  1.90365036533653
 1  20.48855376807681  0.19361550975098  0.30710777477748
 1  19.85546965356535  3.17591115301530 -0.77984157755776
 1  21.49237348944894  2.44536118891889 -1.00531189448945
 1  19.95378928332833  1.47989980078008 -1.80633760276028
 1  20.81296727192719  1.42087019611961  2.43240285748575
 1  22.11550325662566  1.84571580128013  1.16403136943694
 1  20.59011874177418  3.11247133043304  1.59360980148015
>>>>>>> 8e03b5b5abfc0030b3aa597dc0de36371bfbd096

