%nproc=4
%Mem=2GB
# td=(NStates=1) CAM-B3LYP/6-31G(d,p) 

TD

0 1
<<<<<<< HEAD
12 -7.21918249124912  0.59735848394839  0.21498918631863
 6 -4.89888450645064 -1.85899707810781  0.46983351605161
 6 -4.85837576647665  2.85204365166517  1.20332669756976
 6 -9.34132886838684  3.01800729622962 -0.42020488018802
 6 -9.55869618331833 -1.81478698969897 -0.90929735883588
 7 -5.14800822542254  0.49261908000800  0.73875429372937
 6 -4.41627133323332 -0.62025184718472  0.77728575177518
 6 -2.89698870427043 -0.30102952865287  1.26522687688769
 6 -3.04493793219322  1.13124579287929  1.69247997869787
 6 -4.41975897079708  1.58719946874687  1.18769579947995
 6 -2.96073115521552  1.27637992609261  3.18291970087009
 6 -1.89825328632863 -0.66945220662066  0.26462042034203
 6 -0.46053347594759 -0.34741908910891  0.69768389768977
 6  0.44448558575858 -0.64726823972397 -0.56884226472647
 8  0.13224446454645 -0.91306671427143 -1.63720005170517
 8  1.80690250075007 -0.49263666006601 -0.11224801370137
 7 -7.14205465336534  2.64505009480948  0.35421411691169
 6 -6.08108738773877  3.35823679947995  0.80461399499950
 6 -6.46172342544254  4.76060034943494  0.85643633083308
 6 -7.65635834283428  4.84512514401440  0.29251764306431
 6 -8.13920819241924  3.41751094639464  0.10271281758176
 6 -5.58380633733373  5.92900536643664  1.15198995949595
 6 -8.56352415001500  5.93390442414241  0.04774175957596
 6 -8.42585647694770  7.12555867446745  0.74886113591359
 7 -9.13662593519352  0.64249711081108 -0.58865289898990
 6 -9.84478073777378  1.74513446654665 -0.69282560666067
 6 -11.22145124172417  1.40120845994599 -1.07793951345135
 6 -11.23654605850585  0.04993035713571 -1.36749546354635
 6 -9.85775145584558 -0.43537551185119 -0.96200121622162
 6 -12.35127395109511  2.38786935793579 -1.51012778757876
 6 -12.40356490279028 -0.90467787788779 -1.81310211871187
 6 -12.28923641204120 -1.18363077427743 -3.26685180378038
 7 -7.32662213051305 -1.40928054165417 -0.18713339033903
 6 -8.28756899669967 -2.34355952805281 -0.54906986218622
 6 -7.81295744134413 -3.71781004850485 -0.55669294659466
 6 -6.50408429252925 -3.52541687868787 -0.04502623452345
 6 -6.25619821622162 -2.20005828712871  0.10727353155316
 6 -8.58239570697070 -4.87082992539254 -0.98491697009701
 6 -5.28048251855185 -4.26679056255626  0.24618749134914
 8 -5.11531036893689 -5.55018950235023  0.33109013971397
 6 -4.21962554195420 -3.32229801960196  0.58475834113411
 6 -3.63462409330933 -3.60742596389639  1.89465983888389
 8 -3.82806440704070 -3.13096983318332  2.99956263736374
 8 -2.89743093679368 -4.78096281868187  1.79126770767077
 6 -2.26310689858986 -5.33655788488849  2.98656359185919
 6  2.86672918461846 -0.60549834443444 -1.18769997039704
 6  4.22454454345435 -0.23841201750175 -0.42972312131213
 6  5.14270775517552  0.57090335573557 -0.97539731243124
 6  5.12595101810181  1.32059470877088 -2.25251941724172
 6  6.41377571037104  0.69080093029303 -0.28810529572957
 6  7.75175271317132  0.08492814591459 -1.03975092559256
 6  9.00136200880088 -0.08990412081208 -0.12172398519852
 6  10.23227385188519 -0.56896396809681 -0.95309628012801
 6  10.09545624582458 -1.98801973807381 -1.13180664566457
 6  11.51623450035004 -0.33339712051205 -0.04714384578458
 6  12.84427933563356 -0.56468051915192 -0.72526254915492
 6  13.97578704710471 -0.08271947474747  0.05730279777978
 6  15.39970609550955 -0.14349807890789 -0.62561080088009
 6  15.66508817771777 -1.56721435523552 -1.04267388508851
 6  16.40625473137314  0.46131049104911  0.30673518071807
 6  17.93421801120112  0.56325772417242 -0.24066988158816
 6  18.82115248474847  1.11625984298430  0.75803623662366
 6  20.39427809700970  1.17587792129213  0.28093285648565
 6  20.38501985578558  1.87238553575358 -0.99989098179818
 6  21.18270920172017  1.85960889718972  1.36770213361336
 1 -3.99929141364136  3.59313483488349  1.39588417531753
 1 -10.02787318001800  3.79511034603460 -0.56852224372437
 1 -10.24143743314331 -2.42918225902590 -1.22474912711271
 1 -2.81738819571957 -0.94781309520952  2.28699939113911
 1 -2.30571417661766  1.86542012461246  1.36318696909691
 1 -1.89283374087409  0.86446689958996  3.51427514101410
 1 -3.20163522352235  2.30381443894390  3.26609877527753
 1 -3.84051749444944  0.70850553455345  3.78843125592559
 1 -1.98681116601660 -1.77756771717172 -0.10417432663266
 1 -2.05394706720672 -0.15700845044504 -0.66875691529153
 1 -0.27584110151015  0.57676229012901  1.12812321142114
 1 -0.33833163516352 -1.01155567076708  1.35352930813081
 1 -5.66288506390639  6.87007565166517  0.60291600080008
 1 -5.55232222162216  5.99232259535954  2.25336163326333
 1 -4.65332928892889  5.68634980138014  0.75313848944895
 1 -9.32997505000500  5.79378552665266 -0.82625285348535
 1 -8.95896711261126  7.82150288918892  0.42973259505951
 1 -7.81360082588259  7.13141954145414  1.68306669216922
 1 -11.93802790789079  2.96439676567657 -2.53891689638964
 1 -13.26981665086508  2.01982587378738 -1.68612980448045
 1 -12.76844857595760  3.07524617931793 -0.73097434143414
 1 -12.21470624902490 -1.83307275237524 -1.24160911581158
 1 -13.44443316221622 -0.50652738953895 -1.49214474197420
 1 -13.07501385398540 -1.81582626882688 -3.81333121762176
 1 -12.46294985918592 -0.08247278487849 -3.88118161386139
 1 -11.22023830313031 -1.46736160326033 -3.64508312831283
 1 -8.61407101010101 -4.89102984588459 -1.97552081618162
 1 -7.85770513531353 -5.71245124932493 -0.91979159215922
 1 -9.42633251815182 -5.00864588588859 -0.34500632323232
 1 -3.36594729062906 -3.61769502020202 -0.12974824632463
 1 -1.76963513001300 -4.40535697539754  3.27369028432843
 1 -3.09796940554055 -5.53440505810581  3.67715055395540
 1 -1.39501761326133 -5.98303757695770  2.59229318221822
 1  2.85150445454545 -1.63728556445645 -1.54747871287129
 1  2.38113559115912  0.07454173377338 -1.89145229742974
 1  4.44333523912391 -0.99341155635564  0.33650686668667
 1  4.04096305980598  1.13213192359236 -2.70585895559556
 1  4.97662307400740  2.57581784068407 -2.08840530873087
 1  6.15888319591959  1.21786289378938 -2.78947767876788
 1  6.86552861576158  1.75790979097910 -0.31637899509951
 1  6.30943506290629  0.25050701330133  0.60019973667367
 1  7.55096248094809 -0.99550878607861 -1.41112243584358
 1  7.99707214311431  0.98521172927293 -1.89322224582458
 1  9.29502155375538  0.87808569356936  0.38778641084108
 1  8.86737522622262 -0.91542704890489  0.65296316001600
 1  10.45822337373737 -0.02163962626263 -1.80943583308331
 1  9.40570555605560 -2.30671864836484 -1.93050897569757
 1  10.98508106380638 -2.51498828272827 -1.52168641254125
 1  10.00019290529053 -2.64476641864186 -0.30782022172217
 1  11.57257493839384  0.60486271647165  0.35844733223322
 1  11.58744179757976 -0.95191115241524  0.81424204580458
 1  13.08232155105511 -1.58176633783378 -0.95180284788479
 1  12.94901865436544 -0.03857316631663 -1.78359172047205
 1  13.77507894459446  1.20438299429943  0.19269661266127
 1  14.04602735583558 -0.64812441714171  1.11951846834683
 1  15.23585687418742  0.44546403140314 -1.51407576557656
 1  15.56078352125212 -2.44534482658266 -0.11602305620562
 1  14.87260031073107 -2.10666304190419 -1.55366278137814
 1  16.81726135553556 -1.80205573047305 -1.58234970447045
 1  16.09804500520052  1.40444827852785  0.75220176447645
 1  16.48970341754175 -0.08748792389239  1.21381414261426
 1  18.23013395209521 -0.43184973237324 -0.60661400180018
 1  18.03433049754976  1.21275859475948 -1.18359193499350
 1  18.71823261586159  2.12085624332433  0.99879788508851
 1  18.82032919321932  0.46012019301930  1.54667466776678
 1  20.69355426812681  0.15119126732673  0.07569463346335
 1  19.97220132673267  2.91038460036004 -0.65101869526953
 1  21.33143739583959  1.79203585638564 -1.66723808710871
 1  19.79085298969897  1.48318012881288 -1.80483745274527
 1  21.19632560776078  1.14585269436944  2.27783740094009
 1  22.17186889318932  1.79158038773877  0.89713467976798
 1  20.84565429532953  2.83849393269327  1.64480492099210
=======
12 -7.06760733373337  0.62583133123312  0.09688737613761
 6 -4.81510612861286 -2.01271244964496  0.46213274597460
 6 -4.75422535143514  2.76089453675368  1.11902826772677
 6 -9.35644037953795  3.12060755625563 -0.45770863056306
 6 -9.51737205090509 -1.71492700370037 -0.84851128022802
 7 -5.05714913951395  0.53438325642564  0.61342176047605
 6 -4.30311001710171 -0.76037585958596  0.76289431263126
 6 -2.86951595699570 -0.41237066276628  1.15028538273827
 6 -3.01772521092109  1.03242591089109  1.67836856755676
 6 -4.31879887478748  1.47027777657766  1.01722875277528
 6 -2.95486056815682  1.21790407850785  3.09725113401340
 6 -1.81282474347435 -0.59495475687569  0.03904786308631
 6 -0.47280470307031 -0.43397774497450  0.41897602690269
 6  0.49952108930893 -0.73030654355436 -0.67278265876588
 8  0.32453369346935 -1.01979738733873 -1.78156448814882
 8  1.80539234973497 -0.53290068646865 -0.19381617051705
 7 -7.14069451735174  2.63519910971097  0.33457215271527
 6 -6.01456073507351  3.33474445024502  0.84099763336334
 6 -6.37250450355035  4.72726701610161  0.81378206540654
 6 -7.69058176517652  4.82393302480248  0.41767015831583
 6 -8.03509778137814  3.45307450275028  0.00910345664566
 6 -5.41392934963496  5.88385085098510  1.08778353885389
 6 -8.51741953955396  5.98976000970097  0.15759274467447
 6 -8.46296018731873  7.13752987158716  0.78638488828883
 7 -9.07854012661266  0.65516837793779 -0.64355838953895
 6 -9.87175343504350  1.82948290139014 -0.76342266636664
 6 -11.18296739333933  1.44257259635964 -1.10599231873187
 6 -11.18679108300830  0.09535489958996 -1.19436815081508
 6 -9.92307798849885 -0.40026200050005 -0.94133915001500
 6 -12.30745956965696  2.39343991499150 -1.28553532833283
 6 -12.34693924022402 -0.73987139723972 -1.69475028352835
 6 -12.30211770017002 -1.23936634783478 -3.10668578717872
 7 -7.20060952925293 -1.43624323792379 -0.15932060906091
 6 -8.26320656045605 -2.23807897999800 -0.46783173837384
 6 -7.87562370797080 -3.59947821532153 -0.51583886118612
 6 -6.49642352645265 -3.58155249224922  0.01905017311731
 6 -6.17558015441544 -2.18435671697170  0.10431323552355
 6 -8.74569203660366 -4.79973281568157 -0.71841031943194
 6 -5.27867233753375 -4.45187907140714  0.33641651425142
 8 -5.18479731763176 -5.64206869026903  0.16013304400440
 6 -4.14178775817582 -3.33087887768777  0.63907377267727
 6 -3.56470710161016 -3.66767198849885  1.95771614451445
 8 -3.83886548714871 -3.07952468866887  2.98338101920192
 8 -2.64740593429343 -4.76202092449245  1.83186176707671
 6 -2.11711229912991 -5.26023025212521  3.02250718621862
 6  2.88050056175618 -0.68258605320532 -1.14620582098210
 6  4.15156724572457 -0.28444662096210 -0.53634378337834
 6  5.15007849224922  0.52857912331233 -1.04167394009401
 6  5.05543396639664  1.20126277557756 -2.43981814711471
 6  6.49543387618762  0.73315516571657 -0.30956744194419
 6  7.60873841174117  0.02567222032203 -1.01213816431643
 6  8.86298817141714  0.14375924552455 -0.12770458325833
 6  10.00429105360536 -0.42533960566057 -0.83261423192319
 6  10.00353705390539 -1.87964890099010 -1.20735420042004
 6  11.28496137303730 -0.13800758155816 -0.10426955835584
 6  12.68081298899890 -0.42575662676268 -0.77737776067607
 6  13.88022749114911 -0.04201540434043  0.04741180868087
 6  15.22887901280128 -0.15040876997700 -0.59451769156916
 6  15.42070373927393 -1.61853948774877 -0.83050266796680
 6  16.37182128802880  0.44407876787679  0.30950545774577
 6  17.74993958335833  0.39552095049505 -0.14088990359036
 6  18.78424879437944  1.12466068306831  0.73316374937494
 6  20.25947461666167  1.17977831133113  0.31716647984798
 6  20.37242859665967  2.08305660286029 -0.85884687738774
 6  21.15256618741874  1.65269820612061  1.51308667206721
 1 -4.12077356185619  3.60870639203920  1.61093568046805
 1 -10.16775716841684  4.02743357835784 -0.52957834933493
 1 -10.14413770317032 -2.50880022082208 -1.17115376757676
 1 -2.67805426232623 -1.01625993989399  2.14802549374937
 1 -2.30085369056906  1.54544812741274  1.17588823922392
 1 -1.95657011451145  0.80990144304430  3.52436615011501
 1 -3.06026108610861  2.24624868236824  3.53128529392939
 1 -3.62217566026603  0.49019370337034  3.44538695149515
 1 -2.19644212911291 -1.64945490589059 -0.23201711091109
 1 -1.84660633313331 -0.02573532313231 -0.85920596019602
 1 -0.10818433583358  0.56443105700570  0.89664006310631
 1 -0.22570037203720 -1.20891540674067  1.22147610281028
 1 -5.84752352775278  6.76669531363136  0.49322503170317
 1 -5.10412740214021  6.06280964406441  2.16753305040504
 1 -4.43708766476648  5.55816698309831  0.48058123372337
 1 -9.09676172867287  5.84659080718072 -0.74986521472147
 1 -9.05913712961296  7.83117385628563  0.40972059385939
 1 -7.94602406820682  7.09971637113711  1.89386777227723
 1 -11.92834693979398  3.10923124912491 -2.03965697039704
 1 -13.12431210041004  1.83139703090309 -1.62054324582458
 1 -12.40499223032303  3.03554220892089 -0.23517476147615
 1 -12.43950872927293 -1.72602204730473 -1.16613156805681
 1 -13.14996371527153 -0.15951268806881 -1.51244677217722
 1 -13.11379773237324 -1.97346203240324 -3.36991687618762
 1 -12.22085564976498 -0.23366790439044 -3.58610210591059
 1 -11.24905118441844 -1.53167803490349 -3.39055767576758
 1 -9.51231083408341 -4.73614435733573 -1.63151641574157
 1 -7.91751111591159 -5.68151815601560 -0.77736734973497
 1 -9.41365125002500 -4.90824584588459  0.12986116351635
 1 -3.30656135203520 -3.46597984868487 -0.19477474897490
 1 -1.62928109460946 -4.46847328702870  3.59609252455245
 1 -2.94673428202820 -5.59420103770377  3.54683752265227
 1 -1.55081319281928 -6.14057333053305  2.77558151105110
 1  3.01821112521252 -1.72281411731173 -1.68180214521452
 1  2.49633711131113 -0.07286300670067 -2.08299145134513
 1  4.38462936853685 -0.94538675387539  0.49472268826883
 1  4.09303826732673  1.51007971837184 -2.75665403510351
 1  5.32360777247725  2.29353961286129 -2.33423989218922
 1  5.42537984558456  0.72641374887489 -3.45854458545855
 1  6.74878694159416  1.82112611261126 -0.13976133333333
 1  6.44780890029003  0.13155511811181  0.76784650135013
 1  7.43297068176818 -0.97614684988499 -1.32276359996000
 1  7.73135557145715  0.60900410851085 -1.86157908150815
 1  8.96965901750175  1.27243512851285  0.30805843804380
 1  8.69257774647465 -0.70374588078808  0.72228009170917
 1  9.96699425082508  0.25455799349935 -1.68757364686469
 1  9.04389937543754 -2.04784276077608 -1.74244016881688
 1  10.64363691939194 -2.34773155705571 -1.89482372627263
 1  9.97257014301430 -2.64834677667767 -0.50787022672267
 1  11.29825750665067  0.96667889808981  0.32962444994499
 1  11.25524857825783 -0.83797975927593  0.83375399699970
 1  12.87631094999500 -1.42452061326133 -1.04992265986599
 1  12.69242299479948  0.20486117711771 -1.65116847814782
 1  13.65221665836584  0.93821637763776  0.46379372237224
 1  13.73997675077508 -0.73223282798280  0.98416493299330
 1  15.14740802930293  0.47253673867387 -1.65345970397040
 1  15.63296073897390 -2.07243753585358  0.14940348644865
 1  14.54533758445845 -2.16874925052505 -1.26014342944294
 1  16.15258488788879 -1.79528505340534 -1.48702017151715
 1  16.14940014071407  1.48571640534053  0.57370391469147
 1  16.23535798299830 -0.21820099519952  1.11553431463146
 1  18.15076601530153 -0.75720226762676 -0.14095743614361
 1  17.95949301380138  0.62812013091309 -1.23668724452445
 1  18.61157194979498  2.34960911861186  1.01856986228623
 1  18.71515867616762  0.81554573557356  1.75530553085308
 1  20.44137905060506  0.25781192939294 -0.09562249824983
 1  20.26835094169417  3.16409997189719 -0.61792538593859
 1  21.37102135423542  2.19017567036704 -1.15601696499650
 1  19.83006691109111  1.82757456825683 -1.76114308330833
 1  21.27410338553855  0.86057416651665  2.37375699289929
 1  22.16248795509551  1.71129235893589  1.38513347964796
 1  20.87054678457846  2.63323340664066  1.99352979347935
>>>>>>> 8e03b5b5abfc0030b3aa597dc0de36371bfbd096

