%nproc=4
%Mem=2GB
# td=(NStates=1) CAM-B3LYP/6-31G(d,p) 

TD

0 1
12 -7.14773534653465  0.65172392049205  0.07121480888089
 6 -4.86188080608061 -1.93271444984498  0.50980751345135
 6 -4.85227515641564  2.83728217551755  1.08278464336434
 6 -9.31519625512551  3.00557605310531 -0.43831669136914
 6 -9.48745905960596 -1.76384189518952 -0.97572400150015
 7 -5.06937036163616  0.45039485758576  0.58219863816382
 6 -4.34107381348135 -0.68668849084908  0.81010903410341
 6 -2.92489149454945 -0.32043146884688  1.26976733093309
 6 -3.06716015441544  1.09480214851485  1.75964669536954
 6 -4.39931692659266  1.45742649144914  1.18311534143414
 6 -3.00747582968297  1.41246353445345  3.14289569846985
 6 -1.93554701570157 -0.59239450085008  0.13815777407741
 6 -0.55512293489349 -0.36360070727073  0.68914304360436
 6  0.51213235043504 -0.71339485238524 -0.45998137863786
 8  0.25342658275828 -1.15054046164616 -1.57722405410541
 8  1.73579539003900 -0.31563896029603 -0.05984277317732
 7 -7.04227467536754  2.56230181998200  0.31765046054605
 6 -6.08788806780678  3.38250922672267  0.65259879347935
 6 -6.45524277737774  4.79720400980098  0.83771445864586
 6 -7.78480118711871  4.78508914041404  0.28641703300330
 6 -8.07100137173718  3.43898309360936 -0.02210966466647
 6 -5.56858481518152  5.89955242114211  1.20143490399040
 6 -8.60996879447945  6.01435246894690 -0.00100311491149
 6 -8.42676656795680  7.09877599619962  0.81735798559856
 7 -9.14886715931593  0.63591645274527 -0.65003903760376
 6 -9.88835509520952  1.76869682278228 -0.69116544064406
 6 -11.16592568916892  1.38993733283328 -1.13444516401640
 6 -11.25734813871387  0.06351171527153 -1.28648736273627
 6 -9.94105978667867 -0.43410538483848 -0.90506552265227
 6 -12.26068489218922  2.35235580658066 -1.35798257305731
 6 -12.44788933523352 -0.83898130823082 -1.80492130063006
 6 -12.27327481588159 -1.08215062626263 -3.29009412801280
 7 -7.25861532983298 -1.36674628822882 -0.14629930693069
 6 -8.35843608340834 -2.29909508160816 -0.49878483368337
 6 -7.87430357595760 -3.60405867336734 -0.52660993829383
 6 -6.47633151725173 -3.54179851685169 -0.17259899179918
 6 -6.22982557895790 -2.14426270757076  0.12675547974797
 6 -8.65013248064806 -4.91841468386839 -0.79747822622262
 6 -5.25069954025403 -4.36812069556956  0.19635250785078
 8 -5.20370920882088 -5.58169265266527  0.17943497419742
 6 -4.14882846224622 -3.31683747354735  0.61493135843584
 6 -3.54886551745175 -3.71785700700070  1.96289666256626
 8 -3.80019161976198 -3.14714145034503  2.99082176327633
 8 -2.68093928762876 -4.71510623302330  1.84237281818182
 6 -2.06318690659066 -5.26261049014901  2.93008794429443
 6  2.85849836153615 -0.52512030663066 -1.03294449484949
 6  4.16334842384238 -0.33267144344434 -0.42214236323632
 6  5.10084356875687  0.45255152055206 -0.88821859455946
 6  5.12381080408041  1.33014566386639 -2.00089425472547
 6  6.46744107690769  0.37513936413641 -0.10153663886389
 6  7.62203974187419 -0.18509885678568 -0.96782373287329
 6  9.00857272987299 -0.03386851725173 -0.28163997679768
 6  10.24324494899490 -0.47308438013801 -0.96560753125313
 6  9.97275397559756 -1.94015495159516 -1.38474193919392
 6  11.52611548844884 -0.18995277607761 -0.06925605700570
 6  12.77471237893789 -0.43153720482048 -0.84616463936394
 6  13.95342481088109 -0.09040024282428  0.17550461796180
 6  15.35564168906891 -0.22056578567857 -0.59158739853985
 6  15.57150881978198 -1.66626426022602 -1.06391600930093
 6  16.44458856475648  0.33869822982298  0.42768727592759
 6  17.84534912431243  0.45715711411141 -0.23250906550655
 6  18.84038440794080  1.22705092209221  0.71535196819682
 6  20.26124479367937  1.19968030153015  0.24582934613461
 6  20.39417077087709  1.94312260946095 -1.02428342104210
 6  21.16994792559256  1.84454739103910  1.32721808520852
 1 -4.30252173667367  3.67319284068407  1.50660524742474
 1 -9.88969936263626  3.79812064706471 -0.64225961746175
 1 -10.37987127652765 -2.52822216301630 -1.18787543974397
 1 -2.54782123902390 -0.90174848874887  2.21986267746775
 1 -2.34881848704870  1.82548613121312  1.23979462986299
 1 -2.26253071057106  0.85952640554055  3.41802551605160
 1 -3.12294735473547  2.38327238473847  3.39473163856386
 1 -3.68135157785779  0.75875055905591  3.82051446424642
 1 -1.77341982688269 -1.66064602500250 -0.45365927512751
 1 -2.01939361186119  0.29606685708571 -0.58867890749075
 1 -0.28931244864486  0.61945655955596  1.19836023512351
 1 -0.32210001200120 -0.99132364756476  1.54925888108811
 1 -5.85500427582758  7.02810145424542  0.94926063526353
 1 -5.49148613801380  5.87500086318632  2.34113041014101
 1 -4.60010396639664  5.62238340474047  0.79588276387639
 1 -9.19877192969297  6.07342349044904 -1.06826705490549
 1 -9.13422463836384  7.96497723662366  0.31080070187019
 1 -7.98933839963996  7.13366976647665  1.88981736723672
 1 -12.14384848994900  3.29985031103110 -2.09390239493949
 1 -13.19293896309631  1.87546143734373 -1.65508670017002
 1 -12.75965769686969  2.92082073677368 -0.55602684668467
 1 -12.45626040444045 -1.78926837193719 -1.41201615651565
 1 -13.39284800370037 -0.40753749054905 -1.50241576907691
 1 -12.89517587018702 -1.71668635483548 -3.71611149564957
 1 -12.36318988318832  0.00255571797180 -3.75158865456546
 1 -11.26230250955096 -1.50700556765677 -3.68426704670467
 1 -9.30926052905291 -4.79727046994700 -1.72362562666267
 1 -7.99308867366737 -5.63318332253225 -0.82356196919692
 1 -9.51526141104110 -5.08841386268627 -0.21447326992699
 1 -3.29005970187019 -3.22486573727373 -0.22654792629263
 1 -1.44206237273727 -4.40237667736774  3.43390630593059
 1 -2.84411402000200 -5.27947956555656  3.75600843974397
 1 -1.59675778727873 -6.02612188538854  2.66674062696270
 1  2.82649195329533 -1.52421425732573 -1.39604356935694
 1  2.66011348894889  0.10636491609161 -1.78356150835083
 1  4.27450835643564 -0.73703591879188  0.57841105710571
 1  4.23207217071707  1.69975868626863 -2.34221259095910
 1  5.50468588028803  2.43040329922992 -1.74054052225223
 1  5.69106641424142  1.17072818031803 -2.99731846284628
 1  6.92152421532153  1.39292329232923  0.05400804360436
 1  6.32054617401740 -0.06229426682668  0.83547326402640
 1  7.29864724942494 -1.20661989718972 -1.32499382298230
 1  7.69258169406941  0.51473468156816 -1.89431235483548
 1  9.10985303690369  1.03579146414641  0.10455808800880
 1  8.97739622832283 -0.70638614481448  0.50689855355536
 1  10.43027057845785  0.00225276297630 -1.92281717121712
 1  9.16982196769677 -2.07636561306131 -2.09433535833583
 1  10.78622117781778 -2.40442722662266 -1.94181842574257
 1  9.79303218921892 -2.49581152315232 -0.60784022372237
 1  11.50007768866887  0.84564679487949  0.55760724822482
 1  11.64845789918992 -0.97620358165817  0.76739736133613
 1  12.78858217711771 -1.44310247144714 -0.94188185578558
 1  12.82663641614161  0.06608729972997 -1.70103346464646
 1  13.74750618731873  0.93318587458746  0.53779112211221
 1  13.88119087218722 -0.59934953965397  1.08554507100710
 1  15.29957324582458  0.56704618961896 -1.57098145614561
 1  15.86943438633863 -2.23976426852685 -0.02059351325132
 1  14.73706675737574 -2.03006538213821 -1.80261767686769
 1  16.56258588798880 -1.66310183508351 -1.52757422692269
 1  16.34603980468047  1.44424225792579  0.82428897319732
 1  16.68285273247325 -0.29180835593559  1.23861662286229
 1  18.31524246294629 -0.46077262466247 -0.59788312871287
 1  17.72732979747975  1.08346566546655 -1.06688026382638
 1  18.51052184478448  2.31927608530853  0.76807481278128
 1  18.71382854315432  0.94875905690569  1.78908890919092
 1  20.56795170787079  0.06849299749975  0.02700976497650
 1  20.38692279887989  3.15313887578758 -0.85239883328333
 1  21.42614686678668  1.64672132493249 -1.53564492779278
 1  19.76670057445745  1.97399921072107 -2.00445741474147
 1  21.23434941014101  1.11204931403140  2.21126074327433
 1  22.20951265756575  2.19297052675268  0.92833780008001
 1  20.57676740664067  2.85600568386839  1.75415585608561

