%nproc=4
%Mem=2GB
# td=(NStates=1) CAM-B3LYP/6-31G(d,p) 

TD

0 1
<<<<<<< HEAD
12 -7.11041161416142  0.63996274437444  0.06937462486249
 6 -4.89143376137614 -2.01132231063106  0.58195472817282
 6 -4.80574050295030  2.87786623392339  1.18034439933993
 6 -9.47441217671767  3.08814430993099 -0.38045090479048
 6 -9.55551586528653 -1.81486699769977 -0.91694812391239
 7 -5.17400082468247  0.45138495659566  0.71556197449745
 6 -4.43944365046505 -0.71572139413941  0.79077710091009
 6 -3.05315432083208 -0.39511893759376  1.20645099929993
 6 -3.05471891029103  1.03781644994499  1.67956868756876
 6 -4.44394138903890  1.48134888368837  1.23846087598760
 6 -2.90511559365937  1.21390367846785  3.20597200610061
 6 -1.90234369536954 -0.60785604700470  0.10742470077008
 6 -0.46188361096110 -0.53502784998500  0.71167529682968
 6  0.62059319651965 -0.87015052795280 -0.44425980648065
 8  0.25118635873587 -1.30731613921392 -1.48818515021502
 8  1.83700551105110 -0.36251364776478  0.01310452155216
 7 -7.08471891979198  2.64561015081508  0.26376507200720
 6 -6.03107238623862  3.35078605440544  0.71277481108111
 6 -6.39258651175117  4.71109539893989  0.85539622682268
 6 -7.74112681968197  4.77413804530453  0.41426981828183
 6 -8.17003127472747  3.50334953025303  0.02172471877188
 6 -5.58443640034003  5.88233069896990  1.23839860036004
 6 -8.55516331393139  6.01105213891389  0.08772575797580
 6 -8.52762665396540  7.07593371197120  0.68850510031003
 7 -9.10550282288229  0.64540740184018 -0.50004403810381
 6 -9.93296955665567  1.76657661076108 -0.72475879998000
 6 -11.20652974957496  1.43254159325933 -1.25088680818082
 6 -11.20614301820182  0.02639800390039 -1.28270698469847
 6 -9.88068374907491 -0.45300727502750 -0.94806982308231
 6 -12.26807563126313  2.44107467846785 -1.47382415721572
 6 -12.36233077937794 -0.73844125422542 -1.82627343584358
 6 -12.26736422482248 -0.92931534273427 -3.43671879047905
 7 -7.24475394369437 -1.39142875647565 -0.15181985898590
 6 -8.27726796659666 -2.24069924202420 -0.63454841004100
 6 -7.78233437903790 -3.69333760126013 -0.65675295259526
 6 -6.52763664776478 -3.56379071607161 -0.16130786268627
 6 -6.27288988538854 -2.17031531283128  0.01684448864887
 6 -8.58176564396440 -4.76277912031203 -1.08193667206721
 6 -5.36983145344534 -4.43573745724572  0.23990686328633
 8 -5.13916275417542 -5.56420090349035  0.22045907660766
 6 -4.15816939633963 -3.35587137693769  0.65029489478948
 6 -3.63546417731773 -3.70444566586659  1.89272964586459
 8 -3.87590919151915 -3.05057179337934  3.00278295939594
 8 -2.74940613431343 -4.67847256965697  1.89963854475448
 6 -2.23019360726073 -5.23790801990199  3.20716565206521
 6  2.78701121282128 -0.66809460406041 -1.13030423082308
 6  4.19610169916992 -0.36017419371937 -0.49758990799080
 6  5.07617110151015  0.45861212661266 -0.92193196589659
 6  5.10765918891889  1.47708035733573 -2.04701886718672
 6  6.38511284408441  0.38674052425243 -0.13779026422642
 6  7.61642918081808 -0.01792213911391 -0.88290524102410
 6  8.93460533313331  0.06261113071307 -0.06581839463946
 6  10.13368399289929 -0.49564663636364 -0.73249421992199
 6  10.14232093229323 -1.88021895799580 -1.19524298929893
 6  11.37450032693269 -0.19183296409641  0.00491135973597
 6  12.83381828952895 -0.44388843994399 -0.75971599449945
 6  13.98785825422542  0.14465326252625  0.10165723322332
 6  15.31304742964296 -0.11145487458746 -0.64597283708371
 6  15.56385805470547 -1.63431106490649 -0.81813143084308
 6  16.50928503440344  0.47688204820482  0.14665917311731
 6  17.86197078647865  0.41476287468747 -0.42422823742374
 6  18.88769913941394  1.19822803980398  0.56856728972897
 6  20.29499816901690  1.26281661516152  0.10324508770877
 6  20.57543889768977  1.99698799599960 -1.17193818651865
 6  21.27944887568757  1.64754769106911  1.31147651105111
 1 -4.05729721422142  3.52691821322132  1.48435302220222
 1 -10.06790718341834  4.02173300830083 -0.71524691619162
 1 -10.35175846524652 -2.60268960976098 -1.36881353355335
 1 -2.80777723462346 -1.28428674257426  2.02529322052205
 1 -2.12683628882888  1.68565214781478  1.27311796219622
 1 -1.80518497599760  0.90235068796880  3.48806251975198
 1 -3.04790985098510  2.19519357685769  3.57497966336634
 1 -3.46640008270827  0.52962764676468  3.93378579137914
 1 -2.15442792769277 -1.52824278467847 -0.48686259545955
 1 -1.92573424592459  0.32367961836184 -0.50221026062606
 1 -0.01536505390539  0.30755536943694  1.17770816991699
 1 -0.40953875587559 -1.18237275247525  1.45322927812781
 1 -5.75054382978298  6.67376602070207  0.39974568376838
 1 -5.87056404580458  6.28675203830383  2.22512880998100
 1 -4.41036499249925  5.74721588798880  1.20919409500950
 1 -9.22061411391139  5.94676082418242 -0.63381360956096
 1 -9.36175739163916  7.71985272417242  0.38170779257926
 1 -7.84939440524052  7.15344174367437  1.38152653815381
 1 -12.12600670577058  3.08578890489049 -2.24580758545855
 1 -13.18237790699070  1.96639053025303 -1.71758294979498
 1 -12.57948968006801  3.11436009070907 -0.61417266126613
 1 -12.58718349674968 -1.82317176227623 -1.50622557745775
 1 -13.35908462736274 -0.23430016681668 -1.44078960646065
 1 -12.75565191779178 -1.88690337653765 -3.86970685518552
 1 -12.51156472067207 -0.07290182778278 -3.78792228792879
 1 -11.22620890019002 -1.15365023212321 -3.74679329932993
 1 -8.90619022202220 -4.90386112901290 -2.16155942004200
 1 -8.18265763056306 -5.73184318851885 -0.86827644064406
 1 -9.57996788168817 -4.72669769106911 -0.65279710231023
 1 -3.40002069796980 -3.43129638033803 -0.15926119761976
 1 -1.50275844234423 -4.51868830853085  3.40010292559256
 1 -3.15292490109011 -5.36038765636564  3.90701354025402
 1 -1.74114222572257 -6.00309958315832  2.87945189808981
 1  2.62747205130513 -1.76489832573257 -1.45276924192419
 1  2.55212268986899  0.03192747234723 -1.88611176337634
 1  4.38541944754475 -1.06911912711271  0.39859307530753
 1  3.99859882338234  1.94046275667567 -2.18730710041004
 1  5.99164457615761  2.49625988488849 -1.92915938413841
 1  5.70208751635163  0.92635374287429 -2.81732046304630
 1  6.57731979487949  1.42881688168817  0.32726536933693
 1  6.32662678207821 -0.07286532393239  0.87630734743474
 1  7.58759614431443 -0.95265450065006 -1.25714703830383
 1  7.73625606150615  0.49963317141714 -1.73038596219622
 1  9.15552760436043  0.95344322932293  0.32159979217922
 1  8.46703519221922 -0.52453795999600  0.72617048074807
 1  10.08822637403740  0.27027956565657 -1.53783867336734
 1  9.48078306380638 -2.27859583608361 -1.78410433523352
 1  10.93444600030003 -2.17049383328333 -1.73995823972397
 1  10.04789767576758 -2.55063700570057 -0.28699813951395
 1  11.34599228012801  0.88973120332033  0.33399488698870
 1  11.15755880928093 -0.52433839513951  1.05622624422442
 1  13.17313063196320 -1.53667182838284 -0.90478814641464
 1  12.74733848634863  0.01012170317032 -1.69915327662766
 1  13.89139057575758  1.19643219921992  0.43564090709071
 1  14.21462421552155 -0.51264086878688  1.04759127562756
 1  15.48534182268227  0.38428791379138 -1.62084644264426
 1  15.47594503740374 -2.03601389348935  0.24188273437344
 1  15.00924397509751 -1.99291166676668 -1.66283369846985
 1  16.55757538693869 -1.79684520942094 -1.18325979547955
 1  16.19511471217121  1.30818865256526  0.50074661896190
 1  16.47927237443744 -0.16719589468947  1.04699746094609
 1  18.12047298599860 -0.55822236963696 -0.58345168556856
 1  17.89585665016502  0.94210152905291 -1.40051362716272
 1  18.60304109670967  2.31375553325333  0.55284328962896
 1  18.78655581588159  0.83136731773177  1.48026802710271
 1  20.58100301300130  0.19905605380538 -0.03645658165817
 1  20.10749485608561  2.99967352925293 -1.11682527592759
 1  21.67527177927793  2.21623827662766 -1.21828319161916
 1  20.15585949034904  1.52126393719372 -2.10944791379138
 1  21.25533150835084  0.80188829792979  2.21405102230223
 1  22.28431013731373  1.69330055975598  0.68279324562456
 1  20.93240297019702  2.71905198849885  1.73829426992699
=======
12 -7.09200977397740  0.57717646574657  0.06673436083608
 6 -4.86189080708071 -1.86022720112011  0.44143067576758
 6 -4.68093802270227  2.84678312561256  1.18163452835284
 6 -9.30767550305031  3.00519601510151 -0.45897875757576
 6 -9.46303661736174 -1.76858236923692 -0.87591402050205
 7 -5.07001042564256  0.54106392449245  0.64220463876388
 6 -4.30688039413941 -0.61620144214421  0.77498552175218
 6 -2.87059606500650 -0.39526895259526  1.20109046324632
 6 -3.03323676207621  1.11381404970497  1.69631036173617
 6 -4.30836783168317  1.50305105390539  1.17725475537554
 6 -2.90718580068007  1.27346963506351  3.21837324622462
 6 -2.02812627362736 -0.55002026342634 -0.01145718741874
 6 -0.62337976057606 -0.38562290949095  0.41651578087809
 6  0.48924006120612 -0.67567108000800 -0.53266864736474
 8  0.35089632973297 -1.04390979857986 -1.71634796649665
 8  1.78637044754475 -0.44653204960496 -0.12337912681268
 7 -7.03863431133113  2.58763435323532  0.32726142164216
 6 -6.05626490549055  3.25837681348135  0.87216074967497
 6 -6.40719797289729  4.68764305370537  0.91863255045505
 6 -7.67416012301230  4.73277390889089  0.39262765406541
 6 -8.11996626822682  3.43890308560856  0.10333287958796
 6 -5.50274823152315  5.87981044694469  1.22047680818082
 6 -8.61361915951595  5.92685371907191  0.26908389378938
 6 -8.58738262956296  7.09869598819882  0.90249649944995
 7 -9.12780505310531  0.65202806390639 -0.63331736543654
 6 -9.83461972167217  1.83667362046205 -0.81946827092709
 6 -11.12748184478448  1.42527086618662 -1.22028374787479
 6 -11.20212261616162  0.13148851295130 -1.38930764476448
 6 -9.94164984568457 -0.41741371567157 -1.00809582568257
 6 -12.25163398709871  2.46117668866887 -1.41899867466747
 6 -12.31647619391939 -0.75602301240124 -1.83735454395440
 6 -12.14459194759476 -1.00391280248025 -3.26489160776078
 7 -7.11995146344634 -1.40994060766077 -0.21726640364036
 6 -8.24427466726673 -2.16667183928393 -0.52265722092209
 6 -7.80650679627963 -3.64907317481748 -0.50292757005701
 6 -6.47745162926293 -3.51770610761076 -0.04176590849085
 6 -6.16383898029803 -2.17571585288529  0.14244704890489
 6 -8.63465093249325 -4.82192503490349 -0.63172165056506
 6 -5.29087355765577 -4.38627251075108  0.16461933453345
 8 -5.10413925182518 -5.53668815221522 -0.00574354365437
 6 -4.15236881628163 -3.27951374117412  0.67358722402240
 6 -3.52495312621262 -3.60238545984598  1.93140351325133
 8 -3.85783738433843 -3.03167990419042  2.94537721882188
 8 -2.80806199989999 -4.65135985838584  1.82750133103310
 6 -2.37942853075308 -5.19406363546355  3.09604453995400
 6  2.79905241694169 -0.71999979457946 -1.12964416481648
 6  4.20436252525253 -0.48402657895790 -0.45741589058906
 6  5.06843032743274  0.37402366776678 -0.93672344504450
 6  4.95903432643264  1.26137878717872 -2.18471263656366
 6  6.39095342814281  0.51717356755676 -0.22219870507051
 6  7.68861639953995 -0.12306265316532 -0.96251320182018
 6  8.89440131273127 -0.05100023042304 -0.14410622342234
 6  10.12760338483848 -0.63697076877688 -0.87059803030303
 6  10.04843154335433 -2.08873981008101 -1.27493095809581
 6  11.38213109000900 -0.38133191399140  0.09411027962796
 6  12.75969087678768 -0.60908495959596 -0.56080610351035
 6  13.97450691909191 -0.15631683448345  0.36123319081908
 6  15.30857698259826 -0.35559928902890 -0.48349658945895
 6  15.66723839273927 -1.79660729452945 -0.72581219891989
 6  16.31037514341434  0.42709706970697  0.34921942914291
 6  17.78313290269027  0.56124752315232 -0.29454526912691
 6  18.74065443494349  1.33037125412541  0.62205263826383
 6  20.19025769496950  1.43042337583758  0.04379914311431
 6  20.29036038983898  2.32293059025903 -1.15522651535154
 6  21.17180811161116  1.93728666496650  1.11604696809681
 1 -3.86913839833983  3.60542606400640  1.63333792069207
 1 -10.16441683438344  3.66107694269427 -0.74679007050705
 1 -10.03625691509151 -2.68485782658266 -1.12108876107611
 1 -2.75519197609761 -0.96896521042104  2.07078776997700
 1 -2.35899950515052  1.66857043964396  1.14003465386539
 1 -1.90594505200520  1.02337279017902  3.55565927942794
 1 -2.93855891589159  2.21868592609261  3.54463662906291
 1 -3.61548499119912  0.66426111011101  3.82410482328233
 1 -2.20965345024502 -1.56409637003700 -0.29855376457646
 1 -2.13135480798080  0.00505775617562 -0.70501054065407
 1 -0.25087860526053  0.66996161006101  0.65045544464446
 1 -0.23985178717872 -0.98641315651565  1.33306726192619
 1 -5.80722949834984  6.87577622172217  0.82292800200020
 1 -5.46377336673667  5.92247561066107  2.29168546564656
 1 -4.60261421742174  5.62804397079708  0.76173934953495
 1 -9.37114916741674  5.71324747284728 -0.63515374357436
 1 -9.46301751765176  7.61233197209721  0.56227584938494
 1 -8.02476194199420  7.28517491699170  1.63503188868887
 1 -11.98183228832883  3.17626795279528 -2.23516652135214
 1 -13.02906257545754  1.90034392559256 -2.01372256375638
 1 -12.72998472957296  3.03100175487549 -0.56860810481048
 1 -12.47089186758676 -1.79489893499350 -1.36665162006201
 1 -13.32017073597360 -0.25188192499250 -1.68305383288329
 1 -12.89611596419642 -1.68952363856386 -3.84404428892889
 1 -12.25327889208921 -0.13293783138314 -3.87559105480548
 1 -11.12017829712971 -1.40857572467247 -3.52898151815182
 1 -8.91041064406441 -4.97110785368537 -1.54015727982798
 1 -7.85308467326733 -5.64956496069607 -0.50910052305231
 1 -9.32593247814781 -4.91040606190619  0.10802898029803
 1 -3.41119181508151 -3.32059531023102 -0.16758202970297
 1 -1.74222238873887 -4.60435687538754  3.62056497179718
 1 -3.37028663726373 -5.57167878547855  3.75126796569657
 1 -1.76928504000400 -6.13522279547955  2.88445239813981
 1  2.67696700080008 -1.83255509140914 -1.44094805980598
 1  2.61088856645665 -0.09635535593559 -1.95495864806481
 1  4.48335924152415 -0.86042825802580  0.68525174117412
 1  4.01256021952195  1.26247495789579 -2.68729709940994
 1  5.22692810451045  2.14545480438044 -1.88333480168017
 1  5.84339164676468  1.14200530803080 -2.93716244724472
 1  6.51064312721272  1.72645664566457 -0.27140449764977
 1  6.28686280568057  0.21790375297530  0.77206692339234
 1  7.26092347704770 -1.13145238043804 -1.08702002560256
 1  7.63460589648965  0.48392160026003 -2.06000892449245
 1  9.22003405500550  1.00167805280528  0.12208984118412
 1  8.76107459615962 -0.81213671987199  0.87058492219222
 1  10.33326087748775  0.02926546424642 -1.79027391689169
 1  9.16533151865186 -2.28453643014301 -1.90923684848485
 1  10.86927948364836 -2.34555133903390 -1.91880612451245
 1  10.17010989698970 -2.84676661866187 -0.57998743844384
 1  11.41740942184218  0.60235246544654  0.41184267176718
 1  11.32077513091309 -0.78119408070807  1.03328394999500
 1  12.95215853475348 -1.67752591379138 -0.76928459605961
 1  12.80820457295729  0.02055274627463 -1.55913927522752
 1  14.07574901160116  0.87790034603460  0.78328567156716
 1  13.82699545264527 -0.71183078777878  1.30234675117512
 1  15.29488277677768  0.29116860186019 -1.39112347034704
 1  15.72835027792779 -2.32211250335033  0.21291983808381
 1  15.03720677137714 -2.24750712631263 -1.42707012211221
 1  16.70100973037304 -1.94295982088209 -1.05473694319432
 1  15.69780498119812  1.29886772047205  0.54083062736274
 1  16.53050749794980 -0.38957813291329  1.28840160136014
 1  18.06567750645064 -0.33732027942794 -0.69508284868487
 1  17.70054711921192  1.19046636553655 -1.07150072587259
 1  18.41693248584858  2.36933109080908  0.93184118941894
 1  18.78879603990399  0.70308448944895  1.54567456775678
 1  20.64693960666067  0.37423357155716 -0.23776671267127
 1  19.93396750335033  3.35059862176218 -1.10349394279428
 1  21.46327057915792  2.39813646644664 -1.53049441274127
 1  19.96145004940494  1.77863967476748 -2.14139110811081
 1  21.07544351955196  1.32516062516252  1.99435905310531
 1  22.26408811511151  2.12732396209621  0.88231319761976
 1  20.70803053295329  2.84284436773677  1.43711415191519
>>>>>>> 8e03b5b5abfc0030b3aa597dc0de36371bfbd096

