%nproc=4
%Mem=2GB
# td=(NStates=1) CAM-B3LYP/6-31G(d,p) 

TD

0 1
<<<<<<< HEAD
12 -7.13304387738774  0.58857760586059  0.08712640004000
 6 -4.86047066506651 -1.88371955035504  0.57036356905691
 6 -4.81297122602260  2.78003645094509  1.23031939683968
 6 -9.29486422192219  3.13297879337934 -0.49873273297330
 6 -9.46847716141614 -1.68006351735174 -0.84503093219322
 7 -5.11802522712271  0.42789260736074  0.77696811511151
 6 -4.34608431453145 -0.71869169116912  0.86645466866687
 6 -2.89353835923592 -0.38075750145014  1.21635198939894
 6 -2.93476691509151  1.10105277357736  1.68612934363436
 6 -4.35428242314231  1.52063281208121  1.17441447134713
 6 -2.80509559165917  1.31222351045105  3.34837624652465
 6 -1.91281474247425 -0.73011827322732  0.04917887618762
 6 -0.45277269986999 -0.49499384658466  0.45694982428243
 6  0.44764590179018 -0.72626613951395 -0.67960334083408
 8  0.15212645274527 -1.18973438103810 -1.86146247794779
 8  1.68908071857186 -0.44449184558456 -0.35113190209021
 7 -7.14739518741874  2.59624521432143  0.35365406090609
 6 -6.11117039603960  3.34848582438244  0.80279381298130
 6 -6.42490974407441  4.70653494289429  0.86370705790579
 6 -7.70571327832783  4.94090472197220  0.33224161546155
 6 -8.10574484608461  3.47590678597860  0.07997054335434
 6 -5.51449940664066  5.73691615751575  1.37065182568257
 6 -8.55641343894389  6.01843287698770  0.22688967436744
 6 -8.56741063236324  7.15136125472547  0.98345459525953
 7 -9.13961623422342  0.65526838793879 -0.56510054375438
 6 -9.76785304500450  1.85220517361736 -0.73918024212421
 6 -11.11660075667567  1.44182252135214 -1.24322604210421
 6 -11.15773817771777  0.13854921902190 -1.45525423942394
 6 -9.92363804450445 -0.39611158545855 -0.88706372247225
 6 -12.11867069076908  2.47326789778978 -1.73246002080208
 6 -12.33748829512951 -0.60980839093909 -1.94000480898090
 6 -12.29310679907991 -0.85397780898090 -3.48808392699270
 7 -7.20607007530753 -1.40130974457446 -0.09703438043804
 6 -8.26305654545455 -2.20370554265426 -0.46474142934293
 6 -7.79807595319532 -3.64662292979298 -0.43331060836084
 6 -6.48997288138814 -3.56737107410741 -0.03556528842884
 6 -6.12139473587359 -2.09802808410841  0.18050085428543
 6 -8.71414888228823 -4.86338918131813 -0.73343182158216
 6 -5.29506397669767 -4.45850973447345  0.34675754835484
 8 -5.18411724962496 -5.62086657005701  0.32671970267027
 6 -4.08252183158316 -3.25332112191219  0.60703056835684
 6 -3.37884851575158 -3.57996321762176  1.86880725362536
 8 -3.53535513611361 -3.04818155435544  2.96898958005801
 8 -2.67558875257526 -4.71040576297630  1.82592117301730
 6 -2.05882647054705 -5.21842607170717  2.98716365186519
 6  2.78795130683068 -0.75053284788479 -1.25055625602560
 6  4.01285337433743 -0.45826400270027 -0.59224937393739
 6  5.04690817521752  0.29547581298130 -0.99816958965897
 6  5.11789021202120  0.99650229952995 -2.39281344664466
 6  6.39066339913991  0.37563941414141 -0.26912339753975
 6  7.53803134103410 -0.27240758765877 -0.99307625812581
 6  8.84116598919892 -0.22716784718472 -0.11896370917092
 6  10.17774839933993 -0.63160023172317 -0.82589355985599
 6  10.06406310651065 -2.13913484958496 -1.35364882988299
 6  11.33443632053205 -0.26595037583758  0.11081194979498
 6  12.68292320002000 -0.45699975107511 -0.65886590949095
 6  13.85659512791279 -0.11922312511251  0.22335940344034
 6  15.29975610051005 -0.13339706880688 -0.39145738553855
 6  15.67613928282828 -1.51906954075408 -0.89997961566157
 6  16.34471857775778  0.41269562956296  0.42342684988499
 6  17.72980757015701  0.50327172557256 -0.24909072367237
 6  18.70694106360636  1.26171438843884  0.69151958495850
 6  20.17408607780778  1.42656298979898  0.20221498469847
 6  20.30874222802280  2.17135543274327 -1.07409840254025
 6  21.10556148694869  2.14030696699670  1.26979234263426
 1 -4.09275075957596  3.59677519891989  1.83386797369737
 1 -9.88734912761276  3.81223205820582 -0.86118150965096
 1 -10.19836312571257 -2.59172851365136 -0.82961961416142
 1 -2.62593905080508 -0.79121743564356  2.21526221742174
 1 -2.41553515871587  1.82644622722272  1.19798044844484
 1 -1.80052450995099  0.98554900780078  3.38246195969597
 1 -3.22371743174317  2.25767982548255  3.58387055245525
 1 -3.54054749744974  0.52616730073007  3.84562697549755
 1 -2.15167765266527 -1.53257321772177 -0.34693860306031
 1 -2.11748342084208  0.04985223562356 -0.88967900750075
 1 -0.21939545694569  0.35514012791279  1.16685708480848
 1 -0.24461226322632 -1.32341685688569  1.06747070227023
 1 -5.85400417581758  6.90741938603860  1.06093180238024
 1 -5.45222221162116  5.89238260136014  2.50178647574758
 1 -4.55219917591759  5.64251541794179  0.81621479707971
 1 -9.33982603510351  6.10893704180418 -0.60578080628063
 1 -9.10899211511151  8.23251399029903  1.02513213501350
 1 -7.81965143094309  7.10523692319232  1.90694908040804
 1 -11.84090819591959  3.00878120412041 -2.50769377407741
 1 -13.05208487768777  2.02907679887989 -1.97642883438344
 1 -12.31645337643764  3.13787244194419 -0.82164340834083
 1 -12.50366514491449 -1.50206965206521 -1.27888284318432
 1 -13.38311703060306  0.02042530573057 -1.83536906440644
 1 -12.99047540014001 -1.71292597879788 -3.79998988348835
 1 -12.52427599179918 -0.10467500510051 -4.22413590929093
 1 -11.01266754605461 -1.07400226732673 -3.66754537453745
 1 -8.89325892889289 -5.03902464536454 -1.85092835693569
 1 -8.29706907170717 -5.86588659285929 -0.45032464546455
 1 -9.78942882778278 -4.66597161846185 -0.10276209880988
 1 -3.40646134203420 -3.32992624332433 -0.27004227572757
 1 -1.60617878437844 -4.38815525522552  3.53837675297530
 1 -2.95428503710371 -5.55477709530953  3.63803664256426
 1 -1.21898000950095 -5.91420069326933  2.70456440934093
 1  2.86903620772077 -1.82751458735874 -1.37275124012401
 1  2.63757123472347 -0.30706642704270 -2.20217336953695
 1  4.11560246584659 -0.77914012921292  0.47231044704470
 1  4.14316327982798  1.16300501090109 -2.78472684238424
 1  5.46211162286229  2.06076633553355 -2.43474994319432
 1  5.60044735233523  0.55746685418542 -3.19237796879688
 1  6.64182624552455  1.39787378737874  0.06474911771177
 1  6.11476559595960 -0.16711474887489  0.57614733143314
 1  7.21320870557056 -1.16256549174917 -1.29427075067507
 1  7.74098653455346  0.22756596469647 -1.84952787638764
 1  8.92856490809081  0.89956784178418  0.17189482168217
 1  8.77416590529053 -0.87391289748975  0.87754561826183
 1  10.36406395779578  0.25627816551655 -1.67249213871387
 1  9.28992397789779 -2.38602657915792 -1.99053497829783
 1  11.02274483018302 -2.51844862876288 -1.80673491739174
 1  9.97598048404840 -2.77774971697170 -0.26722616231623
 1  11.16188386928693  0.76207843804380  0.51036252375237
 1  11.53745679907991 -0.86251221252125  0.99279990159016
 1  12.53372669156916 -1.40747890909091 -1.03887155475548
 1  12.62768652115211  0.32321301230123 -1.47789115041504
 1  13.64456589328933  0.90224278027803  0.72939028202820
 1  13.88560131323132 -0.84727433213321  1.19393591009101
 1  15.31513480198020  0.46201568656866 -1.37014137213721
 1  16.29204664756476 -2.17386767886789  0.04557310341034
 1  14.75936898759876 -2.15684806040604 -1.16856427152715
 1  16.55168479787979 -1.45864138903890 -1.51751322082208
 1  16.10767596829683  1.42070990469047  0.85363190749075
 1  16.30613506070607 -0.19698887398740  1.46391915311531
 1  17.79590052875287 -0.60143669106911 -0.41229456985699
 1  17.62182924742475  0.99763708260826 -1.21608518431843
 1  18.34888568116812  2.40257441514151  0.62644064936494
 1  18.58974613491349  0.76155033603360  1.67260726102610
 1  20.76932184488449  0.32807895609561  0.02671973597360
 1  19.87510161676168  3.26575013691369 -1.00334392779278
 1  21.28909316141614  2.34342099489949 -1.51038240154015
 1  19.85648955335534  1.61749356015602 -1.88806577557756
 1  20.97975395059506  1.75897400650065  2.31949156635664
 1  22.19885159145915  2.27510874057406  1.09177414371437
 1  20.67257698759876  3.28378846214622  1.18364880538054
=======
12 -7.08202877587759  0.57176592469247  0.10274796219622
 6 -4.82983760176018 -1.92809398779878  0.45433196589659
 6 -4.76170609950995  2.88922737003700  0.98152451735173
 6 -9.40329506500650  3.10772626812681 -0.33289614931493
 6 -9.49573988768877 -1.59307481848185 -0.89848627772777
 7 -5.13281670627063  0.49189900800080  0.73860427872787
 6 -4.26383608970897 -0.70045986798680  0.67387541074107
 6 -2.83477248264826 -0.32406183188319  1.06567692189219
 6 -2.96142958135814  1.13799646794679  1.48920965166517
 6 -4.32811980688069  1.55271602040204  0.99307633753375
 6 -3.02454753685369  1.22785507360736  3.14086549544954
 6 -1.83426688768877 -0.53234849624963  0.00998495679568
 6 -0.37142456505651 -0.46041038823882  0.53049717901790
 6  0.51558269546955 -0.82365587848785 -0.59422480298030
 8  0.20062130223022 -1.13687909550955 -1.71196752845285
 8  1.73478528902890 -0.39845724212421 -0.34846163506351
 7 -7.06659710761076  2.55665125492549  0.27668636413641
 6 -6.13078235723572  3.34941591739174  0.66344987858786
 6 -6.37444469756976  4.75632992239224  0.77104779197920
 6 -7.76154886188619  4.91875250675067  0.31904029532953
 6 -8.11939621122112  3.55711490679068  0.02633517981798
 6 -5.53784174087409  5.92110457635764  1.18367312781278
 6 -8.60372817041704  6.06372740644064  0.13948093349335
 6 -8.60626451775178  7.26891300990099  0.83889013881388
 7 -9.17594986758676  0.58955181628163 -0.51611564526453
 6 -9.88501476117612  1.80105005810581 -0.57914423852385
 6 -11.21718081468147  1.51637997709771 -1.05392711221122
 6 -11.22110451435143  0.17056242034203 -1.18518723272327
 6 -9.93590927162716 -0.33738571287129 -0.96620163626363
 6 -12.38397722142214  2.48228879987999 -1.23638041284128
 6 -12.33205775207521 -0.68018542864286 -1.70525133363336
 6 -12.37258474687469 -1.06723913511351 -3.09897501610161
 7 -7.21768123642364 -1.40421003460346 -0.08386306330633
 6 -8.32656289608961 -2.21843701580158 -0.47805276047605
 6 -7.80942708830883 -3.61841010851085 -0.53840111741174
 6 -6.49187307140714 -3.54992932993299 -0.10444217611761
 6 -6.17487008340834 -2.20601888318832  0.20405320952095
 6 -8.60790825822582 -4.87347018941894 -0.91700017841784
 6 -5.30541501180118 -4.37918180168017  0.17386025862586
 8 -5.17543638153815 -5.58671315471547  0.24185121582158
 6 -4.15055863526353 -3.32045783558356  0.53874373967397
 6 -3.51077170807081 -3.65069029032903  1.84657503040304
 8 -3.88215981658166 -3.13657039323932  2.94478715981598
 8 -2.77438863256326 -4.76127084948495  1.69324790569057
 6 -2.16265685358536 -5.30301453055305  2.99988492399240
 6  2.92349486118612 -0.87172496709671 -1.26861806220622
 6  4.12116420542054 -0.58013618991899 -0.53786393539354
 6  5.10634411881188  0.29209547494749 -0.86299607230723
 6  5.04089251225122  1.30191284058406 -2.09204336963696
 6  6.38487282008201  0.34768661886189 -0.06692317751775
 6  7.63186072397240 -0.27872821972197 -0.81723867436744
 6  8.94671654425442 -0.18818394879488 -0.07269908270827
 6  10.14114473897390 -0.59673674537454 -0.77021799229923
 6  10.20868756895690 -2.19076001210121 -1.09085255025503
 6  11.43866674357436 -0.31482526332633  0.04341521012101
 6  12.80392530023002 -0.59740379147915 -0.68623864676468
 6  13.97778724712471 -0.12938414121412  0.09001606910691
 6  15.36270239513951 -0.17057078617862 -0.50972921272127
 6  15.82028369726973 -1.64305193899390 -0.96394601230123
 6  16.28738284418442  0.45645000500050  0.41074558175818
 6  17.81206579597960  0.51172257065707 -0.09484529912991
 6  18.82247261676168  1.42581079807981  0.67867830083008
 6  20.21854052325233  1.51311164466447  0.24628939213921
 6  20.35110646444645  2.17963626082608 -1.10876186888689
 6  21.15203613441344  2.07730066636664  1.20208557195720
 1 -4.10923240774077  3.65955147654766  1.23820840774077
 1 -10.15145553825382  3.91211204620462 -0.58124351585159
 1 -10.27505079447945 -2.43450279107911 -1.22055870807081
 1 -2.47582403930393 -0.96550486438644  1.81755244644464
 1 -2.19587319251925  1.58049163176318  1.05374602500250
 1 -2.12024648214821  1.14490494339434  3.43791750525053
 1 -3.62040710071007  2.22588664616462  3.45523768916892
 1 -3.84478792149215  0.53784846884688  3.41873428622862
 1 -1.87428991389139 -1.58286824722472 -0.47841175037504
 1 -1.97620929342934  0.22136938733873 -0.82561260086009
 1 -0.13696721412141  0.46174078797880  0.92794319341934
 1 -0.25916371837184 -1.10029454465447  1.42105606080608
 1 -6.04117289268927  6.68470711481148  0.67660336953695
 1 -5.68676566596660  6.12985634873487  2.25192148924893
 1 -4.49062301830183  5.77761892829283  0.76993016861686
 1 -9.46501855435544  6.00596674477448 -0.64829505770577
 1 -9.29377059295930  7.92026276517652  0.55769539133913
 1 -7.88144761056106  7.46403280278028  1.66564494999500
 1 -12.26437054215421  3.36001632763276 -1.95649865456546
 1 -13.29301897109711  1.80857474867487 -1.42942413391339
 1 -12.83516524762476  2.84431308600860 -0.26830807480748
 1 -12.33718849724973 -1.39586903200320 -0.98566352125213
 1 -13.31043976287629 -0.20889762656266 -1.58607413491349
 1 -13.08660501310131 -1.80850553675368 -3.41727161166117
 1 -12.67814137833783 -0.23669820742074 -3.77472096779678
 1 -11.50003628292829 -1.62302716981698 -3.51708032803280
 1 -8.78081768476848 -4.97510825372537 -2.00525378947895
 1 -7.83883324812481 -5.82920292449245 -0.61753136613661
 1 -9.61916180108011 -4.81244626592659 -0.32229405200520
 1 -3.40417111301130 -3.53251650235023 -0.26251152265227
 1 -1.65558372487249 -4.58098453815382  3.76778969426943
 1 -3.14350395899590 -5.72780439803980  3.42067490639064
 1 -1.31165927742774 -6.08443771697170  2.79822377527753
 1  2.67624692879288 -1.82200403630363 -1.43883784878488
 1  3.11233871147115 -0.13217893829383 -2.36283943614361
 1  4.29411031663166 -1.19840205540554  0.36390960696070
 1  4.00569953345335  1.37001571197120 -2.40209857955796
 1  5.26484189588959  2.31295155405541 -1.76889335753575
 1  5.61704901250125  1.12471357885789 -3.01968069906991
 1  6.62125418831883  1.30691469146915  0.25587823062306
 1  6.18347246664667 -0.22720075747575  0.98439815651565
 1  7.48711609630963 -1.30905014021402 -1.07034835843584
 1  7.85605804170417  0.26735994409441 -1.80438336193619
 1  8.96328838043804  0.69396728172817  0.27373500570057
 1  8.81138962766277 -0.84382988918892  0.82820068376838
 1  10.33691124252425 -0.19311677397740 -1.74893978347835
 1  9.32783776927693 -2.28304628112811 -1.78820474527453
 1  11.17384994069407 -2.41932871677168 -1.67883212711271
 1  10.46053893989399 -2.72923486548655 -0.20998043774377
 1  11.44518219911991  0.85518774897490  0.33638512601260
 1  11.46048910231023 -0.75294125542554  1.02569319091909
 1  13.11716503540354 -1.54095225642564 -0.85522318991899
 1  12.95498925142514 -0.17231654065407 -1.65378874017402
 1  13.90185162186219  0.90485304130413  0.59440678367837
 1  14.23017577067707 -0.59742934763476  1.12063858035804
 1  15.24752804130413  0.36556604160416 -1.43933829182918
 1  15.74848229112911 -2.28957925002500 -0.00722217611761
 1  15.18910196089609 -2.16649902550255 -1.68200561566157
 1  16.81954158355836 -1.62287781268127 -1.44345581508151
 1  16.06078127882788  1.47563539723972  0.70408695299530
 1  16.47629207640764  0.08625945084508  1.51494425562556
 1  18.10980191889189 -0.65987253465347 -0.09416275667567
 1  17.68752581708171  0.69217653655366 -1.36884045984598
 1  18.35947674027403  2.40842500020002  0.73044104940494
 1  18.90208736903691  0.91399558055806  1.66072607290729
 1  20.65571048374838  0.55630177837784  0.22917998199820
 1  20.07382148874887  3.28636219811981 -1.09368296169617
 1  21.24122837493749  1.85639229202920 -1.56228759205921
 1  19.56612051645165  1.34840665146515 -1.62862983198320
 1  20.97039301450145  1.67495560466047  2.29653927112711
 1  22.16114782108211  1.96352758245825  0.79152411871187
 1  20.87794752465247  3.23793387668767  1.15782622312231
>>>>>>> 8e03b5b5abfc0030b3aa597dc0de36371bfbd096

