%nproc=4
%Mem=2GB
# td=(NStates=1) CAM-B3LYP/6-31G(d,p) 

TD

0 1
12 -7.16643721672167  0.58043679177918 -0.06582889548955
 6 -4.87693231123112 -2.01278245664566  0.53503003570357
 6 -4.75112504140414  2.91633008030803  1.16741310621062
 6 -9.31294603010301  3.00993648914891 -0.29780263996400
 6 -9.59161947564757 -1.82231774277428 -0.85227165626563
 7 -5.10084350895089  0.47530734883488  0.66692711101110
 6 -4.39080878697870 -0.66462628462846  0.75363338653865
 6 -2.93368237363736 -0.36118554425443  1.15451580578058
 6 -3.01067450585058  1.03760642894289  1.57593832453245
 6 -4.32410940584058  1.57388813761376  1.09931696159616
 6 -3.02417749984999  1.20606289438944  3.06650805970597
 6 -1.98784224522452 -0.62728799019902  0.10096405470547
 6 -0.45593301590159 -0.51009535673567  0.45065919521952
 6  0.51769290649065 -0.72465597849785 -0.68677405790579
 8  0.23372461256126 -1.00558596619662 -1.74928125982598
 8  1.77898970947095 -0.45569296569657 -0.38685547444744
 7 -7.04281472937294  2.63539912971297  0.33578227372737
 6 -5.97416669566957  3.42104308010801  0.80843437703770
 6 -6.32071932503250  4.75821011041104  0.74439512671267
 6 -7.67344005100510  4.83894452595259  0.40334872617262
 6 -7.98397266886689  3.47598679397940 -0.03094054775478
 6 -5.46127408410841  5.95687815371537  1.16606136663666
 6 -8.51567936553655  5.96952798649865  0.16933391879188
 6 -8.32715660696070  7.14537065566557  0.72270852065207
 7 -9.05205747834784  0.64928778987899 -0.47771180488049
 6 -9.85733199289929  1.78368832193219 -0.53314963906391
 6 -11.20497959455946  1.45292363146315 -0.99794151365137
 6 -11.25831823572357  0.07124248834883 -1.19407812181218
 6 -9.94400008070807 -0.41264323862386 -0.95994101020102
 6 -12.34016283998400  2.52730330133013 -1.17283405820582
 6 -12.35703024932493 -0.76313372347235 -1.60179098759876
 6 -12.26829431783178 -1.00478288948895 -3.17066218481848
 7 -7.28914838313831 -1.40389000260026 -0.14943962096210
 6 -8.33593383318332 -2.29273444554455 -0.41679663486349
 6 -7.88336448204821 -3.69127739523952 -0.38129540684068
 6 -6.51534541864186 -3.57663200020002 -0.02482421432143
 6 -6.13872646904690 -2.18135641694169  0.07264006820682
 6 -8.62118958635864 -4.93905674807481 -0.66450492889289
 6 -5.35276974727473 -4.32758664216422  0.23149602220222
 8 -5.26590542844284 -5.57546202960296  0.31866889758976
 6 -4.17092067146715 -3.29366515631563  0.55852571787179
 6 -3.56192682358236 -3.64926014731473  1.82562293519352
 8 -3.79230083068307 -3.06687342354235  2.89980266136614
 8 -2.66273746744674 -4.68123284568457  1.71207978887889
 6 -2.22088267616762 -5.19141337043704  3.00185512101210
 6  2.75608812051205 -0.73236103070307 -1.35314651505151
 6  4.06791888088809 -0.34760293659366 -0.75969611861186
 6  5.14483796819682  0.32945921132113 -1.19334910761076
 6  5.17587601060106  1.12379502880288 -2.51896606190619
 6  6.30811514431443  0.49111096129613 -0.32085857105711
 6  7.58701623952395 -0.15950629752975 -1.02855980648065
 6  8.89660153275327 -0.11748687908791 -0.15438725152515
 6  10.16177680218022 -0.57449452115212 -0.90832180268027
 6  10.12726942714271 -2.03276421252125 -1.31139460446045
 6  11.42405528242824 -0.26682046284628 -0.00181931333133
 6  12.75386029372937 -0.42866691779178 -0.73237326022602
 6  13.87195666406641 -0.19660086288629  0.33378044554455
 6  15.37092321722172 -0.11692542164216 -0.45866410621062
 6  15.73445511441144 -1.50127776157616 -0.91426104380438
 6  16.40244435033503  0.57076143614361  0.52447695489549
 6  17.79949453885389  0.68690008840884 -0.13611942654265
 6  18.75281565106511  1.46410462746275  0.79489992299230
 6  20.21272994219422  1.23195352885289  0.37749251245125
 6  20.52666402020202  2.01832012921292 -0.93865485818582
 6  21.14340527132713  1.77848078437844  1.46703206660666
 1 -3.96591807630763  3.56974249564957  1.52724731163116
 1 -10.23931432413241  3.77160799579958 -0.59196458795880
 1 -10.55271856125612 -2.42772211301130 -1.20994764696470
 1 -2.59143560046005 -0.87209552345235  2.00263095429543
 1 -2.26628023322332  1.60215379797980  1.09050970137014
 1 -1.93450790829083  1.04763521642164  3.57552126562656
 1 -3.17357241724172  2.30735479297930  3.42920508590859
 1 -3.71493493619362  0.54768945294529  3.53544595739574
 1 -1.84328681358136 -1.65908586898690 -0.22657656685669
 1 -2.05314698719872  0.02368961936194 -0.94516455605561
 1 -0.09095261266127  0.37434204810481  0.97010740984098
 1 -0.26722452445245 -1.33547806300630  1.27480143534353
 1 -5.58426720212021  6.91562020612061  0.51666737593759
 1 -5.59272626202620  6.11604496759676  2.39481577867787
 1 -4.43055701170117  5.58845001140114  0.91796497209721
 1 -9.43485553805380  5.92623877197720 -0.52408263646365
 1 -9.12512372827283  7.97141788068807  0.79296891869187
 1 -7.56033549934993  7.54321072057206  1.42163054855486
 1 -12.19581368646865  3.25345567156716 -1.89981298599860
 1 -13.26326599579958  1.91201509270927 -1.32239343084308
 1 -12.37316904800480  3.01747040174017 -0.14422566656666
 1 -12.53023780218022 -1.79251869696970 -1.07620257515752
 1 -13.44805352425242 -0.36888362516252 -1.28457398489849
 1 -13.16719307190719 -1.75451013721372 -3.24001388588859
 1 -12.30641420562056 -0.07362189978998 -3.71725522122212
 1 -11.25702198149815 -1.44404927202720 -3.63647226722672
 1 -8.77913751675168 -4.72243298619862 -1.77950121422142
 1 -7.72761212601260 -5.56857686188619 -0.68344795779578
 1 -9.58941882678268 -5.30563558485849 -0.06533835643564
 1 -3.49925062096210 -3.46012926362636 -0.32064733623362
 1 -1.31454962146215 -4.56790323002300  3.44847776307631
 1 -3.05558516711671 -5.37263888148815  3.79596243514351
 1 -1.78453656515652 -6.08495776897690  2.75986993989399
 1  2.65258456255626 -1.90383221912191 -1.55992995799580
 1  2.40065754335434 -0.18425414581458 -2.20087323952395
 1  4.18520942654265 -0.65611782698270  0.28107132313231
 1  4.03908287178718  1.16384509490949 -3.18811718141814
 1  5.42212762446245  2.05253551245125 -2.31705817401740
 1  5.90886819441944  0.53890499799980 -3.16809554055405
 1  6.55639770267027  1.61896589658966 -0.09529688688869
 1  6.15581970137014  0.10500246284628  0.66864658135814
 1  7.17631501620162 -1.19758899409941 -1.10313163676368
 1  7.68193062896290  0.22953616171617 -2.07491041464146
 1  9.09339139073907  0.94901278627863  0.03127075927593
 1  8.80610909960996 -0.67733323952395  0.69439730343034
 1  10.17303485488549 -0.01884934723472 -1.91891678117812
 1  9.23835882138214 -2.36090406690669 -2.05564148894889
 1  11.01716427212721 -2.56804358825883 -1.87239148304830
 1  9.76531941794179 -2.74165610761076 -0.41640107980798
 1  11.26554423532353  0.75566779697970  0.22210369786979
 1  11.43787684108411 -0.95170113141314  0.86820744234423
 1  12.83739705860586 -1.45768392959296 -0.93683135073507
 1  12.78727247974797  0.26640733173317 -1.69552291359136
 1  13.86033747044704  0.88003055905591  0.95412275527553
 1  13.72762551565157 -1.09346895159516  1.05871238773877
 1  15.25108839733973  0.83083256825683 -1.26159051705170
 1  15.90710815371537 -2.28914920702070 -0.05067652155216
 1  14.95365841654165 -1.92468484408441 -1.51029844494449
 1  16.73323295269527 -1.91589711461146 -1.41989345884588
 1  16.08745394609461  1.47641547524752  0.85394193849385
 1  16.42134658185818 -0.01815099019902  1.53215597679768
 1  18.00138107680768 -0.34064061146115 -0.44513785418542
 1  17.54490155465547  1.36018333723372 -1.06309988578858
 1  18.53689448204820  2.64611876957696  0.64538254355436
 1  18.53907106740674  1.30105428642864  2.01138113841384
 1  20.49110402310231  0.13166931513151  0.32578964296430
 1  20.38673277987799  3.14514807670767 -0.47741133453345
 1  21.58413266536654  1.87158381118112 -1.29924128742874
 1  19.67725162956296  1.71719353015302 -1.73226019501950
 1  20.86938291349135  1.24772288138814  2.28413803100310
 1  22.17553926022602  1.94707593729373  1.30473543984398
 1  20.88092782268227  2.75471555485549  1.58527896839684

