%nproc=4
%Mem=3GB
# td=(NStates=1) iop(3/107=0140000000,3/108=0140000000) CAM-B3LYP/6-31G(d,p) 

TD

0 1
12 -7.13077776947695  0.64107249074907  0.14372074207421
 6 -4.86814563106311 -1.94619184978498  0.49745514791479
 6 -4.72746877747775  2.77875659355936  1.15082518771877
 6 -9.38106487098710  3.12756030903090 -0.26641911721172
 6 -9.57157325532553 -1.75262702840284 -0.84256106100610
 7 -5.12482951415141  0.47284337493749  0.68880670467047
 6 -4.34373662096210 -0.77058820202020  0.79552744744474
 6 -2.88111433203320 -0.49606800480048  1.29194486358636
 6 -2.99934316121612  0.97080578217822  1.83351963126313
 6 -4.37640787548755  1.54792944404440  1.19455384928493
 6 -3.06440262106211  1.01451427072707  3.38802411701170
 6 -2.00023575327533 -0.61521751095110  0.11147495779578
 6 -0.53401911111111 -0.46507975597560  0.48774215651565
 6  0.49282120532053 -0.68665528742874 -0.70843063316332
 8  0.16103632043204 -0.90025380308031 -1.79752714581458
 8  1.74132273067307 -0.48440837923792 -0.20490587818782
 7 -7.06669431283128  2.61040425032503  0.31751267536754
 6 -5.96645678947895  3.27110087748775  0.69486536263626
 6 -6.23843875227523  4.75021188478848  0.70468872757276
 6 -7.60797558285829  4.93670547574757  0.35065119151915
 6 -8.09045857335734  3.52341928072807  0.09660765936594
 6 -5.21474350825083  5.84058353205321  1.10957111231123
 6 -8.44106411441144  6.03449371897190  0.12574318681868
 6 -8.24946335633563  7.24655380508051  0.59335339463946
 7 -9.03561260236024  0.69615661006101 -0.57625419931993
 6 -9.83626111241124  1.90800412471247 -0.69715252875288
 6 -11.14090804350435  1.53281272577258 -1.21886674637464
 6 -11.20605009220922  0.20113765956596 -1.27991802010201
 6 -9.85922352595260 -0.33049324272427 -0.84773697499750
 6 -12.21949288698870  2.57181242264226 -1.35070452315232
 6 -12.28961275417542 -0.64587071087109 -1.84641397199720
 6 -12.17019892879288 -0.90790098239824 -3.32183283448345
 7 -7.16826978937894 -1.36062089778978 -0.13249592469247
 6 -8.22447677397740 -2.21066961246125 -0.51155273517352
 6 -7.82313435323532 -3.57280783218322 -0.50552085188519
 6 -6.45034282478248 -3.61388437053705 -0.13239532123212
 6 -6.15012874457446 -2.17660561636164  0.11923375877588
 6 -8.63401574107411 -4.71758785718572 -0.83015639873987
 6 -5.33314877777778 -4.38693225662566  0.25654062816282
 8 -5.14044503680368 -5.56234309130913  0.10657660626063
 6 -4.14177868046805 -3.33937138453845  0.60457877947795
 6 -3.49212338913891 -3.72092003470347  1.92317828632863
 8 -3.65970875427543 -3.21416877477748  2.96141950015001
 8 -2.68707406020602 -4.78019663816382  1.74012304980498
 6 -2.12296125312531 -5.40371557745775  2.89244664506451
 6  2.69701602200220 -0.76765505440544 -1.16590010721072
 6  3.96665755095510 -0.52356762466247 -0.48310087288729
 6  4.97864335563556  0.27884441244124 -0.92925580258026
 6  4.93385711131113  1.05991366666667 -2.23567770277028
 6  6.35769204790479  0.30744136013601 -0.19349987438744
 6  7.58180963356336 -0.10819936793679 -1.04731506020602
 6  8.88488620022002 -0.18646046214621 -0.20711681408141
 6  10.11437689828983 -0.62337400060006 -0.96365208520852
 6  10.10107338393839 -2.01548942884288 -1.22448941494149
 6  11.30611527532753 -0.25866075717572 -0.08653661616162
 6  12.76342407790779 -0.57551758525853 -0.61170867596760
 6  13.85974724652465 -0.04053976827683  0.15649206080608
 6  15.28238422942294 -0.24911399499950 -0.37536318881888
 6  15.63006927792779 -1.78606699499950 -0.56283811011101
 6  16.44571156385638  0.49865638293829  0.37138187288729
 6  17.71038862656266  0.68784251385139 -0.21114764176418
 6  18.71118153675367  1.43161123962396  0.71048430513051
 6  20.15726853125313  1.39295872837284  0.24068077407741
 6  20.08779162496250  2.09780708580858 -1.12156685258526
 6  21.15167023402340  2.09486118601860  1.16460040004000
 1 -4.08480884438444  3.51877512891289  1.60669676547655
 1 -10.14157628092809  4.01460373487349 -0.38226275247525
 1 -10.35014943904391 -2.45480101520152 -1.06453427282728
 1 -2.43674096129613 -1.12084228692869  2.05778226892689
 1 -2.23197666396640  1.62032409350935  1.53391704070407
 1 -1.94176726312631  0.86532563896390  3.60301063846385
 1 -3.33146025512551  1.95749497229723  3.82122014421442
 1 -3.72735553605361  0.32635779007901  3.84954663986399
 1 -2.46355147414741 -1.47162783358336 -0.41775978307831
 1 -2.46630299929993  0.11365898569857 -0.62922965756576
 1 -0.35804123282328  0.51588117541754  0.78232209520952
 1 -0.16520494079408 -1.05362612921292  1.39932339063906
 1 -5.46520069776978  6.85080259225923  0.59617944924492
 1 -5.42855432673267  6.12662554395440  2.26571858435844
 1 -4.08886373097310  5.41747601560156  1.15881661426143
 1 -9.24112437223722  5.97535091709171 -0.54071542424242
 1 -8.90158922262226  7.87057677867787  0.44215399109911
 1 -7.86202413451345  7.40969780618062  1.71953091339134
 1 -11.79555002800280  3.37766691379138 -2.02868870037004
 1 -13.22628992669267  2.03508225062506 -1.76202193039304
 1 -12.39975100780078  2.89770710481048 -0.23050348984898
 1 -12.32793475837584 -1.50835175797580 -1.26140964186419
 1 -13.33643594269427 -0.00941365186519 -1.63633938833883
 1 -12.86322152135214 -1.67883154525453 -3.75714667276728
 1 -12.14105451115111  0.06436796549655 -3.80446942534253
 1 -11.10500533993399 -1.29381040824082 -3.50868914711471
 1 -9.09095371397140 -4.77890439123912 -1.68857492049205
 1 -8.09370375557556 -5.64603055635564 -0.74532448754875
 1 -9.43768794779478 -4.82942139053905 -0.17772004070407
 1 -3.20595811431143 -3.43279988558856 -0.13306104420442
 1 -1.36766015361536 -4.68944115751575  3.24096581418142
 1 -3.02781921922192 -5.50711023592359  3.55499653735374
 1 -1.55409593009301 -6.28145893069307  2.51002436353635
 1  2.65787384218422 -1.77273389618962 -1.47851930063006
 1  2.67364380568057 -0.18181009620962 -2.19982103960396
 1  4.34493498019802 -0.82410082388239  0.47812921312131
 1  4.00716602810281  1.13015855855586 -2.50784126982698
 1  5.49955688788879  1.99491991589159 -2.27791522992299
 1  5.42500206870687  0.48308949984998 -3.16838309520952
 1  6.49179736363636  1.34974495509551  0.10090970487049
 1  6.19069694179418 -0.33803113981398  0.74253044854485
 1  7.45715783858386 -1.15851652465247 -1.40516527372737
 1  7.78340089858986  0.49779888288829 -1.92255307820782
 1  8.87149319361936  0.81342083958396  0.05325775387539
 1  8.71623474427443 -0.95011336403640  0.65703182658266
 1  10.22682731453145  0.03912005980598 -1.75940109810981
 1  9.23380298939894 -2.17417570107011 -1.85317369926993
 1  10.88639778037804 -2.33207660696070 -1.99037439553955
 1  10.12523472057206 -2.54787890259026 -0.35440283398340
 1  11.32669431103110  0.79237567096710  0.19991776257626
 1  11.18410600610061 -0.77733903150315  0.89873619371937
 1  12.98701665416542 -1.72706012531253 -0.61061333283328
 1  12.78492432233223 -0.08508357235724 -1.53955828952895
 1  13.77618903920392  1.06510187348735  0.46881170987099
 1  13.75814412501250 -0.60371675057506  1.09870224422442
 1  15.31349175057506  0.30571396839684 -1.33229449824983
 1  15.73643744054406 -2.21263060426043  0.47564942944294
 1  14.86197784218422 -2.20772529252925 -1.15889726322632
 1  16.65098337793779 -1.78947984498450 -1.03804031733173
 1  16.05488876237624  1.69581791549155  0.38440435673567
 1  16.50835491329133  0.11050476567657  1.29699819451945
 1  18.24075081278128 -0.36786330033003 -0.39892008760876
 1  17.68361567116712  1.09020791489149 -1.21671741534153
 1  18.18703776067607  2.24424569256926  0.84488643544354
 1  18.68135409790979  0.89559439893989  1.73789703520352
 1  20.56872670497050  0.53444444204420  0.09982587478748
 1  19.57111392989299  3.20737151365136 -1.33180536523652
 1  21.23658745954596  2.08237938003800 -1.40935891709171
 1  19.57481587918792  1.68653894409441 -1.88755714011401
 1  21.28188204170417  1.49809545044504  2.13499716851685
 1  22.31027892069207  1.96293676437644  0.79430608420842
 1  20.70707078557856  3.14926104330433  1.49452658935894

