%nproc=4
%Mem=2GB
# td=(NStates=1) CAM-B3LYP/6-31G(d,p) 

TD

0 1
<<<<<<< HEAD
12 -7.09720029302930  0.62264101220122 -0.06207852045204
 6 -4.82419703770377 -1.98805998439844  0.49757629032903
 6 -4.78764869376938  2.84858330563056  0.97019338423842
 6 -9.36878161366137  3.04541003650365 -0.37259011871187
 6 -9.49343965766577 -1.78491400240024 -0.88160458955896
 7 -5.02737616221622  0.41830164826483  0.64974539283928
 6 -4.24901460756076 -0.72529235123512  0.74674269746975
 6 -2.92758176357636 -0.35839526522652  1.17245759996000
 6 -2.96038947734773  1.25536820512051  1.51421215191519
 6 -4.40363735863586  1.52604335313531  1.09256628652865
 6 -2.99010409250925  1.29785207330733  3.14237564646465
 6 -1.87586104710471 -0.64375963736374  0.13785774407441
 6 -0.46363378597860 -0.33218756595660  0.55690982028203
 6  0.52930406760676 -0.67270078297830 -0.52522790329033
 8  0.16532777287729 -1.05881128872887 -1.64045037673767
 8  1.70560237073707 -0.30238763516352 -0.19944673357336
 7 -7.10351079897990  2.61798738853885  0.26165486098610
 6 -6.05079435843584  3.33868484428443  0.65868940254025
 6 -6.42356961006101  4.78679296869687  0.77898858605861
 6 -7.78178088508851  4.79196982848285  0.33739213051305
 6 -8.14702897449745  3.47092628792879  0.06520906720672
 6 -5.52769072577258  5.99892235813581  1.16022078257826
 6 -8.56769456705671  5.97932896659666  0.26372335773577
 6 -8.49783367466747  7.10122624122412  0.91660791059106
 7 -9.08988126072607  0.61147400850085 -0.54876891059106
 6 -9.84999125882588  1.75560551365137 -0.57156348044804
 6 -11.19979907650765  1.44973331243124 -1.00165188468847
 6 -11.32284468836884  0.06847221132113 -1.19120783478348
 6 -9.88971465216522 -0.46780875517552 -0.94979999609961
 6 -12.29788861256126  2.37703827482748 -1.32394916971697
 6 -12.30095464176418 -0.87188459855986 -1.79995080358036
 6 -12.29833732213221 -1.10309272047205 -3.34593971257126
 7 -7.16859632793279 -1.35942555615562 -0.12662733973397
 6 -8.28253849364937 -2.28990416251625 -0.56323127832783
 6 -7.87237338293829 -3.68920718821882 -0.46026330363036
 6 -6.50689457355736 -3.57015135213521  0.00989925802580
 6 -6.12154475087509 -2.16191447274727  0.01249405360536
 6 -8.67105457285728 -4.84256709910991 -0.86677515591559
 6 -5.34056852715272 -4.43512739623962  0.26943981658166
 8 -5.22262110001000 -5.63833831723172  0.23856088678868
 6 -4.19316289568957 -3.40142593239324  0.63873373867387
 6 -3.58730936183618 -3.77377259855986  1.94059443234323
 8 -3.78929052965297 -3.14012074827483  2.98492117321732
 8 -2.76159735343534 -4.74274899729973  1.75572415331533
 6 -1.94111469936994 -5.06213044214421  2.88751368686869
 6  2.72353486518652 -0.53314110871087 -1.25149635003500
 6  4.06915900490049 -0.33352152845285 -0.50163031203120
 6  5.09100258465847  0.45724198959896 -0.95686545924592
 6  4.99877830083008  1.25432808210821 -2.20172433773377
 6  6.32280661346135  0.55233708390839 -0.29530601580158
 6  7.63257079497950 -0.00023036993699 -1.00297724822482
 6  8.90233210581058  0.09865473507351 -0.03680549334934
 6  10.09328995349535 -0.36496356805681 -0.80584155465547
 6  10.07153385358536 -1.83534447054705 -1.21453491849185
 6  11.44839771667167 -0.12640642144214  0.04916578517852
 6  12.71486639433943 -0.50085413651365 -0.66165618851885
 6  13.94931439983998 -0.06631783458346  0.21214828232823
 6  15.37521364626463 -0.33318704780478 -0.43978221802180
 6  15.71685335423542 -1.67816545034503 -0.86428604630463
 6  16.38218232413241  0.27697205720572  0.54454896209621
 6  17.87206179557956  0.52445384378438 -0.16110192479248
 6  18.76639700920092  1.20001821882188  0.78337877087709
 6  20.24110277947795  1.18864919841984  0.12975773897390
 6  20.47862921672167  1.78647694489449 -1.24417541024102
 6  21.29722065286529  1.86614955125513  1.23751911531153
 1 -3.87876936143614  3.48032355375538  1.25676026292629
 1 -10.18648904160416  3.67687852285229 -0.46388177967797
 1 -10.28222151155116 -2.59731907270727 -1.16161281348135
 1 -2.68834529142914 -0.94370268416842  2.08549924112411
 1 -2.04233783898390  1.88563214581458  1.20969161956196
 1 -2.01277573507351  0.68576902980298  3.52221593509351
 1 -2.88377343734373  2.42114617211721  3.46648881428143
 1 -3.98812225492549  1.09546423042304  3.59509192199220
 1 -1.83628611351135 -1.74622458285829 -0.34273818301830
 1 -2.00785245774577 -0.06934968456846 -0.82844288388839
 1 -0.34179769716972  0.53785839973997  0.81311171027103
 1 -0.05413321532153 -0.92950746594659  1.35252920812081
 1 -5.77443621902190  6.79412805690569  0.60411612081208
 1 -5.66880386978698  6.38958232133213  2.25853215031503
 1 -4.43053700970097  5.81138230463046  0.91377455305531
 1 -9.39503155565557  6.05518166626663 -0.40337056525653
 1 -9.30613182908291  7.82705344424442  0.85334495629563
 1 -8.08289775557556  7.34778117761776  1.87423580908091
 1 -11.96487059215922  3.22338266426643 -2.09930293499350
 1 -13.25349501870187  1.80141403260326 -1.59238042954295
 1 -12.44629636073607  2.86624527922792 -0.30686193019302
 1 -12.22279705810581 -1.79830927602760 -1.28707366226623
 1 -13.36131485038504 -0.41753849064907 -1.71034656215622
 1 -13.08461481408141 -1.79067375357536 -3.42726261076108
 1 -12.45414897909791 -0.14820935853585 -3.84745824152415
 1 -11.23979025832583 -1.55371023812381 -3.64382300230023
 1 -9.23556315931593 -4.66145688858886 -1.91231449554956
 1 -7.94895426022602 -5.58179818401840 -0.87428704170417
 1 -9.45943582848285 -5.19372439373937 -0.03687551015102
 1 -3.46728742464246 -3.67635088578858 -0.05111038253825
 1 -1.38152631913191 -4.23443988368837  3.23275619091909
 1 -2.61261086968697 -5.53764538213821  3.83442628152815
 1 -1.24815292679268 -5.84937421062106  2.69058301120112
 1  2.69667897199720 -1.63523535943594 -1.55602956795680
 1  2.49523700130013  0.18048232783278 -2.02350550275027
 1  4.32680358595860 -0.71398361356136  0.44645786178618
 1  4.08910787428743  1.33859256965697 -2.41925029472947
 1  5.33867927962796  2.30502076097610 -2.00787725592559
 1  5.52543985158516  1.03069417691769 -3.03441217221722
 1  6.59906196909691  1.58521252125212 -0.05076243344334
 1  6.26885100450045  0.04721668426843  0.89633935063506
 1  7.53619100380038 -1.08084731993199 -1.19825114871487
 1  7.88743117901790  0.47399060716072 -1.92735565916592
 1  9.18420047164716  0.97552543754375  0.22972060426043
 1  8.80079856855686 -0.80693619981998  0.69693755745575
 1  10.52565011641164  0.11886442414241 -1.79245413491349
 1  9.15348033353335 -1.92027000350035 -1.86069199399940
 1  10.88599115481548 -2.09561634553455 -1.98543278717872
 1  10.06348923492349 -2.48405034703470 -0.43287272697270
 1  11.13007068796880  0.93656588678868  0.22231371887189
 1  11.33481653505351 -0.72809877117712  1.10160078167817
 1  12.86929024792479 -1.46532469366937 -1.24255192279228
 1  12.67606135863586  0.05986667766777 -1.67077043834383
 1  13.72830426712671  0.77663021902190  0.80447779077908
 1  13.82822557565757 -0.82735233993399  1.01296781328133
 1  15.40680396889689  0.21169065406541 -1.47104146214621
 1  15.62148959185919 -2.40216050815082 -0.03630508440844
 1  14.82376542724272 -1.90139251485149 -1.38012542764276
 1  16.56630626002600 -1.92206773167317 -1.35077654715472
 1  16.00952615331533  1.18896673037304  1.00821736603660
 1  16.53723817101710 -0.45866504160416  1.41726448764876
 1  18.30684162286229 -0.53826037343734 -0.36442978337834
 1  17.75296236073607  1.19991731063106 -1.11241481728173
 1  18.56812760536054  2.28843300100010  0.96877488278828
 1  18.71512867316732  0.67241142214221  1.62008200850085
 1  20.60622553525353  0.17147329552955  0.09243630763076
 1  20.13374748134813  2.82935649754975 -1.39709330273027
 1  21.57576182828283  2.08144479727973 -1.43969533283328
 1  20.07547145154516  1.28595040584058 -1.98171514051405
 1  20.92657863306331  1.41496960606061  2.18286790399040
 1  22.30492219851985  1.62360359005901  1.19181414771477
 1  20.94500423032303  2.95374545784578  1.49060950145014
=======
12 -7.21765233823382  0.67600634873487  0.06507419481948
 6 -4.82988760676068 -2.01188236663666  0.38429496219622
 6 -4.85271520042004  2.92017046434643  0.96003236813681
 6 -9.47066180168017  3.10707620312031 -0.31255411511151
 6 -9.61586189988999 -1.75439095009501 -0.79840626972697
 7 -5.12453587818782  0.50195001310131  0.51312173047305
 6 -4.40361006710671 -0.69379920192019  0.65692371557156
 6 -2.97454646004600 -0.26702612831283  1.14526488068807
 6 -3.06637007540754  1.10459312761276  1.47728845954595
 6 -4.38347534243424  1.56192694149415  0.88260529042904
 6 -2.92131721382138  1.35381766986699  2.98058946784679
 6 -1.91333479447945 -0.64657991939194  0.08029198749875
 6 -0.40552797539754 -0.54643899109911  0.58682281158116
 6  0.64507564476448 -0.76115962886289 -0.54421980248025
 8  0.34662590269027 -0.91289669726973 -1.73294962666267
 8  1.88531034153415 -0.51751914831483 -0.06164295319532
 7 -7.09071951985199  2.57618320812081  0.20589928542854
 6 -6.04413369236924  3.34709568536854  0.59950348394839
 6 -6.46888414151415  4.82399668906891  0.73462414961496
 6 -7.79289199619962  4.86312694419442  0.37611600290029
 6 -8.14582885448545  3.48482767806781 -0.00286774047405
 6 -5.53895185188519  5.89318178407841  1.14611937243724
 6 -8.59768756635664  6.04715574927493  0.23255024042404
 6 -8.63946783808381  7.10001612021202  1.01554780458046
 7 -9.17651992459246  0.61239410051005 -0.47896192989299
 6 -9.91789804950495  1.76738669176918 -0.71848817291729
 6 -11.27593669026903  1.36035437453745 -1.03834555405541
 6 -11.28608101200120  0.05751111521152 -1.18908762276228
 6 -9.96401208190819 -0.46080805510551 -0.85223023912391
 6 -12.35938476217622  2.40590116111611 -1.29284605940594
 6 -12.49183372967297 -0.74947235733573 -1.56912772127213
 6 -12.48667615601560 -1.07960037123712 -3.15321043964396
 7 -7.32198166646665 -1.35377499109911 -0.09008368536854
 6 -8.35747598739874 -2.16229140124012 -0.50380533573357
 6 -7.89054520012001 -3.54140240774077 -0.51384866216622
 6 -6.46307019111911 -3.53370770777078 -0.28735046694669
 6 -6.17103970037004 -2.12120040134013  0.06069887408741
 6 -8.74726219361936 -4.75439828222822 -0.81031951035104
 6 -5.32358682898290 -4.32947683118312  0.11650452305231
 8 -5.18680751865187 -5.52773725712571  0.19350638133813
 6 -4.12320589999000 -3.30269605940594  0.40199006430643
 6 -3.44163479437944 -3.68824404570457  1.80170054295430
 8 -3.71852345294529 -3.11691842804280  2.88436111721172
 8 -2.66400759445945 -4.73022774517452  1.75260384128413
 6 -2.04914550245024 -5.20469469856986  3.02115705120512
 6  2.92608512021202 -0.76112390699070 -1.05133633403340
 6  4.19640172917292 -0.42784096039604 -0.42337248624862
 6  5.22841632603260  0.35262152755275 -0.84693446614661
 6  5.16241466446645  1.12263491279128 -2.12868703400340
 6  6.62425675847585  0.43587543774377 -0.09658614381438
 6  7.66126366426643 -0.25670601750175 -0.82912986348635
 6  8.97288916151615 -0.11832696309631  0.07065525272527
 6  10.25210583508351 -0.56485355705571 -0.73990496099610
 6  10.03574027422742 -2.11510244634463 -1.19442290729073
 6  11.55060793769377 -0.36254003480348  0.18276914551455
 6  12.80540544824482 -0.57427147824782 -0.61313133603360
 6  14.07819728812881 -0.22377358015802  0.15895296279628
 6  15.32747887278728 -0.35012874197420 -0.64235247504750
 6  15.73349501840184 -1.80219785358536 -0.80616023372337
 6  16.44545865176518  0.27321168116812  0.33327783498350
 6  17.84795938533853  0.58129952835284 -0.34784059865987
 6  18.75356572607261  1.25333355035504  0.65995642864286
 6  20.19927859705971  1.45321565506551  0.15855061826183
 6  20.35729708350835  2.43691198839884 -1.08565955865587
 6  21.13307423822382  2.07739067536754  1.23607897129713
 1 -4.10871235573557  3.66035155655565  1.42757734463446
 1 -10.14823521622162  3.97530836583658 -0.54243963546355
 1 -10.31293458285828 -2.55831517231723 -1.00047669986999
 1 -2.70213667056706 -1.01538985288529  1.84710540174017
 1 -2.48304190939094  1.63445702830283  0.86256690709071
 1 -1.86620107760776  1.08100855375538  3.14392810631063
 1 -3.06844190419042  2.41934599209921  3.33227539293929
 1 -3.70334377707771  0.72848753275328  3.54698711151115
 1 -2.28967145204521 -1.72495245564556 -0.08257216641664
 1 -2.27371904440444 -0.17398014761476 -1.12789282888289
 1 -0.43726724412441  0.53271788568857  0.97149754885489
 1 -0.00514831683168 -1.10228474367437  1.52220617581758
 1 -5.64771354675468  6.71474011811181  0.54076978617862
 1 -5.73973096249625  6.02908627172717  2.16062235933593
 1 -4.66296025202520  5.56280744714472  0.88085126072607
 1 -9.40361241374137  6.18439458755876 -0.67990821902190
 1 -9.09906112201220  7.96222696159616  0.72466208800880
 1 -7.97124659045905  7.20873727322732  1.98163654915492
 1 -12.37837194229423  2.95623594959496 -2.38525152985298
 1 -13.29711938113811  1.81264515571557 -1.68883007450745
 1 -12.68280001110111  2.86522517721772 -0.40858210221022
 1 -12.86287106550655 -1.66688613371337 -1.05673062796280
 1 -13.25003372227223  0.04014727792779 -1.29997552505250
 1 -13.29631598419842 -1.86452113831383 -3.26993687818782
 1 -12.49516308050805 -0.16361089868987 -3.75012850855085
 1 -11.43235951525153 -1.53484835193519 -3.45134375437544
 1 -9.38175777877788 -4.48666940984098 -1.70490375447545
 1 -8.00863022782278 -5.63120312451245 -0.72183179617962
 1 -9.53886377127713 -4.78205322662266  0.03991216861686
 1 -3.49690038593859 -3.40101335203520 -0.26872214371437
 1 -1.15328349484948 -4.42185862556256  3.18828174347435
 1 -2.62056166476648 -5.33778539613961  3.82627546644665
 1 -1.59005711721172 -6.27600687388739  2.82136608950895
 1  2.80753005710571 -1.87743957985799 -1.24879884488449
 1  2.58824630223022 -0.16424214461446 -2.02077522972297
 1  4.19956086168617 -0.93555577077708  0.60412362836284
 1  4.18420738423842  1.13934264466447 -2.50928929862986
 1  5.61469688138814  2.24946520542054 -1.72702917111711
 1  5.95147245484548  0.80401150865086 -2.85908463946395
 1  6.70292235513551  1.48345234523452 -0.08774613181318
 1  6.65747986738674  0.10110207280728  0.84455417211721
 1  7.41115850055005 -1.37813704890489 -0.59980130373037
 1  7.90956339223922  0.21083429152915 -1.89907283088309
 1  9.03179523112311  0.90094797979798  0.39131676387639
 1  8.76546503520352 -0.71101660786079  0.95825368906891
 1  10.21163871527153  0.16779931763176 -1.57527241674167
 1  9.55312029752975 -2.20786876337634 -2.16942286708671
 1  11.02233478917892 -2.38006479037904 -1.66369061296130
 1  9.84501738773877 -2.67420936293629 -0.46249568926893
 1  11.53106078697870  0.68481071127113  0.48497998549855
 1  11.47421047444745 -1.10287624892489  1.01633225482548
 1  12.89227254615462 -1.61173933513351 -0.98640630823082
 1  12.79029278177818  0.08646933793379 -1.54057741904190
 1  13.84215565226523  0.66927948394839  0.60666800980098
 1  14.19138189128913 -0.83855346004600  0.97736425292529
 1  15.44692798129813  0.19479896489649 -1.56081043904390
 1  16.29703714661466 -2.17990828292829  0.18477702380238
 1  14.83554660536054 -2.34152652825283 -1.19125654075408
 1  16.67164679407941 -1.77249277417742 -1.52396386588659
 1  16.13706890759076  1.37533536723672  0.76405294959496
 1  16.52374682188219 -0.43765294039404  1.11884464566457
 1  18.27857879657966 -0.38449499689969 -0.65330867126713
 1  17.97892495699570  1.21646896579658 -1.25604918071807
 1  18.22173296589659  2.04912907060706  0.91405941124112
 1  18.82798995929593  0.72914709570957  1.59945994629463
 1  20.73017793049305  0.63262941114111 -0.22398533453345
 1  20.04384849144914  3.46004956685669 -0.55664925832583
 1  21.41559581168117  2.43748040084008 -1.68658002130213
 1  19.93847775217522  2.08836064686469 -1.99152612161216
 1  21.22150812601260  1.45878398749875  2.16134575177518
 1  22.25247695399540  2.05453668336834  1.08635360166017
 1  20.79906963686369  3.05734581788179  1.69042948344834
>>>>>>> 8e03b5b5abfc0030b3aa597dc0de36371bfbd096

