%nproc=4
%Mem=2GB
# td=(NStates=1) CAM-B3LYP/6-31G(d,p) 

TD

0 1
<<<<<<< HEAD
12 -7.16821739473947  0.56707545564556  0.10075776317632
 6 -4.82620723872387 -1.97912909130913  0.58474500720072
 6 -4.76564649354936  2.84746319361936  1.18068443334333
 6 -9.33526826232623  3.06412190769077 -0.48502136183618
 6 -9.49487980168017 -1.77562307330733 -0.97119354845485
 7 -5.08463188778878  0.43636345444544  0.80547096539654
 6 -4.27875758185819 -0.77493731573157  0.85376339953995
 6 -2.88710771617162 -0.37646707240724  1.29063941814181
 6 -2.95633907230723  1.09713238153815  1.60449117981798
 6 -4.40445744064406  1.47598834763476  1.14946197609761
 6 -2.68693377547755  1.22996528462846  3.23487489638964
 6 -1.98256171717172 -0.67963322472247  0.11427538583858
 6 -0.52667008960896 -0.45849019621962  0.64430856015602
 6  0.52240337753775 -0.58449196209621 -0.52822820332033
 8  0.30779201930193 -0.96262166976698 -1.66496282798280
 8  1.78482029252925 -0.45707310371037 -0.06284307320732
 7 -7.08768921682168  2.56339192899290  0.34956365186519
 6 -5.93514279327933  3.34889586538654  0.78199173277328
 6 -6.39565681878188  4.76555084448445  0.80525121232123
 6 -7.71735444244424  4.78850948244824  0.39389778107811
 6 -8.12608688028803  3.37284647994799  0.17307985428543
 6 -5.62881083778378  5.95642810871087  1.16779153965397
 6 -8.54964276187619  5.99259029272927  0.21024801020102
 6 -8.46594048534853  7.22394851345135  0.86077232703270
 7 -9.15035730833083  0.63459632073207 -0.61286532023202
 6 -9.80606686638664  1.72484243734373 -0.66284260836084
 6 -11.17636673327333  1.43622196129613 -1.29426114561456
 6 -11.29126153005300  0.09003436753675 -1.39134784878488
 6 -9.94981066176618 -0.41946392069207 -0.95707072317232
 6 -12.22198102180218  2.46275684668467 -1.55019179397940
 6 -12.50255480178018 -0.74229163926393 -1.83637444594459
 6 -12.40269775817582 -1.00273268446845 -3.35966108470847
 7 -7.21386085438544 -1.41863147674767 -0.17603228022802
 6 -8.27697793759376 -2.19449462156216 -0.53230818601860
 6 -7.77958410401040 -3.57969623712371 -0.49923720102010
 6 -6.45649953405341 -3.58345268226823 -0.06184791669167
 6 -6.22452504890489 -2.18105638693869  0.16190899509951
 6 -8.59609707710771 -4.79689253165317 -0.89692817121712
 6 -5.27995246554655 -4.34112799629963  0.27604047664766
 8 -5.11109994789479 -5.51951643504350  0.34529155985599
 6 -4.19695327472747 -3.28657444724472  0.56685655095510
 6 -3.55453608450845 -3.68375359665967  1.87745811871187
 8 -3.68276987758776 -2.98430516671667  2.94843752485248
 8 -2.74191538523852 -4.65718044044404  1.73371195209521
 6 -2.24461504940494 -5.04041827092709  3.00177511301130
 6  2.71942445414541 -0.70350814541454 -1.12276347674767
 6  4.15213730273027 -0.53183135943594 -0.54210435943594
 6  5.14641812621262  0.28121438683868 -0.90266003870387
 6  5.12579100210021  1.03997664696470 -2.31131529682968
 6  6.45721005380538  0.34733658385839 -0.14717120232023
 6  7.55136267416742 -0.09065941284128 -0.92895984648465
 6  8.91573344594459 -0.18619374977498 -0.17674948774877
 6  10.19557018151815 -0.52054912661266 -0.96900787128713
 6  10.03520022022202 -2.10646158225823 -1.33062652765277
 6  11.39260213711371 -0.25250903170317 -0.01667079847985
 6  12.73871877957796 -0.59513356445645 -0.71593161606161
 6  14.02815228362836 -0.22942414521452  0.08480554805481
 6  15.37930405530553 -0.26000973007301 -0.53479171897190
 6  15.63913558245824 -1.59356699049905 -1.01900151785179
 6  16.39685379127913  0.43617797779778  0.46970147734773
 6  17.81178576797680  0.56745814421442 -0.20602641724172
 6  18.77596796629663  1.29798801580158  0.70039047204720
 6  20.17814648384838  1.44816515001500  0.18342310551055
 6  20.26339769356936  2.25975427262726 -1.07231822452245
 6  21.02224315511551  2.01336427272727  1.30747611101110
 1 -4.04994647914792  3.67058257965797  1.56762134903490
 1 -9.66466685938594  4.04305514051405 -1.04676006750675
 1 -10.28718200760076 -2.46826616741674 -1.13860051225123
 1 -2.65674213111311 -0.92894120802080  2.23500419161916
 1 -2.21123472867287  1.76511009360936  1.01932258265827
 1 -1.68724318181818  1.16673712661266  3.61659537303730
 1 -3.06254131413141  2.24339839733973  3.41743390879088
 1 -3.45413885658566  0.57290197419742  3.72574498729873
 1 -1.93695618051805 -1.81138109850985 -0.14190810001000
 1 -2.26144781728173 -0.16266901650165 -0.64302434203420
 1 -0.18966248364837  0.44688930283028  1.09597999709971
 1 -0.03712151415141 -1.21283579877988  1.28847280248025
 1 -5.98895767116712  6.91773041714171  0.68883459265927
 1 -5.70402739213921  6.31779514261426  2.13525982308231
 1 -4.62021597759776  5.81972313871387  1.11721489708971
 1 -9.46651870437044  6.12816896499650 -0.58274850305030
 1 -9.08361957785779  8.03165390429043  0.71300092189219
 1 -7.69500896669667  7.28522492199220  1.52717110261026
 1 -12.06436054115412  3.21253157915792 -2.29093209790979
 1 -13.28867853705371  2.01063495469547 -1.76056724822482
 1 -12.51945367646765  2.99508816351635 -0.57076832083208
 1 -12.56318109650965 -1.57507695279528 -1.12917787268727
 1 -13.44324304320432 -0.14569130593059 -1.58811433893389
 1 -13.50296664926493 -1.41881656785679 -3.86955684018402
 1 -12.26209977417742  0.08244370677068 -3.79011250695069
 1 -11.55403168246825 -1.75715058215822 -3.63391201120112
 1 -9.03980358335834 -4.62599334223422 -1.89241250535054
 1 -7.91721108590859 -5.66610661486149 -0.82193180618062
 1 -9.35342522742274 -4.89462448374838 -0.34784660726073
 1 -3.47614831073107 -3.45232848354835 -0.33496876837684
 1 -1.66690485698570 -4.11090753045305  3.32434534983498
 1 -3.09244885348535 -5.10932254985499  3.51911475037504
 1 -1.76496460796080 -6.01769104230423  2.93956790969097
 1  2.45321462556256 -1.53574541044104 -1.72734669966997
 1  2.67959543714371  0.12130641024102 -1.92512566476648
 1  4.43491439703970 -1.24946716191619  0.22826604260426
 1  3.97644660816082  1.04592330273027 -2.71950031973197
 1  5.31370678237824  2.25815607450745 -1.93517998619862
 1  5.93441074867487  0.64607571507151 -2.97678640964096
 1  6.60600266316632  1.35762976297630  0.07643028582858
 1  6.29147326672667 -0.16708474587459  0.70966068276828
 1  7.34458184288429 -1.15565480068007 -1.53525484908491
 1  7.47454989088909  0.71608481658166 -1.72111503510351
 1  8.92662471407141  0.72048993399340  0.35580321252125
 1  8.75010349904991 -0.91702720892089  0.72884074777478
 1  10.53515106650665 -0.06006346864686 -1.92058694819482
 1  9.17397238273827 -2.40693867036704 -1.85672159695970
 1  10.97664021972197 -2.35991277517752 -1.97079132303230
 1  10.14534742074208 -2.76741868386839 -0.35481492119212
 1  11.30572825372537  0.70948317851785  0.51617310481048
 1  11.28485153855386 -0.92757871917192  0.80248086968697
 1  12.91908522742274 -1.68706686788679 -0.93196086368637
 1  12.90914466696670  0.05942663366337 -1.53147650895090
 1  13.80052148884888  0.84968752475248  0.51720906390639
 1  14.06268902200220 -0.92609221392139  0.98668518501850
 1  15.44442773127313  0.56388587358736 -1.30259461746175
 1  15.95567301020102 -2.34573486558656 -0.11186264016402
 1  14.77262031273127 -2.04539691529153 -1.57438485358536
 1  16.54419404880488 -1.67149267416742 -1.52394386388639
 1  16.17293249394939  1.34090192389239  0.84702124642464
 1  16.56041048824882 -0.37241641674167  1.50263302450245
 1  18.33021396009601 -0.41114766216622 -0.58684202460246
 1  17.80805787028703  1.13959127802780 -1.27558113391339
 1  18.31315210781078  2.25765992369237  0.99442744804480
 1  18.77527468776878  0.85809999099910  1.71296129642964
 1  20.46707161986199  0.48578472667267 -0.07500043604360
 1  19.63529763636364  3.08400196209621 -1.03394698809881
 1  21.42595684778478  2.49899655245525 -1.34386574987499
 1  19.90891479587959  1.69113092389239 -1.92342931193119
 1  20.96246222142214  1.41643975307531  2.29023864106411
 1  22.03603530983098  1.96053728342834  1.04571953825383
 1  20.52648237813781  2.88935901920192  1.96238667916792
=======
12 -7.17937851085108  0.65359410751075  0.00229791719172
 6 -4.94131874987499 -1.94259543794379  0.49358589128913
 6 -4.66291622052205  2.77492593989399  1.03442980788079
 6 -9.37309204470447  3.08458395389539 -0.39107196689669
 6 -9.54305461916192 -1.72762827382738 -0.88169459855986
 7 -5.15074849944995  0.38498831693169  0.83465388368837
 6 -4.34698440454045 -0.70512033403340  0.83400142334233
 6 -2.92738174357436 -0.36747617331733  1.23687404160416
 6 -3.05598903730373  1.10282295059506  1.70488121882188
 6 -4.34970196509651  1.49447019581958  1.12424945484548
 6 -3.09263434553455  1.13436572467247  3.31351276017602
 6 -1.96146960796080 -0.70131539293929  0.10784474277428
 6 -0.53076049864986 -0.40231457865787  0.57131126042604
 6  0.40591172837284 -0.59956346924692 -0.59499487998800
 8  0.19565080518052 -1.12385779337934 -1.66841317301730
 8  1.72318412891289 -0.30495789218922 -0.19531632053205
 7 -7.02547299519952  2.65838142794279  0.28993768926893
 6 -5.97799707870787  3.37180815661566  0.67774130773077
 6 -6.38096534963496  4.74540883028303  0.71550223742374
 6 -7.70097280428043  4.85380601210121  0.28470686198620
 6 -8.12599687128713  3.45848504380438  0.05226777307731
 6 -5.44471242794279  5.90470293619362  1.20658541904190
 6 -8.43355115271527  6.02704373807381  0.06792377777778
 6 -8.39459335063506  7.15422154075408  0.83833008280828
 7 -9.09293156575658  0.64579744084408 -0.55792982668267
 6 -9.85381164086409  1.80180013311331 -0.60329665376538
 6 -11.19356845344534  1.45341368046805 -1.03570529002900
 6 -11.16486889078908  0.07036240034003 -1.31600031403140
 6 -9.94528020872087 -0.40802277657766 -0.86102111821182
 6 -12.31982080578058  2.45178574957496 -1.43226000080008
 6 -12.33092763906391 -0.78387579767977 -1.84873568206821
 6 -12.27180466886689 -1.30004241544154 -3.35137025562556
 7 -7.19515898419842 -1.41654126772677 -0.21085576257626
 6 -8.29350959075908 -2.27308248034803 -0.58581353655366
 6 -7.88024417001700 -3.56678494599460 -0.55135241254125
 6 -6.49648353245325 -3.56339067606761 -0.19461119301930
 6 -6.21291388778878 -2.20992927422742 -0.00240743654365
 6 -8.66797426482648 -4.90277311971197 -0.76130460886089
 6 -5.37189165946595 -4.30795467896790  0.22591546414641
 8 -5.24623346124612 -5.56015049844984  0.34743177387739
 6 -4.14911849124912 -3.31050684048405  0.58522838813881
 6 -3.56468709960996 -3.64178940024002  2.01172154505451
 8 -3.78010961156116 -3.13849058525853  3.05828850995099
 8 -2.73682487618762 -4.72933765616562  1.81034961586159
 6 -2.28605919381938 -5.29238346744674  3.02726766226623
 6  2.73334584628463 -0.62440023462346 -1.10835203560356
 6  4.02106419541954 -0.34117229352935 -0.49549969896990
 6  5.12263574797480  0.39731599699970 -0.96537631033103
 6  5.14139256225623  1.14950760006001 -2.19107327262726
 6  6.37908224102410  0.43934578477848 -0.10944742994299
 6  7.66743428132813  0.04471412451245 -0.98316526702670
 6  8.91434330693069 -0.00887601800180 -0.15097691049105
 6  10.19763038753875 -0.47962503420342 -0.81269223972397
 6  10.12217891809181 -1.95890682678268 -1.29218268326833
 6  11.48012088898890 -0.28421220202020  0.03452432103210
 6  12.81784669236924 -0.39725377647765 -0.76886690959096
 6  14.01433090149015 -0.12549375217522  0.12408947644764
 6  15.40036616151615 -0.23584731383138 -0.62315055485549
 6  15.71315298419842 -1.55492312611261 -1.05354497219722
 6  16.42768687458746  0.39046340634063  0.43347785498550
 6  17.74556914631463  0.60383178157816 -0.24526034063406
 6  18.86796716621662  1.11288950595059  0.71884231723172
 6  20.33813248244824  1.25866620012001  0.21852661586159
 6  20.43214456825683  2.16704500170017 -1.06857785048505
 6  21.22400333113312  1.76812974927493  1.30741610501050
 1 -3.95894737923792  3.56620214161416  1.38473306020602
 1 -9.90547093979398  3.89989082408241 -0.56518190969097
 1 -10.16076936633663 -2.56527586838684 -0.94609126132613
 1 -2.75647210411041 -1.09285759965997  2.06013670487049
 1 -2.23124672987299  1.58339192179218  1.27613826422642
 1 -2.20507496499650  0.57860831373137  3.68316202970297
 1 -3.18065312531253  2.16800085758576  3.49741190659066
 1 -4.05912935563556  0.48157284128413  3.62334474727473
 1 -2.15872835773577 -1.69273923432343 -0.22511642084208
 1 -2.39182085458546 -0.22253500310031 -0.94651469106911
 1 -0.56071958935894  0.66635124902490  1.02232263136314
 1 -0.28623642564256 -0.89356387158716  1.50131408660866
 1 -5.55544431983198  6.76504514861486  0.56371208040804
 1 -5.98857584698470  5.94842820592059  2.23656995409541
 1 -4.37971192719272  5.77400856725672  1.09785296089609
 1 -9.26408846134614  6.07945409350935 -0.93531375957596
 1 -9.09139035493549  8.11009174807481  0.40573019481948
 1 -7.80272973877388  7.36601300080008  1.83191157665767
 1 -11.99740384548455  3.12759308530853 -2.24840784548455
 1 -13.34939460866087  1.92248613981398 -1.43866505800580
 1 -12.46840857195720  3.02956161086109 -0.52658390239024
 1 -12.39375415381538 -1.70708015311531 -1.26415137003700
 1 -13.23653237213721 -0.12033877067707 -1.72710823832383
 1 -13.13527988058806 -1.73488817501750 -3.62629251375138
 1 -12.18126169036904 -0.41620615821582 -3.86567006270627
 1 -11.40004628392839 -2.06860172727273 -3.51730035003500
 1 -9.18254785778578 -4.94684542744274 -1.84993825792579
 1 -7.98935830063006 -5.77042704690469 -0.73419303230323
 1 -9.73845373027303 -4.79779480078008 -0.18923074567457
 1 -3.30099079497950 -3.59273252395240 -0.12002727422742
 1 -1.63749191569157 -4.66449288898890  3.63021593689369
 1 -2.97191680028003 -5.75709732733273  3.65953879277928
 1 -1.57626573807381 -6.14398367156716  2.44154810771077
 1  2.61368067216722 -1.70223205910591 -1.47957192219222
 1  2.63911138873887  0.02625690529053 -2.06727988018802
 1  3.97385829142914 -1.02163437863786  0.49199241524152
 1  3.97453641714171  1.45745445584559 -2.68531690139014
 1  5.63735914761476  2.12264252315232 -2.15552202040204
 1  5.53051035863586  0.79462056955696 -3.20606933793379
 1  6.58085014791479  1.54510851085108 -0.07495485268527
 1  6.19151327072707 -0.11850988838884  0.78420813751375
 1  7.54217160186019 -1.03716295149515 -1.34962628622862
 1  7.56039847574758  0.92493570167017 -1.72393531713171
 1  9.05936798839884  1.11230911591159  0.44610224242424
 1  8.75888437713771 -0.38451395759576  0.66398426212621
 1  10.38461601300130  0.14020655835584 -1.87467235673567
 1  9.29721470697070 -2.29732770927093 -1.95251117591759
 1  10.86621917761776 -2.10048683258326 -2.13258750265026
 1  10.08980186618662 -2.75367730973097 -0.48168760846085
 1  11.50318799969997  0.77309954015402  0.51472295979598
 1  11.44162721612161 -0.86243220452045  0.98493911551155
 1  12.98651197009701 -1.38810697189719 -1.35420308790879
 1  12.52801655415541  0.48439913091309 -1.59898325962596
 1  14.09140057675767  0.84046660266027  0.63308065106511
 1  14.05036778987899 -0.89970957565757  0.89323584008401
 1  15.35500878937894  0.45281476647665 -1.31685604360436
 1  15.77050449334933 -2.07806809890989 -0.07196865076508
 1  14.86406945764577 -2.04509688528853 -1.63200061516152
 1  16.66980661006101 -1.65127065196520 -1.50907237673767
 1  16.12628782948295  1.38440627432743  0.91660820512051
 1  16.68963341054105 -0.27178635373537  1.38304106530653
 1  18.14900583928393 -0.23638018541854 -0.65984932533253
 1  17.64460152465247  1.34413173207321 -1.10513408920892
 1  18.52285307790779  2.07690184788479  1.18918692399240
 1  18.93396055635564  0.46147032803280  1.67128712901290
 1  20.56522143484348  0.26255240344034 -0.03620655665567
 1  20.07921202780278  3.26957051895190 -0.87828142154215
 1  21.51589584168417  2.32159881268127 -1.20208157145715
 1  20.06751065546555  1.74066587738774 -1.86980394939494
 1  21.14004998019802  1.17693580268027  2.35042465966597
 1  22.42883458975897  1.89316054575458  1.29342430873087
 1  20.88291802170217  2.82712279557956  1.56578701920192
>>>>>>> 8e03b5b5abfc0030b3aa597dc0de36371bfbd096

