%nproc=4
%Mem=2GB
# td=(NStates=1) CAM-B3LYP/6-31G(d,p) 

TD

0 1
12 -7.03360393339334  0.57005575367537  0.07041472887289
 6 -4.84273889188919 -1.95998717711771  0.55080161286129
 6 -4.84002393129313  2.85940438773877  1.16317268216822
 6 -9.38014274977498  3.04305980148015 -0.44102696239624
 6 -9.46464677837784 -1.73303881488149 -0.88967539663966
 7 -5.08519194379438  0.43221303940394  0.50383080138014
 6 -4.36141584768477 -0.73607342934293  0.72554057725773
 6 -2.88755776117612 -0.48151757745775  1.23497385158516
 6 -3.09427286568657  0.98778144644464  1.67595832653265
 6 -4.38053504840484  1.45960670947095  1.08712574247425
 6 -3.02293737583758  1.24855714381438  3.20484189308931
 6 -1.87493095409541 -0.68650391179118  0.05894985328533
 6 -0.44376179877988 -0.47947229442944  0.58156228552855
 6  0.55748688588859 -0.70345385828583 -0.48640402090209
 8  0.27115835593559 -1.03790919851985 -1.72622895459546
 8  1.78318012851285 -0.36862425882588 -0.18084487338734
 7 -7.11958240614061  2.66627221702170  0.38901759725973
 6 -6.04674395339534  3.39471044684468  0.83605713931393
 6 -6.42507976107611  4.87580186958696  0.76208689588959
 6 -7.77267997499750  4.90285091659166  0.35079347064706
 6 -8.16725099669967  3.52687188248825  0.10016256255626
 6 -5.46709466616662  5.87587005290529  1.19394415491549
 6 -8.57355515311531  6.11907294099410  0.09393637903790
 6 -8.60736462776278  7.22430854945495  0.82974922472247
 7 -9.06303857645764  0.67549041014101 -0.49446348004800
 6 -9.88369462916292  1.82009196229623 -0.63951027512751
 6 -11.19914901150115  1.46906524562456 -1.22589430893089
 6 -11.20778318221822  0.14787015111511 -1.30486920092009
 6 -9.88988466916692 -0.39005097939794 -0.95742075817582
 6 -12.30525934963496  2.47177774877488 -1.54561133593359
 6 -12.35291983828383 -0.71705911601160 -1.79005981448145
 6 -12.06879436783678 -1.09114152535254 -3.24169928852885
 7 -7.12948241654165 -1.40920053365337 -0.22206688368837
 6 -8.20306054585459 -2.20634580668067 -0.57924287948795
 6 -7.86426257185719 -3.65297356485649 -0.46084336163616
 6 -6.51098498259826 -3.60336467346735 -0.05530726262626
 6 -6.13881647804780 -2.19082736403640  0.21147395159516
 6 -8.77111457885789 -4.82480532293229 -0.72288076647665
 6 -5.40639510981098 -4.38353223672367  0.25770864346435
 8 -5.16523536143614 -5.58654313771377  0.14013104380438
 6 -4.27095067446745 -3.40947673747375  0.63456332163216
 6 -3.51594222512251 -3.78061328262826  1.97120749364937
 8 -3.86052765336534 -3.27102383858386  3.07205988708871
 8 -2.70560175387539 -4.83443816621662  1.71669024992499
 6 -2.23162375027503 -5.40425465456546  2.91998693419342
 6  2.85270778247825 -0.45983377797780 -1.21642284268427
 6  4.12409449844985 -0.23317149344935 -0.48669881888189
 6  5.09834331873187  0.54925119051905 -0.93236300900090
 6  5.09336775977598  1.32357500680068 -2.23915808110811
 6  6.45860019281928  0.55029687988799 -0.21704819001900
 6  7.55982352025203 -0.13874422132213 -1.00471742224222
 6  8.92836470907091 -0.15873100350035 -0.18919073187319
 6  10.12048267276728 -0.69500657235724 -0.79907087758776
 6  9.95837253745374 -2.22327326342634 -1.11378484348435
 6  11.41987486438644 -0.27153093389339 -0.10145927732773
 6  12.78417332503250 -0.52581663276328 -0.67207723062306
 6  13.92095156355636 -0.19865106790679  0.30975804330433
 6  15.28690481538154 -0.25371910101010 -0.41815005480548
 6  15.72939460836083 -1.71247888168817 -0.85340495819582
 6  16.46960106600660  0.39985434543454  0.43356786398640
 6  17.79578416781678  0.65121652005201 -0.24374018861886
 6  18.86782715221522  1.37188540554055  0.75523595659566
 6  20.25150381958196  1.31186151965197  0.18299306250625
 6  20.23018437223723  2.08802709990999 -1.17797879057906
 6  21.21072200300030  2.07167010331033  1.09248461186119
 1 -3.91140262476248  3.38682420382038  1.48469305620562
 1 -9.96301669436944  3.86869770477048 -0.73147853935394
 1 -10.17527081648165 -2.41270061086109 -1.11070772297230
 1 -2.63185964286429 -1.29777809170917  2.07833852505250
 1 -2.47516112131213  1.79675325792579  1.21105175557556
 1 -1.91807626512651  1.14021447434743  3.59736344984498
 1 -3.24063912391239  2.27161121862186  3.31329349474947
 1 -3.79763320602060  0.87832251625163  3.88707111991199
 1 -2.17263974887489 -1.65416537693769 -0.21588549774977
 1 -1.99063073557356 -0.03082583218322 -0.81239127872787
 1 -0.17045056245625  0.48602321622162  1.12014241334133
 1 -0.33436123812381 -1.20633514871487  1.39448340354035
 1 -5.83854262966297  6.86231487558756  0.94159986918692
 1 -5.13227021642164  5.72540590369037  2.38384468156816
 1 -4.33223717971797  5.74842600900090  0.57629080468047
 1 -9.01870392289229  5.89417556565657 -0.91049127732773
 1 -9.27860907680768  8.11902264116412  0.30112973477348
 1 -8.08607807360736  7.59395579507951  1.77896628212821
 1 -11.93320742584259  3.16859718571857 -2.39556256095610
 1 -13.25961563076308  1.92319621082108 -1.75205639713971
 1 -12.49185091619162  3.21498015271527 -0.63240448444844
 1 -12.36685146354636 -1.61105055015502 -1.22161711661166
 1 -13.28078679757976 -0.02821955875588 -1.50660618811881
 1 -12.98705505810581 -1.80895558175818 -3.38648853335334
 1 -12.00741430563056 -0.21273581118112 -3.97138063376338
 1 -11.08327460676068 -1.36841170827083 -3.35620424042404
 1 -8.82939254225423 -4.90540128302830 -1.87818108220822
 1 -8.30046941174117 -5.92000200440044 -0.20755036803680
 1 -9.73878376327633 -4.52674769606961 -0.28515033763376
 1 -3.27482817871787 -3.47000025072507 -0.17353262476248
 1 -1.88516668316832 -4.63136957665767  3.87055997129713
 1 -2.93288289688969 -6.07512913051305  3.39179201810181
 1 -1.32416052755276 -6.05164443764376  2.58990294319432
 1  2.79745905000500 -1.61110294619462 -1.46737070207021
 1  2.55964344194420  0.36853113271327 -1.92015516771677
 1  4.18921982758276 -0.74351656685668  0.39759297529753
 1  4.19130809430943  1.25854456485649 -2.86903527322732
 1  5.26307171887189  2.31053131203120 -2.01386785498550
 1  5.84888219581958  0.95941704920492 -3.00159889088909
 1  7.04734679757976  1.54652865286529  0.09131177397740
 1  6.25795991539154 -0.07872590999100  0.53884360106011
 1  7.15803318801880 -0.99330856605661 -1.23046437003700
 1  8.06274871077108  0.41421462956296 -1.87425034863486
 1  9.23260531213121  1.01467935293529 -0.20111247904790
 1  8.80278876757676 -0.69258476467647  0.72144000770077
 1  10.20584813621362 -0.01010847314731 -1.81598648814881
 1  9.04962994849485 -2.46518449494949 -1.77224314911491
 1  10.74764732043204 -2.58168495239524 -1.72401664556456
 1  9.89062194819482 -2.74520646264626 -0.26922636233623
 1  11.42440012091209  0.75147737793779  0.16323781128113
 1  11.33961701510151 -0.89448540984098  0.96140676227623
 1  12.83618693759376 -1.57665582678268 -0.83625129272927
 1  12.77902165466547  0.15467615861586 -1.65136849814981
 1  13.75186662336234  0.86114867086709  0.78337568056806
 1  13.85282803590359 -0.63349295399540  1.32862937943794
 1  15.01399468796880  0.31762124712471 -1.29563392139214
 1  15.87676511941194 -2.46287657975798 -0.05010646454645
 1  15.03577662836284 -2.15632800840084 -1.50837825292529
 1  16.62024165356536 -1.65463098799880 -1.55153662316232
 1  15.98685388608861  1.23119095279528  0.87841438573857
 1  16.57210165736574 -0.15389456455646  1.40655341654165
 1  18.07207814651465 -0.43713026042604 -0.40620396079608
 1  17.86058312281228  1.32873019191919 -1.14229780558056
 1  18.45303609620962  2.55292945064506  0.80589859515952
 1  18.93950111041104  0.87980216121612  1.81758175847585
 1  20.65958087078708  0.26057220542054 -0.03776671267127
 1  19.62620672727272  3.10214377627763 -1.26600019341934
 1  21.40378463056306  2.32576922972297 -1.36995835913591
 1  19.73664756915692  1.35069688048805 -1.93387035603560
 1  20.99047502270227  1.59586769586959  2.12925254245425
 1  22.30497220352035  1.88387961766177  0.76188115441544
 1  21.13330306020602  3.27376746004600  0.91922236273627

