%nproc=4
%Mem=3GB
# td=(NStates=1) iop(3/107=0140000000,3/108=0140000000) CAM-B3LYP/6-31G(d,p) 

TD

0 1
12 -7.09433412511251  0.63129151265126 -0.06048967896790
 6 -4.82073088958896 -2.01953918451845  0.46196159855986
 6 -4.78810484108411  2.89493821172117  1.14455456065607
 6 -9.35336210071007  3.05691324432443 -0.52831530683068
 6 -9.48513461146115 -1.72520428612861 -0.75431223612361
 7 -5.10322735393539  0.47108319891989  0.68790661466147
 6 -4.32061430873087 -0.71953309650965  0.74081197589759
 6 -2.94621084168417 -0.39522792079208  1.17310297939794
 6 -3.09147237413741  0.99981868346835  1.69194547384738
 6 -4.44318455315531  1.56881153225323  1.04639903380338
 6 -3.09355553635364  1.11312413171317  3.27149246384638
 6 -1.94370009970997 -0.49958594779478  0.05060887118712
 6 -0.51642735193519 -0.40402365036504  0.55957934023402
 6  0.47406933013301 -0.67784440634063 -0.57076686678668
 8  0.13054327112711 -0.90045382308231 -1.76828422152215
 8  1.70047864626463 -0.39985992439244 -0.18410379797980
 7 -7.09131677507751  2.64890810071007  0.18746967106711
 6 -6.01706184998500  3.37955172257226  0.66096197229723
 6 -6.36750165856586  4.80755761936194  0.75759401810181
 6 -7.67546233153315  4.81913371857186  0.34443056945695
 6 -8.12561208870887  3.51870880968097  0.01204920352035
 6 -5.55084711861186  5.87618709240924  1.20549070427043
 6 -8.45107511551155  6.02513278287829  0.21774238673867
 6 -8.40640905090509  7.27168631833183  0.75619967926793
 7 -9.02226126722672  0.69716671107111 -0.64122069596960
 6 -9.79717720402040  1.77226055035504 -0.67758057155716
 6 -11.20382433513351  1.46818626312631 -1.04987984768477
 6 -11.23854334153415  0.09823736953695 -1.15665569386939
 6 -9.89811741534153 -0.42977317071707 -0.81598379967997
 6 -12.33479441714172  2.42630787218722 -1.26071552425242
 6 -12.41797559045905 -0.75324144794479 -1.50417974857486
 6 -12.49251116001600 -1.03681387368737 -3.04219487068707
 7 -7.12385534793479 -1.42150698639864 -0.18467114221422
 6 -8.26839116541654 -2.22043058855886 -0.44633621352135
 6 -7.79063110291029 -3.54970552195220 -0.59039933973397
 6 -6.48151594209421 -3.60897387948795 -0.11423350505050
 6 -6.18397212891289 -2.25417337313731  0.10097193259326
 6 -8.62815515501550 -4.81183728212821 -0.73746712981298
 6 -5.26620208310831 -4.40881444484448  0.18036301040104
 8 -5.16661765406541 -5.61317817481748  0.22610855945595
 6 -4.11600610321032 -3.37272471987199  0.54127244884488
 6 -3.43503768056806 -3.70509845254525  1.90360632913291
 8 -3.71861464486449 -3.06659401730173  2.88321167936794
 8 -2.70992634543454 -4.70778939743974  1.75768480598060
 6 -2.10917987498750 -5.20422562846285  2.95548294869487
 6  2.76043236363636 -0.43758204710471 -1.19260277747775
 6  4.07924881008101 -0.48308357625763 -0.53207577037704
 6  5.13017850915092  0.34768129612961 -0.95446832383238
 6  5.10270399599960  1.23052072737274 -2.21392552755276
 6  6.43548982768277  0.41491210721072 -0.26359688408841
 6  7.58693014561456 -0.18093664166417 -1.06788711741174
 6  8.97962567416742 -0.08193000910091 -0.27822392479248
 6  10.18395385598560 -0.54470613381338 -0.87451317131713
 6  10.16871014761476 -2.05066294619462 -1.47650461646165
 6  11.43231789558956 -0.33470836193619 -0.08592655515552
 6  12.79180691619162 -0.49456949044904 -0.72999050415041
 6  13.93748502030203 -0.11370708500850  0.16339275087509
 6  15.36763275427543 -0.28825790939094 -0.53539919241924
 6  15.65089136013601 -1.71031942024202 -0.87257908420842
 6  16.38465545824582  0.22048856615662  0.47599233393339
 6  17.86437402510251  0.53199692929293 -0.12691921892189
 6  18.71839225782578  1.29298737723772  0.77248050475048
 6  20.16983978837884  1.31207063956396  0.32299900590059
 6  20.49949279507951  2.08079538463846 -0.94444914081408
 6  20.98674374137414  1.91727342724272  1.47498143814381
 1 -4.23944430793079  3.69600285168517  1.76214231003100
 1 -10.34453657695770  3.71935420992099 -0.56116064226423
 1 -10.43632805690569 -2.41345688078808 -0.89446726612661
 1 -2.70246753395340 -1.08354855755576  2.12029852055206
 1 -2.14963843014301  1.56249831093109  1.30862451145114
 1 -2.01842492889289  0.63540264666467  3.60046038343834
 1 -2.99664677377738  2.06485570837084  3.70028805100510
 1 -3.95543834433443  0.58968412271227  3.55949763496350
 1 -1.83999911891189 -1.49195986678668 -0.41806981408141
 1 -2.09273564256426  0.20284790459046 -0.83416015061506
 1 -0.33629905860586  0.59965955325533  0.90893475647565
 1 -0.27172559285929 -1.08200896749675  1.52606606490649
 1 -5.79248342604260  7.03117062906291  0.87042687398740
 1 -5.80750222152215  5.97724060546055  2.28265027752775
 1 -4.41094593919392  5.62631689968997  1.20916164876488
 1 -9.38042830263026  5.87624100610061 -0.24862621532153
 1 -9.22364142784278  7.88493821482148  0.70146992269227
 1 -7.46654458655866  7.77409424582458  1.24324328462846
 1 -12.22662313531353  3.25650479757976 -2.11757758925893
 1 -13.11252855055506  1.79999874227423 -1.71876760496050
 1 -12.78131916461646  2.90683801790179 -0.34172461196120
 1 -12.53598556345634 -1.64923584638464 -0.86641014191419
 1 -13.60718301740174 -0.34726743724372 -1.33242899729973
 1 -13.40972617181718 -1.77740140224022 -3.34926588468847
 1 -12.42071247694769  0.02167369606961 -3.46515549394939
 1 -11.73042788218822 -1.73130415761576 -3.47445572377238
 1 -8.81366598519852 -4.90380688148815 -1.79292535553555
 1 -8.03728811401140 -5.68641459475948 -0.54856481158116
 1 -9.53430760976098 -4.65278372677268 -0.08769103780378
 1 -3.37333485198520 -3.31262786838684 -0.38933667176718
 1 -1.38522190979098 -4.52578479187919  3.43850556815682
 1 -2.67916435373537 -5.60858038293829  3.72799383708371
 1 -1.55375589608961 -6.17157794259426  2.69078243934393
 1  2.52896095089509 -1.39419604240424 -1.69298074677468
 1  2.45486192749275  0.32181026582658 -2.13502455995600
 1  4.14282476917692 -1.06275468926893  0.25113651385139
 1  4.08338364986499  1.43468901160116 -2.50336082178218
 1  5.75194212641264  2.25089551345134 -2.24754219261926
 1  5.69037860636064  0.62622381328133 -3.01971822872287
 1  7.00831901580158  1.28949893049305 -0.00057044314431
 1  6.20844871697170  0.07693035633563  0.69068526402640
 1  7.33182530533053 -1.30252092509251 -1.61161591879188
 1  7.85503806230623  0.66034513751375 -1.76903772667267
 1  8.74079012331233  0.95908540604060  0.16141856995700
 1  8.87607072787279 -0.68511686438644  0.68016413981398
 1  10.32890752255226  0.28188433623362 -1.78218337633763
 1  9.33140274937494 -2.22756103960396 -2.18272665456546
 1  11.15192433303330 -2.22209560886089 -1.96053141124112
 1  10.00061225832583 -2.77589170387039 -0.72918031173117
 1  11.25635727732773  0.76672310571057  0.30725849664967
 1  11.41160875637564 -1.13662496009601  0.80743706380638
 1  12.91527948044805 -1.57740515981598 -0.89849212071207
 1  12.70475630553055  0.05609054505451 -1.68620295399540
 1  13.86196761706171  0.92020738403840  0.58218304700470
 1  13.95712402300230 -0.89499587848785  0.94267664166417
 1  15.63522392379238  0.31039443644364 -1.48475974477448
 1  15.58549234603460 -2.54076341754176 -0.09647778327833
 1  15.12037368176818 -1.95764028402840 -1.67801917541754
 1  16.64935321492149 -1.72727362436244 -1.35369188248825
 1  15.78525179867987  1.12598093179318  0.90422633893389
 1  16.57891196899690 -0.59068535333533  1.19504799949995
 1  18.29037577527753 -0.42548906290629 -0.44211440704070
 1  17.62420973057306  1.05319421352135 -1.04252999659966
 1  18.34866392329233  2.27774904290429  0.86527847464747
 1  18.75849181168117  0.89900473997400  1.62340558605861
 1  20.55456528882888  0.28920991859186  0.30479637183718
 1  19.91962878137814  3.08821959845985 -0.84222640734073
 1  21.41995579637964  2.29626076817682 -1.19896787798780
 1  19.86265466306631  1.57799809000900 -1.71939032343234
 1  20.78471232473247  1.53653929482948  2.60315398419842
 1  22.11107900070007  1.88755922662266  1.37080373397340
 1  20.44319439793979  3.08766488368837  1.52309944664466

