%nproc=4
%Mem=3GB
# td=(NStates=1) iop(3/107=0140000000,3/108=0140000000) CAM-B3LYP/6-31G(d,p) 

TD

0 1
12 -7.16529122082208  0.62101048454845  0.07267363736374
 6 -4.84493330983098 -1.91219845044504  0.47558296069607
 6 -4.77072310291029  2.86328504640464  1.20832093729373
 6 -9.42172893739374  3.13076062906291 -0.43204567986799
 6 -9.52475857385739 -1.70225199089909 -0.85736254115412
 7 -5.12645967716772  0.39059515011501  0.77842566656666
 6 -4.38868111541154 -0.71840298349835  0.79576747144714
 6 -3.02715893649365 -0.40420881888189  1.26982265136514
 6 -3.00851407830783  1.07132583418342  1.85157143644364
 6 -4.35050528522852  1.46860151125113  1.26558095199520
 6 -3.16537271807181  1.17342016131613  3.36154146874687
 6 -1.99963569326933 -0.53110910011001  0.05910972127213
 6 -0.44580028922892 -0.37842109010901  0.54502788508851
 6  0.47002892609261 -0.69613623552355 -0.55501529162916
 8  0.06864708150815 -1.05181895959596 -1.65108250135014
 8  1.75211380978098 -0.48501844024402 -0.29111449904990
 7 -7.03772141554155  2.58955216511651  0.37504842894289
 6 -6.03545368916892  3.38578234563456  0.86351222732273
 6 -6.33978888728873  4.78501536513651  0.76676493519352
 6 -7.67121190649065  4.89053085828583  0.35928205460546
 6 -8.14643417091709  3.42718965776578 -0.02183418481848
 6 -5.46502853675368  5.81021049474947  1.17492764796480
 6 -8.52016202420242  6.08541881148115  0.14072468496850
 6 -8.33937234723472  7.26908605830583  0.66110016931693
 7 -9.08921796289629  0.64422141654165 -0.59161573547355
 6 -9.85498298459846  1.78020134443444 -0.65374818831883
 6 -11.18068202090209  1.54233367786779 -1.11229608930893
 6 -11.25270475767577  0.21448899469947 -1.33816384468447
 6 -9.92497010061006 -0.37839803320332 -0.94841704300430
 6 -12.24553549124913  2.62044728612861 -1.33159261196120
 6 -12.40464425732573 -0.72508863266327 -1.71044037463746
 6 -12.17459936883688 -1.12472266456646 -3.24712536373637
 7 -7.26635959835984 -1.34219905560556 -0.11454412951295
 6 -8.30978530483048 -2.24077262276228 -0.47898947884788
 6 -7.81877391719172 -3.58784933633363 -0.51658195799580
 6 -6.48451624212421 -3.51043402550255 -0.09735181688169
 6 -6.23008674037404 -2.10699865566557  0.07583941934193
 6 -8.68745108460846 -4.79637573597360 -0.71889527262726
 6 -5.29894535743574 -4.32628619201920  0.15392036613661
 8 -5.14180517281728 -5.54032088908891  0.25677162576258
 6 -4.13935843844384 -3.32721016841684  0.53389171077108
 6 -3.54422859965997 -3.74747268996900  1.90042601110111
 8 -3.87212999639964 -3.24284164206421  2.99940329852985
 8 -2.63457881068107 -4.67501612011201  1.81033007050705
 6 -2.11335029202920 -5.32663786968697  3.03173057345735
 6  2.86444276467647 -0.70405869476948 -1.22861637883788
 6  4.14496538173817 -0.42155742364236 -0.60101266406641
 6  5.11932742404240  0.31568809680968 -1.07619049604960
 6  4.99129285488549  0.96732440774077 -2.35581971697170
 6  6.44604088278828  0.48555917191719 -0.40083060746075
 6  7.64073552615262 -0.20439898789879 -1.13742407110711
 6  8.84637234883488 -0.18589040514051 -0.29934603700370
 6  10.22277773837384 -0.57082874607461 -1.03213893389339
 6  10.23683696029603 -1.88552643254325 -1.67009397539754
 6  11.45097976177618 -0.29981487258726 -0.09952791529153
 6  12.83785152065207 -0.57895792929293 -0.65147265236524
 6  13.94180545234523 -0.18345405970597  0.26764317591759
 6  15.41543753475348 -0.23445252885289 -0.34987063956396
 6  15.73619989098910 -1.69767815611561 -0.90073189948995
 6  16.52032902560256  0.28867538483848  0.50177491219122
 6  17.89158674637464  0.43582731233123 -0.10326685368537
 6  18.71952237083708  1.24798287678768  0.79667292399240
 6  20.18951175557556  1.42554198669867  0.26133283928393
 6  20.32101494729473  2.26295360046005 -0.89237393329333
 6  20.99515458245824  2.03750545044504  1.40765470547055
 1 -4.00620098359836  3.41172442384238  1.67598369416942
 1 -10.17280940424043  3.92713498799880 -0.73007753395340
 1 -10.23908833293329 -2.52285782088209 -1.14845266466647
 1 -2.66546383358336 -0.99515971867187  2.15095158585859
 1 -2.17708117441744  1.70980304140414  1.54156780578058
 1 -2.09187227362736  1.05861496789679  3.97899823722372
 1 -3.47119422852285  2.22573179597960  3.64564258645865
 1 -3.76564936543654  0.38178333263326  3.69222090729073
 1 -2.22710782978298 -1.49817048784879 -0.44476248334833
 1 -2.24621099009901  0.03046066586659 -0.64328106270627
 1 -0.39915534423442  0.51706129342934  0.84681854485449
 1 -0.28582700300030 -0.98863963056306  1.38911236953695
 1 -5.52628680638064  6.71354886688669  0.77735756705671
 1 -5.60137160846085  6.13636651805181  2.22850486298630
 1 -4.42003684828483  5.61601586958696  1.03269400200020
 1 -9.18854911471147  5.77061044304430 -0.68968032073207
 1 -9.13108217191719  8.00373009400940  0.36918669436944
 1 -7.84609254135414  7.44495133153315  1.60286924722472
 1 -11.91656212921292  3.33804295139514 -2.14665049654965
 1 -13.08271556925692  2.30362910531053 -1.69600532873287
 1 -12.58333936663666  3.35850318441844 -0.40515095459546
 1 -12.58216018091809 -1.71799272207221 -1.15850935183518
 1 -13.27737003610361 -0.18861157165717 -1.61614736913691
 1 -12.86158135733574 -1.73570723282328 -3.77811876997700
 1 -12.20036044174417 -0.24942341364136 -3.78922790119012
 1 -11.21686652605260 -1.50037106430643 -3.41448972717272
 1 -8.87650226882688 -5.04205070587059 -1.83571963496350
 1 -8.09317370257026 -5.73740969426943 -0.33248320342034
 1 -9.65003918291829 -4.87482593099310 -0.25416768546855
 1 -3.37522504100410 -3.46915352095210 -0.36425416351635
 1 -1.47766115371537 -4.67481969536954  3.70314203180318
 1 -2.94489092639264 -5.82969249414941  3.36289732743274
 1 -1.36892741324132 -6.04125491029103  2.66564992609261
 1  2.86015407020702 -1.77544416721672 -1.63843529222922
 1  2.59251569286929 -0.01862377757776 -2.04393545104510
 1  4.06930741744174 -0.80532894669467  0.50714211441144
 1  4.08173348484848  1.11527707040704 -2.98177866356636
 1  5.12934986718672  2.16721714561456 -2.29149658805881
 1  5.82770233873387  0.65555674657466 -3.09209546644664
 1  6.72761094499450  1.61277125772577 -0.35017540364036
 1  6.41995986808681  0.09719238253825  0.54698089358936
 1  7.53740586338634 -1.29714038703870 -1.37246200340034
 1  7.95739829832983  0.13094219721972 -2.07994881778178
 1  8.95798184248425  0.79148864636464  0.18354078217822
 1  8.57898101890189 -0.93912226492649  0.49038516191619
 1  10.37883251505151  0.22132828062806 -1.92604776277628
 1  9.48592820192019 -2.07502578607861 -2.37870625252525
 1  11.14200334093409 -2.23603700300030 -2.15226058415842
 1  10.08182037913791 -2.66728084278428 -0.86642403610361
 1  11.34214585618562  0.77404383778378 -0.02207443664366
 1  11.38251584708471 -0.82279357695770  0.94724104420442
 1  12.87432538503850 -1.52761018031803 -0.78380065156516
 1  12.91915774567457  0.02493742974297 -1.70279461316132
 1  13.86735815611561  0.78721408470847  0.74054888358836
 1  14.09665797639764 -1.00561694059406  1.13511588558856
 1  15.44849525092509  0.38915231223122 -1.42941421022102
 1  16.16306010281028 -2.40433977517752 -0.05893402890289
 1  14.98389003340334 -2.04576909690969 -1.40235160866087
 1  16.65055333493349 -1.41681257825783 -1.44944145744575
 1  16.28722199569957  1.26277461116112  0.92563848014801
 1  16.64272835063506 -0.42851913671367  1.50769926462646
 1  18.19462620032003 -0.63714022802280 -0.37823801940194
 1  17.68685599519952  0.90666956105611 -1.16485222882288
 1  18.23321237813781  2.40381164916492  0.71056300310031
 1  18.74742070457046  0.97027186668667  1.99694293979398
 1  20.61762159445945  0.41796279387939 -0.05236934473447
 1  19.97992481098110  3.47367814431443 -0.85762794749475
 1  21.39443324412441  2.05789693179318 -1.32744072527253
 1  19.56139453705370  1.93244353455346 -1.74935331973197
 1  20.86646049954996  1.43737937883788  2.31019468826883
 1  22.23295118791879  1.97390786148615  1.15072172577258
 1  20.51230130863086  3.26586270347035  1.67930506720672

