%nproc=4
%Mem=2GB
# td=(NStates=1) CAM-B3LYP/6-31G(d,p) 

TD

0 1
12 -7.17474804780478  0.59636838493849  0.20872856025603
 6 -4.84516913491349 -2.02602378077808  0.48958549124913
 6 -4.82186211511151  2.85996444374437  1.16480284518452
 6 -9.34102883838384  3.05425092059206 -0.46637949764977
 6 -9.45544585828583 -1.65238074907491 -0.84974140324032
 7 -5.05893931853185  0.40005982408241  0.69737015531553
 6 -4.33698340444044 -0.72464228622862  0.83003102630263
 6 -2.92147115251525 -0.43976340204020  1.32781313551355
 6 -3.02362580098010  1.05977864616462  1.65740647134713
 6 -4.35234222912291  1.49912066086609  1.21338836873687
 6 -2.87382246434643  1.37513980208021  3.16583799269927
 6 -1.95133859485949 -0.58451371277128  0.10255421372137
 6 -0.50468789138914 -0.52836718391839  0.59671380068007
 6  0.42116325352535 -0.72973648654865 -0.46354173467347
 8  0.22538377847785 -0.77227263486349 -1.69467579927993
 8  1.77103891439144 -0.56592398879888 -0.06590337923792
 7 -7.08532898079808  2.63708929872987  0.22725142064206
 6 -5.98857813681368  3.35171614741474  0.68146167976798
 6 -6.37739499259926  4.80797508690869  0.75879656685669
 6 -7.65390809780978  4.78822945444544  0.30170856215622
 6 -8.02371664326433  3.47809700500050 -0.13178063176318
 6 -5.51869982668267  5.91816428232823  1.19720448094809
 6 -8.51831962956295  5.96314734843484 -0.01342435703570
 6 -8.39854374567457  7.19567568616862  0.71493774357436
 7 -9.09727199979998  0.64524738583858 -0.54213824752475
 6 -9.82665892559256  1.77133708680868 -0.70025634973497
 6 -11.18281737833783  1.49372771187119 -1.16942866236624
 6 -11.21910431433143  0.10596596069607 -1.27936665066507
 6 -9.93289897059706 -0.37491946624662 -0.83245826192619
 6 -12.23242206590659  2.47676824782478 -1.33286006080608
 6 -12.43323787008701 -0.71570898099810 -1.63430423892389
 6 -12.43397088548855 -1.07533994519452 -3.07141225982598
 7 -7.16625609390939 -1.35929554315432 -0.24438911591159
 6 -8.18261850165016 -2.19676484858486 -0.65936089128913
 6 -7.83160930653065 -3.57904617211721 -0.51119839713971
 6 -6.52295617971797 -3.59235357235724 -0.11656338823882
 6 -6.19077167356736 -2.21830011131113  0.07609041324132
 6 -8.51464893229323 -4.84411725412541 -0.92694117251725
 6 -5.30774524482448 -4.37001088458846  0.26253912651265
 8 -5.11940077797780 -5.56989147254725  0.21984901560156
 6 -4.15742932233223 -3.36648243804380  0.44570443574357
 6 -3.56347697859786 -3.70489571087109  1.85138551145115
 8 -3.63134473507351 -3.19851658785879  2.91785446654665
 8 -2.72294348804880 -4.74309903230323  1.75416399729973
 6 -2.17619820772077 -5.13653788288829  3.08552348784878
 6  2.70533304500450 -0.67562535713571 -1.16632783318332
 6  4.10608269726973 -0.45526370267027 -0.48737888688869
 6  5.12951643604360  0.27282354775478 -1.05472524522452
 6  5.06856527952795  1.09230187948795 -2.32020618591859
 6  6.40362469526953  0.43072492269227 -0.22619910511051
 6  7.58690622852285 -0.09055940284028 -0.99220617111711
 6  8.83531540414041 -0.16554168456846 -0.14721653445345
 6  10.16605723022302 -0.55626269796980 -0.92017298779878
 6  10.11376807700770 -2.03198413451345 -1.43480694569457
 6  11.32305518241824 -0.27431121192119  0.06456732533253
 6  12.68772368006801 -0.43647769886989 -0.63286330923092
 6  13.84360382878288 -0.08330953375338  0.20316738423842
 6  15.28998512341234 -0.12633636273627 -0.39877811761176
 6  15.62401407030703 -1.45721335513551 -1.06147576527653
 6  16.37907201310131  0.26117047704770  0.50984549174917
 6  17.72059664906491  0.49014041244124 -0.10809662426243
 6  18.81510187968797  1.33271148814881  0.72329276227623
 6  20.18423709290929  1.34597493099310  0.19704446764676
 6  20.28335968976898  2.22149044624462 -1.03133412611261
 6  21.23924485528553  1.86035897219722  1.27519288268827
 1 -4.20861234573457  3.53061858325833  1.57364195109511
 1 -10.14312470517052  4.01624245924592 -0.61053644514451
 1 -10.20924421382138 -2.53124246504650 -1.01860851305131
 1 -2.64790124702470 -1.13800211411141  2.26691738293829
 1 -2.20731433663366  1.63772735533553  1.18683933433343
 1 -1.74464892239224  1.27843829672967  3.43477719121912
 1 -3.08468352835284  2.42471652915292  3.47480964636464
 1 -3.57413085578558  0.57981266526653  3.58544095689569
 1 -1.98538102300230 -1.52745270567057 -0.53146705590559
 1 -2.07301897439744  0.37671492189219 -0.55369540914091
 1 -0.22827634503450  0.53065767966797  0.88109850895090
 1 -0.26792459445945 -1.33206772197220  1.55971992719272
 1 -5.71742051745175  6.87381602570257  0.57775348454846
 1 -5.71159814921492  6.13652701580158  2.24070036713671
 1 -4.26784074007401  5.82239340574057  1.14741791739174
 1 -9.30634268676868  6.04632078017802 -0.72608283648365
 1 -9.01683289918992  7.87200793969397  0.35266488828883
 1 -7.89596906270627  7.51412781228123  1.50184857035704
 1 -12.00832493759376  3.22396272227223 -2.18624162886289
 1 -13.12808247744774  1.93645753695370 -1.58004919641964
 1 -12.58601033213322  3.06257491219122 -0.54144538853885
 1 -12.21132591099110 -1.76397584268427 -1.11626658155816
 1 -13.38521724062406 -0.34384112091209 -1.37189271677168
 1 -13.30432678527853 -1.49210389658966 -3.28477836233623
 1 -12.50910447464747 -0.27917245484548 -3.71893538923892
 1 -11.41591787108711 -1.47530239733973 -3.17396601660166
 1 -8.70742034503450 -4.90836157905791 -1.92726599069907
 1 -7.93483284808481 -5.55117512171217 -0.69614922792279
 1 -9.45509539443944 -5.07545256655666 -0.39997181978198
 1 -3.47045774167417 -3.68652190289029 -0.28421369286929
 1 -1.82369053555356 -4.38568500820082  3.54597751305130
 1 -3.03398300690069 -5.50940255785579  3.64989782868287
 1 -1.41064917641764 -5.96076534973497  2.66564051695170
 1  2.40987029112911 -1.58702053795380 -1.26172013701370
 1  2.51196867446745  0.11066534613461 -1.99314246644664
 1  4.02060296589659 -1.05247746294629  0.62111532753275
 1  4.16882584608461  0.92511122152215 -2.72712108180818
 1  5.32113752545254  2.12631289018902 -2.08388485668567
 1  5.83319062666267  0.63642474997500 -3.08283701470147
 1  6.50065212811281  1.65049904990499 -0.07987534473447
 1  6.36432055145515 -0.01770980838084  0.73765348204820
 1  7.18435582028203 -1.19293852905291 -1.44512583618362
 1  7.97863029892989  0.37360056815682 -1.95342826642664
 1  8.82624467606761  1.02720060506051  0.35661329352935
 1  8.85345383408341 -0.86906241244124  0.63684154785479
 1  10.26522407380738 -0.01492895519552 -1.93202809230923
 1  9.25385037053705 -2.12810078657866 -2.10494641944194
 1  10.87971052675267 -2.40288707260726 -2.02118636253625
 1  9.99183206920692 -2.56070801280128 -0.60008944864486
 1  11.12536021692169  0.84313654385439  0.29076056355636
 1  11.13903695709571 -0.96023198449845  0.97058768036804
 1  12.76734005290529 -1.47686584778478 -0.84828249584958
 1  12.83322707520752  0.03339403040304 -1.80640400170017
 1  13.58967040374037  0.90707326332633  0.58880622362236
 1  13.83518627172717 -0.89144874957496  0.97139365586559
 1  15.10527381588159  0.50489997499750 -1.35939029702970
 1  15.51820926382638 -2.16456674877488 -0.32846430033003
 1  15.04973802450245 -1.81686406200620 -1.97822523762376
 1  16.65024465386539 -1.56760228512851 -1.44754622412241
 1  16.19844504520452  1.30449828352835  1.04086063036304
 1  16.47105155235523 -0.57140631573157  1.12556531773177
 1  18.37712865156516 -0.50149669706971 -0.13322666306631
 1  17.63155021952196  0.87510482938294 -1.06945052085209
 1  18.42119291189119  2.56684084178418  0.94770277557756
 1  18.66808396869687  0.88966314731473  1.73064306460646
 1  20.48828374107411  0.25810195839584  0.00511757575758
 1  20.12185629222922  3.37204076597660 -0.78515210861086
 1  21.31421567366737  2.45626227902790 -1.39562092539254
 1  19.80212411681168  1.92298410921092 -1.95099206820682
 1  21.44958093329333  1.19083719281928  2.16667628482848
 1  22.21938364466446  1.99906113581358  0.82241720802080
 1  20.93052278217822  2.95311539483948  1.62413285378538

