%nproc=4
%Mem=3GB
# td=(NStates=1) iop(3/107=0140000000,3/108=0140000000) CAM-B3LYP/6-31G(d,p) 

TD

0 1
12 -7.15837052875287  0.60307869136914  0.13137950795079
 6 -4.82310112661266 -1.99234646524652  0.51360676307631
 6 -4.78492452305231  2.83343206110611  1.04075418061806
 6 -9.41395816031603  3.11276882988299 -0.21227370267027
 6 -9.62170826882688 -1.81769353505351 -0.92242904780478
 7 -5.14119115031503  0.43513960456046  0.68548637263726
 6 -4.37425967326733 -0.71521266446645  0.69007690239024
 6 -2.93460968156816 -0.40762916091609  1.29123479257926
 6 -2.96447967486749  1.09860856245625  1.75414169346935
 6 -4.36422665736574  1.43751840294029  1.18858325222522
 6 -2.95037121792179  1.22123494279428  3.26875218981898
 6 -1.89877560726073 -0.50479646884688  0.11719552985299
 6 -0.36839254845485 -0.32627587558756  0.53339672197220
 6  0.53619554275428 -0.51518814071407 -0.60955074517452
 8  0.31172138893889 -0.86274005170517 -1.71948934203420
 8  1.76397499589959 -0.28648858725873 -0.22407779537954
 7 -7.10285792919292  2.57514072397240  0.37586851095110
 6 -5.99892003580358  3.39815358275828  0.73405928202820
 6 -6.34662957135714  4.83394025762576  0.63422168086809
 6 -7.74593937923792  4.83475528072807  0.35560168656866
 6 -8.08258778627863  3.43659059785979  0.20792879147915
 6 -5.39046108000800  5.97465693939394  1.03842399759976
 6 -8.58310831883188  6.00239050865086  0.00675128762876
 6 -8.59255766576658  7.19407855755576  0.61583564286429
 7 -9.18120716181618  0.71595859025903 -0.41253782768277
 6 -9.90042752905291  1.86151947624762 -0.65526834033403
 6 -11.13753770647065  1.54665410991099 -1.06657151685169
 6 -11.22921240844084  0.16110365616562 -1.18589861816182
 6 -9.97864546814681 -0.42742293569357 -0.78874107540754
 6 -12.16410734843484  2.54723996539654 -1.45014446714671
 6 -12.38644243714371 -0.71834795859586 -1.61115044564456
 6 -12.24961687058706 -1.07887808010801 -3.13399405060506
 7 -7.21367432983298 -1.36579141484148 -0.26823949904990
 6 -8.30737506380638 -2.22559110461046 -0.54871645154515
 6 -7.85265730553055 -3.68843939533953 -0.54896519631963
 6 -6.52752054255426 -3.59924290639064 -0.14520660236024
 6 -6.13564729642964 -2.23133108890889 -0.00147831243124
 6 -8.71683402290229 -4.76031212961296 -0.81284466756676
 6 -5.32655811871187 -4.45684924832483  0.25406038013801
 8 -5.13179417171717 -5.52632948994899  0.21985793439344
 6 -4.16095059765977 -3.33815126252625  0.55036335793579
 6 -3.40667484428443 -3.74479242194219  1.88300426892689
 8 -3.74419720312031 -3.31061841974197  2.94309766796680
 8 -2.62699805260526 -4.74264288278828  1.64125316281628
 6 -2.09751870887089 -5.32565777167717  2.81557895829583
 6  2.79174549494949 -0.64386267516752 -1.19153267046705
 6  4.05036592179218 -0.32267753565357 -0.53355591839184
 6  5.10955644694469  0.39256578457846 -0.98511138813881
 6  5.14131785738574  1.25018269356936 -2.27901203620362
 6  6.48312459115912  0.45027564356436 -0.23101362576258
 6  7.57279873247325 -0.11465001300130 -0.99324965366537
 6  8.93578128972897 -0.06321813791379 -0.15758186058606
 6  10.20071553215322 -0.56485814901490 -0.87522324232423
 6  10.08658193479348 -1.94315219511951 -1.26504347034703
 6  11.39266393019302 -0.49895478657866 -0.00436839933993
 6  12.76137387288729 -0.65622565606561 -0.70053755885589
 6  13.92477374917492 -0.27233294759476  0.30625703730373
 6  15.29212520352035 -0.31810089368937 -0.42617827032703
 6  15.68213448444845 -1.65453384168417 -0.78420024632463
 6  16.33345033773377  0.35733225052505  0.48090282498250
 6  17.77577516521652  0.45928965856586 -0.16219274627463
 6  18.70048046664666  1.20149822832283  0.73729698639864
 6  20.15398820322032  1.32554198669867  0.22436914291429
 6  20.13140598639864  2.23136044114411 -1.02430712661266
 6  21.17507257425742  2.01847354725473  1.12602654265427
 1 -4.03993435693569  3.53261651305130  1.45059115491549
 1 -9.87080920422042  4.15629790429043 -0.38840336653665
 1 -10.26608103220322 -2.59719525462546 -1.15450326972697
 1 -2.84993228042804 -1.35921612431243  2.02290878157816
 1 -2.04407787408741  1.51168322942294  1.30544419341934
 1 -2.10839392579258  0.83052215861586  3.57352769016902
 1 -3.03443055215522  2.25360458325833  3.62675069726973
 1 -3.72164496499650  0.56950210451045  3.85275696089609
 1 -2.01020613961396 -1.30542121292129 -0.48658666576658
 1 -1.95176154515452  0.41176879667967 -0.82304903950395
 1 -0.26002143084308  0.72356194349435  0.89701356435644
 1 -0.07594601490149 -0.89356012261226  1.22566602490249
 1 -5.60905508320832  6.89328684068407  0.46896672797280
 1 -5.52292376367637  6.07022990439044  1.99701171367137
 1 -4.29678452305231  5.55830009800980  0.82520325292529
 1 -9.41866212601260  5.76796017801780 -0.88167952065206
 1 -9.36443550725073  7.93548326932693  0.14918469416942
 1 -8.05429336143614  7.59346618301830  1.57822678297830
 1 -11.81583205620562  3.19050819791979 -2.25499133063306
 1 -13.19712701040104  2.36757549995000 -1.65684141234123
 1 -12.20928196089609  3.27442477657766 -0.52309274877488
 1 -12.55445741064106 -1.77343826662666 -1.07581108200820
 1 -13.32023432253225 -0.30589329982998 -1.49052480688069
 1 -13.08314351355136 -1.86219988208821 -3.44257521562156
 1 -12.13350375607561 -0.02779125042504 -3.59261824022402
 1 -11.29169400880088 -1.57460848804880 -3.46491476967697
 1 -9.05254987358736 -4.74077057785779 -1.84029009200920
 1 -8.37859224442444 -5.70677663096310 -0.70610056515652
 1 -9.78379255825583 -4.86212466086609 -0.04653692239224
 1 -3.43733125162516 -3.42806941254125 -0.24905264336434
 1 -1.59337272487249 -4.61449366276628  3.46081779937994
 1 -3.03133957125713 -5.67946747164716  3.47753879157916
 1 -1.70120064056406 -6.27793857865787  2.47664102520252
 1  2.52291034583458 -1.75611223402340 -1.43725517421742
 1  2.39707614891489 -0.18233014821482 -1.96333739123912
 1  4.19553003970397 -0.77570598439844  0.34011541174117
 1  4.28194350585059  1.26129167186719 -2.81093157885789
 1  5.45188212041204  2.29519994389439 -1.98113555195520
 1  5.57554712321232  0.64637582848285 -3.16351260816082
 1  6.85750393429343  1.49837981858186  0.13183279717972
 1  6.47925579767977 -0.01566890359036  0.75385158065807
 1  7.14638676147615 -1.28166883988399 -1.08826358355836
 1  7.76211877037704  0.35305440844084 -2.10184100700070
 1  9.27207325162516  0.86563606110611  0.32324475257526
 1  8.79931305210521 -0.73852220492049  0.68466458985899
 1  10.43734836663666  0.01819796759676 -1.79081423942394
 1  9.32058166726673 -2.06422470597060 -1.96874525642564
 1  11.02026116671667 -2.37864126342634 -1.90855621372137
 1  10.09683188028803 -2.68533264796480 -0.60647804150415
 1  11.24713635523552  0.42328876227623  0.70285805660566
 1  11.36150374587459 -1.39392068966897  0.82465878597860
 1  13.06136408890889 -1.64209162846285 -1.01273354485449
 1  12.85828165806581  0.13988892489249 -1.47491182488249
 1  13.73843526382638  0.81367673097310  0.70986581528153
 1  13.97713602420242 -0.93653003190319  1.08581095509551
 1  15.20499090049005  0.40433383038304 -1.38840010881088
 1  15.74345814261426 -2.39256859805981  0.03807567206721
 1  14.97305895029503 -2.44556907690769 -1.27637901140114
 1  16.60564884448445 -1.79407030403040 -1.39077559085909
 1  16.12509578307831  1.34164249794979  0.74133004930493
 1  16.35877995579558 -0.33985026982698  1.34723321802180
 1  18.28801553925393 -0.48190470447045 -0.44485468106811
 1  17.95680298989899  1.07968686278628 -1.09569531313131
 1  18.30255931283128  2.10702197019702  1.16724867166717
 1  18.73444940744075  0.33374821432143  1.70693393889389
 1  20.59768960126013  0.40564156175618 -0.14221832963296
 1  19.85431224972497  3.21152192869287 -0.56663884858486
 1  21.06396019681968  2.37109825192519 -1.33100108130813
 1  19.46345474307431  1.98117840804080 -1.91082946734673
 1  21.20114396789679  1.39527516841684  1.99564323312331
 1  22.20677857065706  2.13727419811981  0.85508216181618
 1  21.00596067456746  3.14406052325233  1.53651078777878

