%nproc=4
%Mem=3GB
# td=(NStates=1) iop(3/107=0140000000,3/108=0140000000) CAM-B3LYP/6-31G(d,p) 

TD

0 1
12 -7.17021171287129  0.67720610411041  0.05316168616862
 6 -4.88337715421542 -1.97963519411941  0.43187859025903
 6 -4.82957898849885  2.76638535643564  1.23162326752675
 6 -9.53447021152115  3.14834238723872 -0.38076055135514
 6 -9.51567766576658 -1.66186795249525 -1.07894469936994
 7 -5.12336936813681  0.38858494909491  0.64276210021002
 6 -4.35020726802680 -0.72735387858786  0.69079697439744
 6 -2.95171139173917 -0.44669306730673  1.17992366146615
 6 -3.10977420432043  0.99383808540854  1.82577885718572
 6 -4.40982121682168  1.43846849794980  1.14433882778278
 6 -3.11849803060306  1.17647046634663  3.26107142174217
 6 -1.83579930963096 -0.63859984918492  0.13256706700670
 6 -0.38106381558156 -0.45364861286129  0.65741912421242
 6  0.59400132333233 -0.61916853875388 -0.52506229632963
 8  0.22750296709671 -1.04397817551755 -1.55716310941094
 8  1.86199479787979 -0.36862680108011 -0.17600298789879
 7 -7.12950059345935  2.63261647154715  0.23316424052405
 6 -6.11483162696270  3.35768953635364  0.85885176127613
 6 -6.47354226262626  4.72211907550755  0.76752501120112
 6 -7.67241202650265  4.91938374357436  0.27652377877788
 6 -8.24907443494349  3.45954289308931  0.03716171477148
 6 -5.43866590049005  5.75085455915592  1.16935709090909
 6 -8.43618362636264  6.10197046664666  0.17917853035304
 6 -8.30903931393139  7.35303445314531  0.75700976027603
 7 -9.15343438453845  0.75029202360236 -0.53654022792279
 6 -9.95407289358936  1.81972529682968 -0.64306712021202
 6 -11.25280923362336  1.37631707620762 -1.09800466016602
 6 -11.25614510171017  0.08877642344234 -1.30303033133313
 6 -9.98816642024202 -0.32513270667067 -0.92577477877788
 6 -12.30562149984999  2.46215145654565 -1.41693114581458
 6 -12.40847464036404 -0.83385950975098 -1.85350468106811
 6 -12.12367427632763 -1.25504569686969 -3.32212286348635
 7 -7.28058102050205 -1.30040487618762 -0.11001367646765
 6 -8.21883620992099 -2.21007955345535 -0.59492107200720
 6 -7.90758279807981 -3.58031858325833 -0.42932323212321
 6 -6.51099889038904 -3.49612259435944 -0.06857893959396
 6 -6.24067779947995 -2.14862281808181  0.08015985138514
 6 -8.79714205370537 -4.79110520892089 -0.83929731283128
 6 -5.29138460136014 -4.34564812821282  0.18722369646965
 8 -5.15317630993099 -5.58608546554655  0.12580852945295
 6 -4.20224472707271 -3.38008545594559  0.57785610721072
 6 -3.56854103090309 -3.73074101680168  1.91990795929593
 8 -3.80664344774477 -3.14827218511851  2.90921427962796
 8 -2.70840619341934 -4.71440005850585  1.72722175967597
 6 -2.08072702970297 -5.07730293619362  2.98097549794980
 6  2.88014433483348 -0.69932822172217 -1.12178569576958
 6  4.17247813301330 -0.45975124302430 -0.51640420322032
 6  5.11957744904490  0.33053958195820 -0.84762763976398
 6  5.18896262186219  1.36426410171017 -1.97212134713471
 6  6.46861314001400  0.34552516851685 -0.14383490789079
 6  7.54189564216422 -0.26595514351435 -0.90516084478448
 6  8.97812552415241 -0.09184100020002 -0.02127823022302
 6  10.19038449904991 -0.39603126632663 -0.85451117111711
 6  10.08992226882688 -1.84674255415542 -1.43521048704871
 6  11.46200086388639 -0.28573346444644  0.02566460396040
 6  12.73407114261426 -0.50831086458646 -0.82473997909791
 6  13.99722099389939 -0.13746946124612  0.04747115871587
 6  15.36419241024102 -0.29961904550455 -0.46695234773477
 6  15.68802507350735 -1.78737712601260 -0.79748157445745
 6  16.44002099479948  0.31272779007901  0.49338407310731
 6  17.84357194489449  0.54379810941094 -0.15345187218722
 6  18.86506692529253  1.25308338683868  0.70032328902890
 6  20.22852565696570  1.27000643314331  0.14860156615662
 6  20.35030787658766  2.10057736283628 -1.16352104800480
 6  21.28390345734573  1.93708540844084  1.07351129112911
 1 -4.41721208470847  3.49107235863586  1.91661775757576
 1 -10.09525164846485  3.97171944644464 -0.62186671287129
 1 -10.18163258735874 -2.41693722882288 -1.07729554895490
 1 -2.82688997619762 -1.15216541924193  2.14258074877488
 1 -2.37084055035504  1.65114717581758  1.32750639963996
 1 -2.17624071047105  1.07735684208421  3.81591192859286
 1 -3.26966407550755  2.23732295509551  3.56871489368937
 1 -3.85859866036604  0.47262241654165  3.82224390959096
 1 -2.02004712371237 -1.61263193399340 -0.39011701880188
 1 -2.10628699769977  0.22770038983898 -0.69698643324332
 1 -0.11164659335934  0.33570315761576  1.31143500650065
 1 -0.18751717201720 -1.24804557115712  1.44293775207521
 1 -5.73446762446245  6.75482299429943  0.83558338963896
 1 -5.72410388168817  5.82639552095210  2.16750876337634
 1 -4.43351819641964  5.56046031403140  0.98951968456846
 1 -9.41366162596260  6.00653403540354 -0.42559391209121
 1 -9.07333639733973  8.03412313331333  0.72907268296830
 1 -7.59088702080208  7.53214005040504  1.63153211351135
 1 -11.94217469046905  3.11853100020002 -2.23162899439944
 1 -13.15151244894489  2.05980472287229 -1.87592332053205
 1 -12.70547157985799  2.89425675977598 -0.58488892839284
 1 -12.65481744664466 -1.61488241104110 -1.20098359925993
 1 -13.17535983508351 -0.15125783628363 -1.73457921232123
 1 -12.87883308250825 -1.90466412851285 -3.41282224032403
 1 -12.26574698039804 -0.51781025232523 -4.05893487188719
 1 -11.13845868526853 -1.86664769196920 -3.45570384858486
 1 -9.04106872547255 -4.73648014881488 -1.97935399839984
 1 -8.19070345554555 -5.54996094939494 -0.69322927802780
 1 -9.62424660366037 -4.79407785618562 -0.28602087078708
 1 -3.25116263476348 -3.35725233083308 -0.08145588368837
 1 -1.60152353995400 -4.27445965936594  3.59832154975498
 1 -2.89963640094009 -5.19253877877788  3.60210124782478
 1 -1.54346486698670 -5.95582636743674  2.84832819391939
 1  2.73712176697670 -1.73152977577758 -1.50081152985298
 1  2.73944038533853  0.11733981878188 -1.95287634513451
 1  4.39715020172017 -1.08415682948295  0.29429082928293
 1  4.16986229772977  1.47646318901890 -2.32704319001900
 1  5.35342227442744  2.32184260816082 -1.47149458785879
 1  5.74357392589259  0.97336852775278 -2.93644990189019
 1  6.73150133403340  1.65121510211021  0.10766037993799
 1  6.19140701280128 -0.25378271497150  0.75584177967797
 1  7.36997912071207 -1.29797047004700 -1.25736049324933
 1  7.55666822532253  0.26064516751675 -1.87415823872387
 1  9.08328437273727  1.03427292479248  0.25811823992399
 1  8.70213333413341 -0.71005935863586  0.81827795119512
 1  10.36306093789379  0.34292043984398 -1.70376553455345
 1  9.25057466656666 -1.90804908840884 -2.25788417031703
 1  11.03816295689569 -1.91656505580558 -1.96295165326533
 1  10.14840703780378 -2.68328244294430 -0.68272566626663
 1  11.36023766536653  0.65540197359736  0.20887865866587
 1  11.52967056255626 -1.05045634323432  0.87619393949395
 1  12.83177112961296 -1.48467588688869 -0.99992226372637
 1  12.72024785468547  0.03183811981198 -1.77836216991699
 1  13.94967638793879  0.84499986328633  0.45721054975498
 1  14.02585089568957 -0.73928030693069  0.86598897289729
 1  15.32680308170817  0.21098449544955 -1.30298156695670
 1  15.58840263706371 -2.33246258745875  0.15010687518752
 1  15.10941258565856 -2.28817333733373 -1.62866423992399
 1  16.79686796639664 -1.83602449944995 -1.16228274157416
 1  15.88883215671567  1.26226456015602  0.85123103940394
 1  16.56090016781678 -0.35455173997400  1.30743923862386
 1  18.37786452415241 -0.44871138513851 -0.37993818941894
 1  17.78631594119412  0.85030392449245 -1.15263100670067
 1  18.55555461236123  2.18604987298730  0.74725667246725
 1  18.97320328282828  0.68938377787779  1.59735298079808
 1  20.48865869816982  0.28954995259526  0.07172306450645
 1  19.66302312081208  3.13291406790679 -0.95496768146815
 1  21.19222302310231  2.36955809790979 -1.45114309550955
 1  19.78844724232423  1.63538382858286 -1.91193957835784
 1  20.95890974447445  1.37415305620562  2.08079174797480
 1  22.40446833963396  1.86396686738674  0.79862651625163
 1  21.26895697419742  3.19598571577158  1.05432256895690

