%nproc=4
%Mem=3GB
# td=(NStates=1) iop(3/107=0140000000,3/108=0140000000) CAM-B3LYP/6-31G(d,p) 

TD

0 1
12 -7.09743443514351  0.58383676717672  0.06202257225723
 6 -4.91814063056306 -2.05172240284028  0.51712711511151
 6 -4.83775980658066  2.87275599349935  1.17767787298730
 6 -9.38540530503050  3.12838039103910 -0.47854032933293
 6 -9.55745184318432 -1.70938270397040 -0.84750155505551
 7 -5.09078610981098  0.42565865646565  0.82140996499650
 6 -4.35300754805481 -0.71848299149915  0.76645454015402
 6 -3.00730695129513 -0.45018341634163  1.28024369346935
 6 -3.01224445134513  1.04942364396440  1.64894117341734
 6 -4.37127736243624  1.48541319241924  1.25497989188919
 6 -2.82368854965497  1.20203302260226  3.16709202380238
 6 -1.86076180588059 -0.72351834103410  0.14091790209021
 6 -0.51724743394339 -0.52388563656366  0.60082346464646
 6  0.48135005820582 -0.82282890479048 -0.56080587068707
 8  0.21221143794379 -1.13491726942694 -1.63706109920992
 8  1.75414401280128 -0.56955689408941 -0.20021540914091
 7 -7.09963760716072  2.53482669256926  0.33229415351535
 6 -6.02971311511151  3.34861862926293  0.76500237633763
 6 -6.34171908030803  4.75306216981698  0.84882314101410
 6 -7.68304308960896  4.88280008520852  0.41591771817182
 6 -8.12305183268327  3.57742468126813  0.12807080568057
 6 -5.42332436633663  5.95544501820182  1.18602875807581
 6 -8.54806481448145  6.10484075367537  0.16198681118112
 6 -8.53218162816282  7.27816696639664  0.71209526882688
 7 -9.01835087618762  0.74898189258926 -0.63576014991499
 6 -9.81010849714971  1.94737806210621 -0.71297411091109
 6 -11.18119207190719  1.62159160366037 -1.10978583828383
 6 -11.27711719891989  0.20375792159216 -1.20980100840084
 6 -9.89785738933893 -0.28167836123612 -0.94096629792979
 6 -12.26462740044004  2.54135937733773 -1.50643009570957
 6 -12.35500929382938 -0.67612373617362 -1.75108443904390
 6 -11.99147105600560 -1.19541973427343 -3.17638829002900
 7 -7.26595955835584 -1.35411024672467 -0.27669034413441
 6 -8.21179550585059 -2.13471201670167 -0.58294987488749
 6 -7.87241928172817 -3.61674222562256 -0.47417771757176
 6 -6.57186497699770 -3.52099508160816 -0.12502458415842
 6 -6.22629636133613 -2.18781673747375  0.11834366976698
 6 -8.72756509600960 -4.75279137753775 -0.84277766086609
 6 -5.34174963786379 -4.38066162956296  0.08500347444744
 8 -5.20559155145515 -5.59958681568157  0.16431237983798
 6 -4.24562906550655 -3.35486293369337  0.46288461006101
 6 -3.58283246004600 -3.71627957065707  1.83654962346235
 8 -3.77697048044804 -3.21658901680168  2.91733509170917
 8 -2.81268662146215 -4.80401902040204  1.73949298679868
 6 -2.23456241324132 -5.36895210111011  2.86529392979298
 6  2.84948126852685 -0.71843013191319 -1.07680119731973
 6  4.13197408260826 -0.40584585248525 -0.49381194399440
 6  5.16025151645165  0.27562409040904 -0.92842571957196
 6  5.07167089268927  1.06369404470447 -2.23355749074907
 6  6.40501678037804  0.44016463246325 -0.20165068946895
 6  7.63092454505450 -0.17711625962596 -0.87179750845085
 6  8.95376308790879  0.00502868676868 -0.01122722512251
 6  10.17991345194520 -0.54792645584558 -0.74077979797980
 6  10.04033731033103 -2.03133101300130 -1.03276024202420
 6  11.45905056885688 -0.11967685878588  0.01648368586859
 6  12.80802853835384 -0.58527856135614 -0.66141364646465
 6  13.99328059985998 -0.06409212351235  0.20752716431643
 6  15.29002499349935 -0.12223130673067 -0.57751340384038
 6  15.57527379837984 -1.66834522282228 -0.96468829512951
 6  16.44169116181618  0.42406892419242  0.30270500520052
 6  17.81721930963096  0.62924665426543 -0.35489201620162
 6  18.77653807240724  1.28834691319132  0.57858111481148
 6  20.27288009240924  1.39735916841684  0.21274798079808
 6  20.30801364716472  2.14170147524752 -1.20638533443344
 6  21.11075614261426  1.92733443334333  1.32674661466147
 1 -4.03783414691469  3.48612186358636  1.69254535033503
 1 -10.15699782308231  3.91222349684968 -0.35179970617062
 1 -10.16604102820282 -2.48625416051605 -1.12389020842084
 1 -2.73813110031003 -1.27077728042804  1.94666115681568
 1 -2.18791225752575  1.61454351545155  0.99318296729673
 1 -1.81926501290129  0.92691179757976  3.55011534893489
 1 -2.94417152625263  2.32098132093209  3.39002702490249
 1 -3.60366316681668  0.62702785708571  3.67088877407741
 1 -1.96744186318632 -1.69940061086109 -0.51112912001200
 1 -2.13969033803380  0.14560218001800 -0.53541027562756
 1 -0.31750717941794  0.67645723302330  0.88601246424642
 1 -0.07461588188819 -0.97377814441444  1.45597905620562
 1 -5.74467864556456  6.92370988298830  0.77142697399740
 1 -5.45922739403940  6.12757563896390  2.22927493999400
 1 -4.28762360696070  5.68291255925593  0.81170190279028
 1 -9.18086834663466  5.92132551455145 -0.80914226692669
 1 -9.41451051475148  8.09373909490949  0.31183095879588
 1 -7.74061199329933  7.44105094149415  1.48515747604760
 1 -12.04958543154315  3.18356750385039 -2.47461329282928
 1 -13.17405470317032  1.88868761116112 -1.73369909810981
 1 -12.24070510321032  3.17858519261926 -0.60070050955095
 1 -12.42414437933793 -1.60448137093709 -1.12914641554155
 1 -13.37885018411841 -0.04978768926893 -1.73326908130813
 1 -12.65845104430443 -2.10678434053405 -3.26503746184618
 1 -12.31517192289229 -0.25291376267627 -3.87899687808781
 1 -10.83062790219022 -1.69238026522652 -3.16854513271327
 1 -8.98263288188819 -4.51680818161816 -1.88811487448745
 1 -8.18417280248025 -5.67241319461946 -0.86217617271727
 1 -9.55529970897090 -4.50393884228423 -0.11597386608661
 1 -3.39756727522752 -3.39105571117112 -0.21173891199120
 1 -1.41463485108511 -4.79014122752275  3.50734245184518
 1 -3.16401283858386 -5.69714923982398  3.54772581028103
 1 -1.62140266076608 -6.28328911371137  2.29151251235123
 1  2.68011606640664 -1.66171279407941 -1.44987643634363
 1  2.56996343764376 -0.11711362656266 -2.13298435593559
 1  4.34208469516952 -0.76655506930693  0.43324472467247
 1  4.09629494099410  0.99745528822882 -2.63199368506851
 1  5.38201513371337  2.01777220112011 -2.09124656305631
 1  5.83961352985299  0.66867805870587 -2.91744800170017
 1  6.62759094299430  1.39764974557456  0.09356897079708
 1  6.19904777687769  0.12927559085909  0.77552374787479
 1  7.53891601440144 -1.30877155015502 -0.98109286648665
 1  7.89545210371037  0.34102320532053 -2.07871869476948
 1  8.96548259255926  1.00376987448745  0.31269369746975
 1  8.70834395519552 -0.42851120382038  0.94674079747975
 1  10.33503813561356 -0.02302615481548 -1.70426558455846
 1  9.17242685178518 -2.32850113361336 -1.62530091199120
 1  10.86279542014201 -2.56188958825883 -1.63859921802180
 1  9.93902609970997 -2.57055116981698 -0.00455784948495
 1  11.46107774937494  0.97942437583758  0.29983775457546
 1  11.27033462896290 -0.58573987158716  1.07587390749075
 1  12.74548250075008 -1.57124454375437 -0.74169644114411
 1  12.79693552345234 -0.06025108910891 -1.67860219391939
 1  14.13564498479848  1.02340770407041  0.47703253195320
 1  13.98051636223622 -0.77590396929693  1.12334470847085
 1  15.26860726212621  0.52474587158716 -1.38849011781178
 1  15.58026182298230 -2.12716205740574  0.02464432893289
 1  14.72313395779578 -2.22110663066307 -1.35421679517952
 1  16.69325760536054 -1.74055495249525 -1.44749126242624
 1  16.12650592409241  1.36439477317732  0.91247716401640
 1  16.60245432323232 -0.30314659945995  1.20470896559656
 1  18.09416615431543 -0.26798331233123 -0.78529872547255
 1  17.46263357295729  1.23316221032103 -1.27700344394439
 1  18.35025408230823  2.31445271327133  0.83642558935894
 1  18.80381634413441  0.96790162966297  1.51124436993699
 1  20.51999183148315  0.33559455705571 -0.18558266606661
 1  20.18542536103610  3.29052982948295 -0.97475966066607
 1  21.47499129992999  2.21155229732973 -1.54376235743574
 1  19.48027642524253  1.63036332653265 -1.80334871927193
 1  21.02689654315432  1.28120376127613  2.25409907870787
 1  22.07834572737274  1.94133460416042  1.24746139973997
 1  20.69098917741774  2.83080919811981  1.80443758045805

