%nproc=4
%Mem=2GB
# td=(NStates=1) CAM-B3LYP/6-31G(d,p) 

TD

0 1
12 -7.15898647164716  0.57812656075608  0.04551223862386
 6 -4.98454307230723 -1.96673785218522  0.49339587228723
 6 -4.77454738363836  2.84868331563156  1.19690605550555
 6 -9.36380111561156  3.06124161966197 -0.33056591629163
 6 -9.56525683938394 -1.73183869486949 -0.86933336243624
 7 -5.09405282988299  0.37465728382838  0.65289570787079
 6 -4.45279498559856 -0.70816063806381  0.77486550975098
 6 -2.96093509890989 -0.48163758945895  1.15924627882788
 6 -3.09888332673267  0.96282895119512  1.70606133683368
 6 -4.41355835073507  1.46627737653765  1.18180521042104
 6 -3.05561064316432  1.06783907200720  3.27695910481048
 6 -2.04785824682468 -0.59860512191219 -0.04111015271527
 6 -0.60617804040404 -0.39362370957096  0.49131326062606
 6  0.45769690689069 -0.67405091799180 -0.54015939643964
 8  0.31344258435844 -1.05708111571157 -1.68291462316232
 8  1.71298310881088 -0.35486288268827 -0.06718350725073
 7 -7.09707015491549  2.57063265306531  0.33341203670367
 6 -5.96408568756876  3.31037201300130  0.70222375597560
 6 -6.31150840394039  4.76717100650065  0.69543023022302
 6 -7.57165987298730  4.85760639213921  0.16642503380338
 6 -8.07922219381938  3.50305950125012 -0.00613806750675
 6 -5.36246420312031  5.77014948084808  1.27565232573257
 6 -8.50633843144314  6.05433646734673  0.00130711611161
 6 -8.33177706900690  7.21689780838084  0.64983123292329
 7 -9.07982025462546  0.67265012611261 -0.52587662136214
 6 -9.87637389708971  1.81940189328933 -0.60253657775778
 6 -11.20383948054805  1.40395873497350 -1.14537625712571
 6 -11.27099950385039  0.06616198029803 -1.22317103110311
 6 -9.91381706240624 -0.45996797109711 -0.83636865296530
 6 -12.32965178887889  2.36888745974597 -1.35147192199220
 6 -12.29941448774878 -0.71808921902190 -1.73925473397340
 6 -12.24374186258626 -0.88045045624562 -3.24853997259726
 7 -7.22644211251125 -1.39598921252125 -0.23850852785279
 6 -8.31569180898090 -2.28183335543554 -0.50831578677868
 6 -7.86743288888889 -3.62388065556556 -0.51645892319232
 6 -6.47682156625663 -3.55457979497950 -0.19950168206821
 6 -6.18994159055906 -2.23642192349235  0.10465326952695
 6 -8.66275374277428 -4.76604944734474 -0.80456893529353
 6 -5.37046151645164 -4.34873875737574  0.24345721832183
 8 -5.17644648254826 -5.53840832423242  0.24837186788679
 6 -4.24767834723472 -3.30686647644764  0.62787265256526
 6 -3.55996662756276 -3.60921614291429  1.89984035693569
 8 -3.73507510811081 -3.17345408160816  3.01221390249025
 8 -2.68305949964997 -4.69633435583558  1.65567414831483
 6 -2.00688127602760 -5.24563879297930  2.78835377087709
 6  2.75452796449645 -0.54816261086109 -1.15520672107211
 6  4.06629871887189 -0.35946412271227 -0.50002015101510
 6  5.11651513591359  0.38829509490949 -0.95457523022302
 6  5.08822724572457  1.22597524682468 -2.25149931523152
 6  6.46485081788179  0.45256710691069 -0.16361284648465
 6  7.64456199409941 -0.14914526142614 -0.86014296479648
 6  8.98870074267427 -0.12021715211521  0.08320650785079
 6  10.26902752725272 -0.46525359705971 -0.73390436093609
 6  10.20611731193119 -1.97886882298230 -1.18591205620562
 6  11.39546242314231 -0.15761954275428  0.05142601120112
 6  12.83798870657066 -0.52065611671167 -0.63464348724872
 6  13.91480094849485 -0.07014821762176  0.26205327282728
 6  15.36166229112911 -0.24580830993099 -0.47803604340434
 6  15.68649031793179 -1.71131876567657 -0.70015963366337
 6  16.47324143004300  0.40616497649765  0.39251375857586
 6  17.83469805920592  0.50712211061106 -0.29248506310631
 6  18.76112648214821  1.29944816181618  0.55759619261926
 6  20.17126579577958  1.34145447894789  0.08784354755476
 6  20.26179753355336  2.07786608380838 -1.28758975167517
 6  21.08235916671667  1.94334727102710  1.21270663406341
 1 -4.05929741424142  3.67705322672267  1.58858344524452
 1 -10.09102949564956  3.86886772177218 -0.55258064956496
 1 -10.32715600500050 -2.57713705450545 -1.12154880708071
 1 -2.62757921482148 -1.30076839073907  1.85349604080408
 1 -2.06971057625763  1.70249383198320  1.35818646904690
 1 -2.02601705920592  0.96281673457346  3.67851156465647
 1 -3.41239629962996  2.13563762126213  3.48959112451245
 1 -3.76599004170417  0.38674335833583  3.75984839763976
 1 -2.04995748064806 -1.75844580498050 -0.48202211141114
 1 -2.12534420692069  0.35120237063706 -0.72125216481648
 1 -0.50536405380538  0.50632524642464  1.06621702080208
 1 -0.29915771777178 -1.08007252245225  1.26815077027703
 1 -5.75152392779278  6.79771841594159  0.65327103630363
 1 -5.27605459485949  6.00626398949895  2.37449374647465
 1 -4.24762871887189  5.74420558695869  0.88480165576558
 1 -9.34969702220222  5.78594474257426 -0.61329155735574
 1 -9.14143535943594  7.93839457835784  0.52023164496450
 1 -7.54748421422142  7.29674607410741  1.39373775927593
 1 -12.32882698779878  3.03826415241524 -2.10451345604560
 1 -13.40593026222622  1.75258915011501 -1.41297248874888
 1 -12.32458418951895  3.06508516321632 -0.42014325832583
 1 -12.35786056445645 -1.85609505460546 -1.39581453635364
 1 -13.19425814471447  0.03745700890089 -1.49184471197120
 1 -13.25752210481048 -1.27674236043604 -3.47908779327933
 1 -12.25579914411441  0.13996945934593 -3.68595209090909
 1 -11.54736101540154 -1.49309417651765 -3.68146676667667
 1 -9.37592719571957 -4.69690043294329 -1.80448371247125
 1 -8.00443980878088 -5.60106011021102 -0.88546815981598
 1 -9.24497438233823 -5.04141916321632 -0.08422024462446
 1 -3.58961965786579 -3.41170442114212 -0.19061433293329
 1 -1.49500766726673 -4.44253069276928  3.41059397469747
 1 -2.59467907650765 -5.58973059065907  3.50949378827883
 1 -1.52004011551155 -6.21119039223922  2.54665861876188
 1  2.49373867796780 -1.48741057695770 -1.51486545154515
 1  2.76192366996700  0.11645592519252 -2.06405955815582
 1  4.26007691329133 -0.78601081628163  0.41837505350535
 1  4.13782274577458  1.28736744714471 -2.68484685438544
 1  5.63782919461946  2.20916117501750 -1.93482995119512
 1  5.52088939653965  0.69200030753075 -2.94099283028303
 1  6.53860592349235  1.67700170017002  0.03341598439844
 1  6.24359847924793 -0.17343538093809  0.88913863056306
 1  7.53361074577458 -1.17971720692069 -1.03984530813081
 1  7.74672710861086  0.45386859495950 -1.86188911251125
 1  9.02854490609061  1.01619950495050  0.48796642884288
 1  8.91806029472947 -0.85918142434243  0.80073793749375
 1  10.25540309170917  0.17308984668467 -1.49661455095510
 1  9.30017500300030 -2.32461043754375 -1.65135105990599
 1  11.15586814251425 -2.22410919481948 -1.78283252715272
 1  9.96918980498050 -2.42260420242024 -0.35667510721072
 1  11.41823950485048  0.86279851005100  0.21697318481848
 1  11.49058211161116 -0.74814077537754  1.15851647324732
 1  12.56931024992499 -1.56596475767577 -0.88061572917292
 1  12.73717747024702  0.09363005400540 -1.38426178747875
 1  13.64321575827583  1.02818537453745  0.38911625462546
 1  13.92866561966197 -0.74158376307631  1.30543706020602
 1  15.11317460596059  0.38767825282528 -1.32091644964496
 1  15.28092553545355 -2.33193348544854  0.23477202330233
 1  15.15184823552355 -2.09397177277728 -1.43200061516152
 1  16.66001563096310 -1.89598512341234 -0.96328779827983
 1  16.16582178287829  1.34413224692469  0.81404794909491
 1  16.70255470267027 -0.05268444354435  1.43547630883088
 1  18.12841378007801 -0.56398294569457 -0.60757409780978
 1  17.51037810231023  1.04256157505751 -1.28484206000600
 1  18.46730752335234  2.35262942064206  0.46233423872387
 1  18.70851801210121  1.11098527952795  1.64173417371737
 1  20.34923983668367  0.27294344254425 -0.10438337433743
 1  19.89262336893689  3.11571513341334 -1.17176076947695
 1  21.29749400150015  2.25892254505451 -1.70691205450545
 1  19.62681658605861  1.57543935473547 -1.96057302630263
 1  21.01739771497150  1.30039814891489  2.13348296549655
 1  22.13224493079308  2.12456368606861  0.88443340964096
 1  20.80769049894990  2.91781186448645  1.40380082058206

