%nproc=4
%Mem=2GB
# td=(NStates=1) CAM-B3LYP/6-31G(d,p) 

TD

0 1
12 -7.14321489448945  0.63319206730673  0.10481816921692
 6 -4.92989760776078 -1.90625180358036  0.53140967366737
 6 -4.80072000090009  2.84391283858386  1.18174453935394
 6 -9.42781751725173  3.13414891039104 -0.39842270197020
 6 -9.64668498219822 -1.76620213121312 -0.76815324442444
 7 -5.10810423502350  0.57598741684168  0.72522294059406
 6 -4.41441114721472 -0.67944776677668  0.74754277747775
 6 -3.00870987638764 -0.41983140884088  1.12158251245125
 6 -2.98345178357836  1.02301496979698  1.60622135283528
 6 -4.32283927882788  1.56290703950395  1.08568559845985
 6 -2.91963704580458  1.24380666876688  3.07848925782578
 6 -1.91821528252825 -0.65375063646365  0.00907486578658
 6 -0.45528295089509 -0.66400074727473  0.45963009230923
 6  0.49160029722972 -0.73986749964997 -0.72104748524852
 8  0.22011325142514 -1.01545695329533 -1.87295362706271
 8  1.77815962646265 -0.63823121952195 -0.25605239413941
 7 -7.18404885278528  2.67219280908091  0.47302599809981
 6 -6.06753603260326  3.39684065986599  0.80571410501050
 6 -6.42571982508251  4.81510579998000  0.81607229442944
 6 -7.76032873987399  4.91884251575158  0.29256764806481
 6 -8.16973124472447  3.50810000530053  0.12839538583858
 6 -5.47806576327633  5.89355182108211  1.22005676617662
 6 -8.58389618721872  6.11120215391539  0.10391737713771
 6 -8.45922981428143  7.18727484608461  0.82038828862886
 7 -9.15845811841184  0.63187604870487 -0.66791082478248
 6 -9.89709596929693  1.84817477057706 -0.69156548064806
 6 -11.20542963956396  1.45301364046405 -1.11988370787079
 6 -11.30564296819682  0.12528789288929 -1.18660737473747
 6 -9.94861054175417 -0.41717369166917 -0.86285130123012
 6 -12.34338316201620  2.44247481848185 -1.36104287908791
 6 -12.36928147444745 -0.82301971207121 -1.68177898639864
 6 -12.40968845724572 -0.99781219241924 -3.23347846644664
 7 -7.26298576687669 -1.35017463106311 -0.21555623262326
 6 -8.28437867766777 -2.24782995509551 -0.53737869306931
 6 -7.88815496109611 -3.54570283778378 -0.38668594589459
 6 -6.45950983508351 -3.55586992399240  0.01039930803080
 6 -6.14782737913791 -2.20284856615662  0.11066387058706
 6 -8.67914538193819 -4.72436527892789 -0.64580305870587
 6 -5.30743521382138 -4.35534941844184  0.29276214881488
 8 -5.19414825272527 -5.54854933833383  0.35086211691169
 6 -4.15586916631663 -3.28978476827683  0.62279214451445
 6 -3.44148477937794 -3.64716993829383  1.85654602750275
 8 -3.72639424002400 -3.11214795099510  2.93689637073707
 8 -2.60482167586759 -4.64443916631663  1.64302288318832
 6 -2.15386597449745 -5.13147737683768  2.97967290279028
 6  2.75223773547355 -0.90752854745475 -1.25532673307331
 6  4.14813690269027 -0.64940311661166 -0.64485463446345
 6  5.16342982738274  0.10314658005801 -1.15016478917892
 6  5.02787121012101  1.02166481578158 -2.37895206050605
 6  6.48295262806281  0.02166401660166 -0.22219870507051
 6  7.71166870477048 -0.30734108100810 -1.02163911441144
 6  8.86358823142314 -0.18260339073907 -0.04124593739374
 6  10.15972659715971 -0.50902797449745 -0.96211718221822
 6  10.21365806600660 -1.91332226832683 -1.33301676667667
 6  11.47315019191919 -0.28031181198120 -0.09872900430043
 6  12.75468037573757 -0.40592464356436 -0.77794781768177
 6  13.89953942234223  0.04483328052805  0.07146421392139
 6  15.37273339823982 -0.11053478257826 -0.50002824262426
 6  15.85379704860486 -1.49809744354435 -0.87952757045705
 6  16.40750485638564  0.56024038403840  0.41346585378538
 6  17.84995958535853  0.63571496989699 -0.10702651725173
 6  18.79120949044905  1.30335855285529  0.84611504450445
 6  20.31891056025603  1.37199753325333  0.34463922712271
 6  20.40700205400540  2.35121341854185 -0.89051004370437
 6  21.20368129892989  1.77365030133013  1.53856922032203
 1 -4.00441192569257  3.75819134053405  1.52806739363936
 1 -10.23813420612061  3.75393622862286 -0.51310670217022
 1 -10.18169145854585 -2.77318665946595 -1.01045769796980
 1 -2.73014947184718 -0.96327464136414  2.00267095829583
 1 -2.08974257945795  1.68773235583558  1.26317696809681
 1 -1.91749620712071  0.89202965586559  3.34952866636664
 1 -3.12614767476748  2.35408946644664  3.32870503590359
 1 -3.52110555325533  0.40305498949895  3.64442685548555
 1 -1.97968045294529 -1.70163012341234 -0.19774368356836
 1 -2.04179585208521  0.03050030043004 -0.93249328892889
 1 -0.22962648004800  0.39681429532953  1.03626402550255
 1 -0.43275107710771 -1.61457597279728  1.03608756395640
 1 -5.47234601000100  6.75336398049805  0.45304101330133
 1 -5.76063305270527  6.29568293139314  2.35965226232623
 1 -4.46863081908191  5.57806897329733  1.22571574717472
 1 -9.15059711221122  5.84879102720272 -0.91502173037304
 1 -8.97986920282028  8.21319205810581  0.58053767556756
 1 -7.77040650645065  7.06152255175518  1.68092647814781
 1 -12.16996110121012  3.04094442044204 -2.35502850755076
 1 -13.10424009320932  1.87691158235824 -1.46735792729273
 1 -12.70504223532353  3.24551320602060 -0.54696594059406
 1 -12.34941972037204 -1.79143858895890 -1.09489444434443
 1 -13.32149086798680 -0.34090082688269 -1.29279480698070
 1 -13.17337368996900 -1.60763544974497 -3.66774665916592
 1 -12.56593015721572 -0.08213275087509 -3.83698719441944
 1 -11.51645792509251 -1.55932079917992 -3.53587220722072
 1 -9.17252685568557 -4.71512225512551 -1.56130939503950
 1 -8.09906927172717 -5.50598060226023 -0.49431904490449
 1 -9.53500338523852 -4.69573459475948  0.29684786218622
 1 -3.48407910381038 -3.34347759845985 -0.17103237473747
 1 -1.78146631313131 -4.32990943064306  3.48180109540954
 1 -3.16379598819882 -5.52054367196720  3.42518535743574
 1 -1.33372148364836 -5.91375064826483  2.54413836673667
 1  2.83422272637264 -1.92042387828783 -1.60570453545355
 1  2.69843732133213 -0.17206292669267 -1.88417156935694
 1  4.26922782838284 -1.31904411961196  0.12109532553255
 1  3.99748871237124  1.11189990039004 -2.73908227792779
 1  5.36115152685269  1.97823808270827 -2.21126759495950
 1  5.64778208580858  0.66544765226523 -3.21206993799380
 1  6.60035209810981  1.01009500950095  0.23320596339634
 1  6.34673879327933 -0.80959899729973  0.52925264196420
 1  7.57430481518152 -1.37675691089109 -1.47072839643964
 1  7.70641307720772  0.57013022112211 -1.97549047264726
 1  9.19353140474047  0.84920280528053  0.04619225142514
 1  8.84914340304030 -0.96098160436044  0.89968783248325
 1  10.36581413281328 -0.03187064936494 -1.98321321082108
 1  9.24077906340634 -2.24451242774277 -1.86418234303430
 1  10.87177973367337 -2.09701648554855 -2.09008325222522
 1  10.17815070107011 -2.46892883488349 -0.42031147084708
 1  11.17682536343634  1.07357958815882  0.00419190669067
 1  11.39909296269627 -0.70617657895790  0.82446306790679
 1  13.24935825472547 -1.42508066926693 -1.11326899449945
 1  12.59758351085108  0.22317300830083 -1.57381074237424
 1  13.94564600130013  0.92635519151915  0.56774411741174
 1  13.85893864696470 -0.54674427912791  1.10654717121712
 1  15.33164645314531  0.50539002400240 -1.36704106210621
 1  15.79424686758676 -2.04131442354235  0.25818436453645
 1  15.23199625032503 -2.19398177377738 -1.58502591769177
 1  16.86771640104011 -1.64824034893489 -1.26110758025803
 1  16.16133133383338  1.42183001670167  0.90809735403540
 1  16.37787223442344 -0.08341751685168  1.36849961116112
 1  18.19252019071907 -0.40171671907191 -0.38860220062006
 1  17.82921998649865  1.07983530243024 -1.07902147794779
 1  18.65651644424442  2.29214337203720  0.86571457675768
 1  18.74766192649265  0.71440562156216  1.89514951525153
 1  20.58690360306031  0.28202435063506  0.05288235223522
 1  19.87211131773177  3.29015257715772 -0.71239483288329
 1  21.49258351045104  2.45210186298630 -1.15820718401840
 1  19.93848775317532  1.83385519631963 -1.86434340334033
 1  21.39493546874687  1.19455756485649  2.41352096929693
 1  22.26947865416541  1.73180441014101  1.16764173047305
 1  21.03305303520352  2.90453053635364  1.87567800830083

