%nproc=4
%Mem=2GB
# td=(NStates=1) CAM-B3LYP/6-31G(d,p) 

TD

0 1
12 -7.11664223722372  0.63237198529853  0.11012870027003
 6 -4.82372699069907 -1.92340351875188  0.57161369406941
 6 -4.91228115701570  2.80511895919592  1.27383374827483
 6 -9.38928366386639  3.08806430193019 -0.40702356205621
 6 -9.45632594629463 -1.72254776577658 -0.87155358445845
 7 -5.16138956355636  0.48299811791179  0.80368078637864
 6 -4.36258596469647 -0.68476829882988  0.83422144534453
 6 -2.88080708610861 -0.29948937463746  1.27640799499950
 6 -3.03774721312131  1.05727839613961  1.68943967466747
 6 -4.43643063796380  1.57355810461046  1.13460048994899
 6 -3.10944602670267  1.14843713181318  3.19219062796280
 6 -1.92455591659166 -0.52075733713371  0.13720767906791
 6 -0.44385180778078 -0.23320766796680  0.52223635293529
 6  0.55109624682468 -0.53366687958796 -0.55178055855586
 8  0.20740198029803 -1.03703911151115 -1.63440977267727
 8  1.81639344984498 -0.32736013241324 -0.22311910081008
 7 -7.16288673657366  2.58640423022302  0.27644634013401
 6 -6.15613489248925  3.40466144194419  0.90350388398840
 6 -6.40952820592059  4.79438372777278  0.90802148934893
 6 -7.81733444044404  4.82042267376738  0.39444783608361
 6 -8.17005127672767  3.50618981428143  0.02170471677168
 6 -5.54919287598760  5.90430289618962  1.22912767326733
 6 -8.51882968056806  6.01448248194820  0.25230221562156
 6 -8.42457634893489  7.22318843744374  0.76722297209721
 7 -9.24824709730973  0.64132699379938 -0.59396343004300
 6 -9.89740600030003  1.80085003810381 -0.76736306040604
 6 -11.21191028762876  1.44753309240924 -1.22707442694269
 6 -11.24881728562856  0.08412377647765 -1.35636435043504
 6 -9.92854853555355 -0.39074104840484 -0.84520953705371
 6 -12.29559838353835  2.35837640864086 -1.58789556435644
 6 -12.36902144844484 -0.83883129322932 -1.90279108760876
 6 -12.06284377277728 -1.07803021422142 -3.42609772837284
 7 -7.24100356865687 -1.38546816041604 -0.06058073507351
 6 -8.19518975877588 -2.18005317741774 -0.40624557975798
 6 -7.81036718231823 -3.61891015851585 -0.39499677697770
 6 -6.47580146424642 -3.50740507750775  0.01438970707071
 6 -6.10649324572457 -2.12083036433643  0.16127893209321
 6 -8.56350381778178 -4.80822366476648 -0.74533301170117
 6 -5.36493096339634 -4.35654953845385  0.31096396899690
 8 -5.40213905180518 -5.59574405780578  0.30439747044704
 6 -4.16348992839284 -3.36076186598660  0.62481234653465
 6 -3.46091672257226 -3.71679690099010  1.88111848474847
 8 -3.51874347494749 -3.13893062926293  2.93565624672467
 8 -2.74935612931293 -4.88762348474847  1.70361894279428
 6 -2.07332792069207 -5.30689491859186  2.90307524302430
 6  2.78899141084108 -0.68815661026103 -1.18838003840384
 6  4.09707179617962 -0.35160333663366 -0.61332148114811
 6  5.17948143254325  0.32984925032503 -1.11441121382138
 6  5.02810123312331  1.20880352965297 -2.34452861816182
 6  6.51059539233923  0.36930878107811 -0.32793927912791
 6  7.57625516341634 -0.10042038893889 -1.15278222872287
 6  8.90213208580858 -0.05566069646965 -0.27760957375738
 6  10.24427505200520 -0.65238230993099 -1.09799076957696
 6  10.11877857805781 -2.18934987108711 -1.27076054105411
 6  11.41554443134313 -0.33741752255226 -0.16637576897690
 6  12.75801070877088 -0.56332038313831 -0.75514553745375
 6  13.96505597399740 -0.11632283508351  0.28690575807581
 6  15.35516164106411 -0.24706843594359 -0.45825406520652
 6  15.80292196109611 -1.76135376917692 -0.59457907560756
 6  16.43492759865986  0.30966532653265  0.45645015221522
 6  17.81305589498950  0.65931733013301 -0.24899071367137
 6  18.74492486198620  1.24198241524152  0.70836126912691
 6  20.25131380058006  1.38339867336734  0.22445720892089
 6  20.33092444624463  2.21008930613061 -1.06494748744875
 6  21.18093902470247  1.92219515581558  1.34511987538754
 1 -4.16321780628063  3.58529405080508  1.63740832773277
 1 -10.05920631333133  3.95577641264126 -0.72319771127113
 1 -10.14665795519552 -2.50341968276828 -1.36618327052705
 1 -2.43572002890289 -0.92027034093409  1.92866355755576
 1 -2.39184278947895  1.83156673927393  1.24805545594559
 1 -2.13582804030403  1.10402085498550  3.58527224072407
 1 -3.43956901690169  2.28072212971297  3.70068223362336
 1 -3.99347278997900  0.42313699769977  3.37684009680968
 1 -1.80058254315431 -1.58855881628163 -0.10281419061906
 1 -2.13746541904190  0.24324157455746 -0.72121216081608
 1 -0.28855237263726  0.79059367326733  0.71313171227123
 1 -0.13543134513451 -0.86766128132813  1.24476843204320
 1 -5.56152492789279  6.80745939003900  0.33910962016202
 1 -5.67358434783478  6.17218058115812  2.26348264536454
 1 -4.46375033103310  5.65325649204920  1.29527270287029
 1 -9.57056910941094  5.86508265636564 -0.25468569676968
 1 -9.25681689758976  7.83384412331233  0.64640426222622
 1 -7.77298676447645  7.64540093959396  1.55110349584958
 1 -12.14999910501050  2.76923724972497 -2.63062606730673
 1 -13.38520819001900  1.85558945014501 -1.60793198469847
 1 -12.44494622572257  3.15208386308631 -0.70294153815381
 1 -12.39618439683968 -1.75076452155216 -1.57556251115111
 1 -13.38506722562256 -0.59597633443344 -1.81690721822182
 1 -12.70750710331033 -1.75990067626763 -3.79551943644364
 1 -12.14818838303830 -0.12885742334233 -4.11295479117912
 1 -11.04775105440544 -1.57198206530653 -3.70360898089809
 1 -9.20997060006001 -4.49892063496350 -1.70786405050505
 1 -7.97394675947595 -5.59634963916392 -0.84051366436644
 1 -9.47755764066407 -4.82591761306131  0.04226240364036
 1 -3.38164886078608 -3.33915716641664 -0.12533780528053
 1 -1.50555872237224 -4.62411885158516  3.38321123642364
 1 -2.85981559015902 -5.71713333093309  3.73086592549255
 1 -1.46341445294529 -6.06533580678068  2.72900685358536
 1  2.54987429152915 -1.77984982088209 -1.36376034103410
 1  2.45366284388439 -0.12906862726273 -1.95207836003600
 1  4.12552345794579 -0.78776099129913  0.45341855785579
 1  4.08526749024903  1.15681439183918 -2.80078844854485
 1  5.34623003470347  2.33564382328233 -2.13064953315332
 1  5.84590189778978  0.72511361886189 -3.12968169916992
 1  6.50695275817582  1.41890589058906  0.26157880068007
 1  6.06099021842184 -0.34847288468847  0.51661137783778
 1  7.36928431313131 -0.99931916711671 -1.50842216581658
 1  7.87656009190919  0.44016722482248 -1.95411833543354
 1  9.24581663326333  0.91486937193719 -0.14154652245225
 1  8.94064255295530 -0.52111761796180  0.82343020672067
 1  10.31161871327133 -0.08969643194319 -2.05558044754475
 1  9.22777776327633 -2.56915489198920 -1.88148407320732
 1  11.02653520922092 -2.51790857475748 -1.92799704360436
 1  9.93290617661766 -2.65038698069807 -0.17281672137214
 1  11.31838951985199  0.89979220942094 -0.04725323782378
 1  11.26413946734674 -0.66256221752175  1.08147876947695
 1  12.83744706360636 -1.58081624282428 -0.83806147374737
 1  12.91695544804480 -0.26687599659966 -1.69817317861786
 1  13.57504894159416  0.99158171417142  0.35936327932793
 1  13.85224797789779 -0.61015061976198  1.25918243474347
 1  15.23325661416142  0.29851933693369 -1.46699105710571
 1  16.32268971187119 -2.29523981608161  0.29894844094409
 1  15.07700075077508 -2.38996137173717 -1.07984539963996
 1  16.81767139653966 -1.84361988688869 -1.32112358185819
 1  16.09983518421842  1.12576040974097  1.09896644094409
 1  16.64473892109211 -0.47750692579258  1.21315407660766
 1  18.24506544524452 -0.25216176357636 -0.91928526892689
 1  17.60548761326133  1.37734505340534 -0.99599317511751
 1  18.58719951255125  2.21198535623562  1.11843984928493
 1  18.80008716901690  0.71473565456546  1.59742974327433
 1  20.51831674437444  0.50600674887489 -0.11552448844884
 1  19.80126423302330  3.31848541044104 -0.75065865926593
 1  21.29602385448545  2.38264491729173 -1.35228659195920
 1  19.69074297869787  1.82570438123812 -1.93162013101310
 1  21.02515849104910  1.37635574467447  2.25834545174517
 1  22.13098480478047  2.15902713241324  0.77405237153715
 1  20.75034476437644  2.94576465976598  1.54530497099710

