%nproc=4
%Mem=3GB
# td=(NStates=1) iop(3/107=0140000000,3/108=0140000000) CAM-B3LYP/6-31G(d,p) 

TD

0 1
12 -7.11157584928493  0.58648703220322  0.16093246324632
 6 -4.87370618711871 -1.92798002860286  0.59364476687669
 6 -4.71507753835384  2.80886960486049  1.20075018021802
 6 -9.43295005950595  3.13763131613161 -0.46662913821382
 6 -9.60621671967197 -1.69918168386839 -0.75269207410741
 7 -5.10531756295630  0.41509760036004  0.89400722472247
 6 -4.29980222752275 -0.74089523272327  0.75018291299130
 6 -2.90604682528253 -0.48372677067707  1.18601427052705
 6 -2.96012923982398  1.00175887748775  1.69784606390639
 6 -4.34691492619262  1.45209986108611  1.11972636653665
 6 -2.87781396219622  1.26668948824882  3.18778409300930
 6 -1.85920164986499 -0.50759674887489  0.15497930823082
 6 -0.46656236543654 -0.43781702970297  0.66605998829883
 6  0.53920584378438 -0.74278089999000 -0.55666545664566
 8  0.22097231403140 -1.03564734243424 -1.68927632073207
 8  1.84474307270727 -0.58169810821082 -0.14655004260426
 7 -7.10193783718372  2.60086329622962  0.42565348944894
 6 -6.07846799059906  3.37861162856286  0.89603547964796
 6 -6.34320922932293  4.75100196379638  0.83826208490849
 6 -7.66213099839984  4.85220702590259  0.38110423682368
 6 -8.14486401390139  3.55032197099710  0.13647164576458
 6 -5.41641367526753  5.96622609630963  0.96412656785679
 6 -8.48200820882088  6.01074134373437  0.21874248674867
 6 -8.27264567456746  7.25723487318732  0.74943900320032
 7 -9.10412945404540  0.72102909730973 -0.48718529242924
 6 -9.80425791209121  1.82368569286929 -0.75111792529253
 6 -11.18585253795380  1.46844628912891 -1.26370122982298
 6 -11.33067255445544  0.16486403220322 -1.33968399669967
 6 -9.92637024062406 -0.35651584498450 -0.87227942924292
 6 -12.19565050275028  2.56143138453845 -1.56065551825183
 6 -12.32396618951895 -0.71062718651865 -1.76831616221622
 6 -12.08130003890389 -1.16485667796780 -3.23661431263126
 7 -7.26459942234223 -1.41947678337834 -0.07965064016402
 6 -8.37875220152015 -2.24272281778178 -0.57077865776578
 6 -7.87598963876388 -3.63669422082208 -0.52450275007501
 6 -6.52923071357136 -3.55496847894789 -0.15162724442444
 6 -6.18926265796580 -2.25317327312731  0.20490232563256
 6 -8.85427776727673 -4.76058215661566 -0.72823620672067
 6 -5.43656911981198 -4.45596916031603  0.15047002110211
 8 -5.14802579487949 -5.63742059905991 -0.04276832823282
 6 -4.30402490509051 -3.36586403380338  0.51495981758176
 6 -3.60177435423542 -3.63515145784578  1.87718368686869
 8 -3.70767355075508 -3.14594195209521  2.91048440664066
 8 -2.89415476827683 -4.79624824332433  1.72298133563356
 6 -2.21322027902790 -5.22369757565757  2.85103250365036
 6  2.84646096649665 -0.76005429432943 -1.22687620482048
 6  4.17797868306831 -0.36034130203020 -0.39117167996800
 6  5.10872636393639  0.37477400540054 -0.98212108910891
 6  4.95676940254025  1.14916259155916 -2.26556069106911
 6  6.35171144984498  0.48039865586559 -0.21141166556656
 6  7.71212266486649 -0.09351789978998 -0.99651998069807
 6  8.83393110471047 -0.16931874797480 -0.07489359175918
 6  10.09709517011701 -0.62429409260926 -0.83824954495450
 6  10.04772804940494 -2.11402928282828 -1.20327729372937
 6  11.40971563536353 -0.24866975807581 -0.02632059455946
 6  12.77594533003300 -0.41637167066707 -0.76487399249925
 6  13.98565983778378 -0.03350906520652  0.13112952455246
 6  15.36899289028903 -0.10614969856986 -0.49219487198720
 6  15.66923319431943 -1.52466085438544 -1.07995982228223
 6  16.40177717041704  0.49406592389239  0.45744047874787
 6  17.74958254595460  0.62275600520052 -0.06607313431343
 6  18.77979839843984  1.35037311581158  0.70566382308231
 6  20.21773457785779  1.37404683718372  0.29584629062906
 6  20.43293613941394  2.05617292239224 -1.08668336423642
 6  21.14106917391739  1.76345804570457  1.28690263026303
 1 -4.02479284278428  3.62193544494449  1.44341043684368
 1 -10.16620874417442  3.84378665316532 -0.79131365756576
 1 -10.34290871497150 -2.51286682178218 -1.00357817721772
 1 -2.55084237143714 -1.16057626032603  2.16450294099410
 1 -2.24429789608961  1.75087714881488  1.10951460046005
 1 -1.94223731013101  0.73240234663466  3.74995533293329
 1 -2.85538264736474  2.25252447524752  3.52867088928893
 1 -3.77262006250625  0.86249140344034  3.80330201540154
 1 -1.94469958895890 -1.42201287208721 -0.64665267236724
 1 -1.99985635463546  0.27170479027903 -0.74831156575658
 1 -0.33455888458846  0.68974856215622  0.81457532053205
 1 -0.52676109640964 -1.17340810741074  1.52097555585559
 1 -5.75298947664766  6.69228674067407  0.15273510481048
 1 -5.48684015531553  6.51750463186319  1.87428944144414
 1 -4.41930677527753  5.68662293029303  0.71221195379538
 1 -9.32568282808281  6.10460384238424 -0.50994234693469
 1 -8.81319038273827  8.16232595359536  0.47460723642364
 1 -7.49897782988299  7.35117195359536  1.63241220152015
 1 -11.77375784878488  2.95623477057706 -2.34633046454645
 1 -13.15501279897990  2.39120786318632 -1.84889061726173
 1 -12.18121915461546  3.14551188528853 -0.79144958445845
 1 -12.25724768966897 -1.63670459325933 -1.20424392529253
 1 -13.43076537563756 -0.40218292879288 -1.78635438983898
 1 -12.83889908910891 -1.99217287938794 -3.67907886598660
 1 -12.18986939263926 -0.38181665296530 -4.03596257465747
 1 -10.96635147454745 -1.86010703790379 -3.31377965616562
 1 -9.14905952455245 -4.83740024082408 -1.75530159315932
 1 -8.24204859005900 -5.86849280258026 -0.48108806390639
 1 -9.53570774977498 -4.92262071047105  0.02746047734774
 1 -3.54282180068007 -3.51346795239524 -0.29644738283828
 1 -1.20199358695870 -4.76507872127213  3.27101881948195
 1 -2.96221265856586 -5.34811433633363  3.59246028372837
 1 -1.79093961446145 -6.15016580138014  2.40161352245225
 1  2.73986204100410 -1.73232985578558 -1.44565601430143
 1  2.80962740404040 -0.03575549074907 -2.02075313281328
 1  4.32627311401140 -0.93382179597960  0.49768116831683
 1  3.90181549304930  1.37695323802380 -2.47180766646665
 1  5.81848878107811  2.10599102300230 -2.46485392379238
 1  5.30840040854085  0.45299649054905 -3.08174443134313
 1  6.67686587048705  1.49390937153715  0.12303191709171
 1  6.28623649574957  0.06521918521852  0.67544373987399
 1  7.29337145994599 -1.17909858285829 -1.27182193939394
 1  7.83017557605761  0.55164426742674 -1.85577640054005
 1  9.01280732503250  0.78480797829783  0.49091151925193
 1  8.76495961676168 -0.86215456815682  0.86058218161816
 1  10.18114274607461  0.04100024782478 -1.53078823682368
 1  8.86806641574158 -2.25842412591259 -1.60894927682768
 1  10.88002714331433 -2.34968836813681 -1.83424878297830
 1  10.02677487458746 -2.80743485818582 -0.49546694039404
 1  11.47308895049505  0.93027946134614  0.22851062186219
 1  11.38542613811381 -1.05833713131313  0.67658397849785
 1  12.70275822832283 -1.42270969026903 -1.05169744124412
 1  12.78637446734673  0.29487442344234 -1.61309564326433
 1  13.75723714401440  0.89714507780778  0.39429425812581
 1  13.99362767336734 -0.71995837473747  0.95212758675868
 1  15.31182158355836  0.53998739573957 -1.53626489528953
 1  15.70377417421742 -2.22498183938394 -0.32362049754976
 1  15.07914955935594 -2.06782130213021 -1.84332570607061
 1  16.65944422402240 -1.37289818681868 -1.36133264656466
 1  16.06707998149815  1.37403573727373  0.85203111941194
 1  16.30751482928293 -0.08887517231723  1.25038353305331
 1  17.98054479217922 -0.44654116811681 -0.35375557115712
 1  17.65111242084208  1.04119301340134 -1.14331007460746
 1  18.41116017291729  2.30530179817982  0.76044799159916
 1  18.65902186468647  1.01611645114511  1.82079532503250
 1  20.59323915621562  0.22050304790479  0.00630652285228
 1  20.14030084858486  3.15791656815682 -1.36894907960796
 1  21.54232803360336  1.99404054615462 -1.59256723792379
 1  19.88082648024803  1.39068935913591 -1.89608799319932
 1  20.86003985748575  1.16502214311431  2.33030669946995
 1  22.14137203000300  1.65535600630063  1.15388204180418
 1  20.95256533503350  2.89413553075308  1.49625676237624

