%nproc=4
%Mem=2GB
# td=(NStates=1) CAM-B3LYP/6-31G(d,p) 

TD

0 1
12 -7.04658523152315  0.56811555965597 -0.02216452905291
 6 -4.87241185918592 -1.93186436483648  0.44848138083808
 6 -4.72269219811981  2.85768421572157  1.15334169906991
 6 -9.37908264376438  3.13182867836784 -0.33868672837284
 6 -9.52885319901990 -1.73228873987399 -0.86535296439644
 7 -5.04325775037504  0.44884470257026  0.66472689098910
 6 -4.32135184128413 -0.73292311431143  0.72504052725273
 6 -2.93473247864786 -0.40670009570957  1.29643999819982
 6 -3.03478691709171  1.05798846714671  1.69393012371237
 6 -4.40359735463546  1.59621036983698  1.09032606250625
 6 -2.94910999309931  1.23894618271827  3.19057046594659
 6 -1.93313677467747 -0.68302356375638  0.12056601490149
 6 -0.48386580918092 -0.40558490569057  0.56479060836084
 6  0.53160429762976 -0.68965247814782 -0.61060644114411
 8  0.11020226032603 -0.99672508010801 -1.71173750545055
 8  1.83438524902490 -0.70357775417542 -0.20401719061906
 7 -7.01184163206321  2.64407999779978  0.21298999449945
 6 -5.98804808380838  3.38175915171517  0.77402093569357
 6 -6.33918117121712  4.76074036343634  0.66712739993999
 6 -7.66780948794879  4.84773540504050  0.32088047934794
 6 -8.07634190579058  3.45090428572857  0.16995954225423
 6 -5.42704066076608  5.85726819271927  1.00188494899490
 6 -8.38747654525453  6.13698473217322  0.13460044544454
 6 -8.40451434273427  7.20447656625663  0.82343859365937
 7 -9.11973424602460  0.61086394749475 -0.45698973267327
 6 -9.81283754345434  1.78078803190319 -0.59536586068607
 6 -11.15681477807781  1.42729106820682 -1.05900762026203
 6 -11.23518592249225  0.11320668476848 -1.16490520452045
 6 -9.88530421112111 -0.43290526482648 -0.86795181128113
 6 -12.20093891759176  2.48206877787779 -1.38999577437744
 6 -12.35746029232923 -0.68131554165417 -1.76133694219422
 6 -12.24548203660366 -0.90508291949195 -3.20345546414642
 7 -7.19707917621762 -1.48076769036904 -0.11108578557856
 6 -8.34118435823582 -2.27967313941394 -0.43192814801480
 6 -7.86915306090609 -3.66421468896890 -0.51348862616262
 6 -6.54595847994799 -3.54101843884388 -0.02266399829983
 6 -6.21594419081908 -2.22523080438044  0.02442524672467
 6 -8.62445991339134 -4.86679952235224 -0.79359783818382
 6 -5.35768023832383 -4.35625950945095  0.33397627022702
 8 -5.21601043894389 -5.56378086148615  0.31246827752775
 6 -4.15737931733173 -3.27317310711071  0.58606847214722
 6 -3.63663429432943 -3.70048526982698  1.86968734163416
 8 -3.84912651325133 -3.10286702290229  2.91993467456746
 8 -2.78026922062206 -4.74985970837084  1.73561214211421
 6 -2.26408699659966 -5.26379060816082  3.05776071157116
 6  2.81681419311931 -0.79608740334033 -1.20935213561356
 6  4.10355244424442 -0.48815699199920 -0.56641679067907
 6  5.05772925732573  0.25016128152815 -1.00420019271927
 6  5.04047247024702  1.16886953625363 -2.24616878217822
 6  6.34218855165517  0.45004685488549 -0.28172465766577
 6  7.52432997089709 -0.14613496039604 -1.14005095559556
 6  8.88108998159816 -0.05914104450445 -0.37357917071707
 6  10.20728135263526 -0.58635570727073 -0.94248521902190
 6  10.07011371157116 -1.97085802190219 -1.50222368736874
 6  11.37228010491049 -0.27848162896290 -0.05711484288429
 6  12.69805471317132 -0.52518656975698 -0.75990601350135
 6  13.95065453385338 -0.26133733653365  0.13127019451945
 6  15.30391651655166 -0.14436816591659 -0.46806504630463
 6  15.88883055195519 -1.58257589138914 -0.90378999669967
 6  16.38563266916692  0.60923528352835  0.54710921812181
 6  17.83024761416142  0.55483688208821 -0.10956677127713
 6  18.82510287978798  1.39727794479448  0.77966839983998
 6  20.17276594579458  1.38950928442844  0.37266202940294
 6  20.31119247304731  2.23681197839784 -0.93314430713071
 6  21.15362629342934  2.05330826712671  1.36299166256626
 1 -4.03126461096110  3.64798031943194  1.59852443934393
 1 -10.15492588528853  4.08579941494149 -0.37725311681168
 1 -10.57914120352035 -2.18134747554756 -1.18485513771377
 1 -2.67854431133113 -0.87890620452045  1.98654934613461
 1 -2.29143274847485  1.65373895649565  1.26426707710771
 1 -1.92604706220622  1.04947540044004  3.55590930443044
 1 -3.25475053505351  2.19102315981598  3.42606477187719
 1 -3.71492493519352  0.52333701770177  3.50939335213521
 1 -2.10171265616562 -1.74264422482248 -0.20605451465147
 1 -2.04013568606861  0.02600985138514 -0.64295433503350
 1 -0.24588810621062  0.53834844874487  0.89531993109311
 1 -0.17266506850685 -1.14617913311331  1.39483343854385
 1 -5.43017179257926  6.76157480158016  0.29092480168017
 1 -5.66258324772477  6.14196755985598  1.98847514461446
 1 -4.41829578557856  5.31116228262826  0.97853102870287
 1 -9.22401445394540  6.16120226832683 -0.45656588478848
 1 -9.24257547344734  8.08383912281228  0.77644726652665
 1 -7.71484094989499  7.27184358385839  1.78523690919092
 1 -11.96415052015202  2.88591891789179 -2.33211621632163
 1 -12.94285395459546  1.77550144134413 -1.58550974247425
 1 -12.29581131223122  3.03825247994799 -0.45596684068407
 1 -12.37632241064106 -1.50351979707971 -1.18486344124412
 1 -13.34972369126913 -0.14308104490449 -1.49926545404540
 1 -13.08697505010501 -1.39637432363236 -3.73494337883788
 1 -11.92000556475648  0.01557702010201 -3.61820531623162
 1 -11.33612989228923 -1.56352121922192 -3.48770739073907
 1 -9.06616621962196 -4.68175891879188 -1.82408567266727
 1 -8.20540990579058 -5.78810881508151 -0.63052266526653
 1 -9.51094097899790 -4.79386440774078 -0.11075289788979
 1 -3.31877257315732 -3.31475472617262 -0.17648291979198
 1 -1.86032419891989 -4.43284972467247  3.64277719301930
 1 -3.08548815741574 -5.66584820242024  3.55499833873387
 1 -1.53577168866887 -6.09357863106311  2.73753770667067
 1  2.83242254635464 -1.84604644054405 -1.53452741774177
 1  2.58419589718972 -0.02639836023602 -1.90594374657466
 1  4.20261116671667 -0.95146736193619  0.46641985798580
 1  4.09884884838484  1.12589129952995 -2.89635800550055
 1  5.52558797049705  2.22818307720772 -1.98757522572257
 1  5.51673898149815  0.66976808430843 -3.03278200920092
 1  6.45689775267527  1.49067306730673  0.05152779557956
 1  6.31457557695770 -0.11793983138314  0.69432914961496
 1  7.22071945664567 -1.23817305250525 -1.19710103370337
 1  7.47257969386939  0.56879008710871 -2.05300822442244
 1  9.25315736733673  0.92449033403340  0.12763039523952
 1  8.89467795649565 -0.80866637283728  0.46612447614762
 1  10.34070162156216  0.21434397209721 -1.76411130063006
 1  9.08105309080908 -1.95128310481048 -2.12110803560356
 1  10.84237679337934 -2.21490827472747 -1.90788503240324
 1  9.72750563656366 -2.88449039103910 -0.75505494519452
 1  11.52150983188319  0.72507473767377  0.37284877237724
 1  11.28966201960196 -0.94092005330533  0.93357397899790
 1  12.64786810571057 -1.61158932013201 -1.09859752735273
 1  12.61317507000700 -0.08243755275528 -1.76557991929193
 1  13.92562399909991  0.82943549954995  0.85038238123812
 1  13.87578033113311 -0.95802540724072  0.89553607010701
 1  15.20348363686369  0.40968045304530 -1.43031738973897
 1  16.03665110801080 -2.22698299039904  0.00198874497450
 1  15.12658570927093 -2.16139851545155 -1.51051846694669
 1  16.84714434383438 -1.62932845774577 -1.65387685718572
 1  15.96466166686669  1.60781861556156  0.72112865716572
 1  16.45349979717972 -0.00875005010501  1.44692745394539
 1  18.23750468916892 -0.54830137753775 -0.04539788018802
 1  17.59862692719272  0.75893321222122 -1.14222779857986
 1  18.37517831043104  2.30340449814981  0.92782078737874
 1  18.73121028132813  1.09984416541654  1.93584358465847
 1  20.52306721942194  0.36742289048905  0.12907997199720
 1  19.82941704830483  3.23191675357536 -0.74540813421342
 1  21.20110436253625  2.12748940174017 -1.32105346864686
 1  19.64801870627063  1.70725253605361 -1.64499146814681
 1  21.10604657985798  1.50079818891889  2.39629924712471
 1  21.98866057235723  1.86583781348135  1.03676864316432
 1  20.93369309920992  3.05570565386539  1.46384682518252

