%nproc=4
%Mem=2GB
# td=(NStates=1) CAM-B3LYP/6-31G(d,p) 

TD

0 1
<<<<<<< HEAD
12 -7.16110668366837  0.54496324442444  0.08441612901290
 6 -4.85903052105211 -1.90740191859186  0.46676320902090
 6 -4.68773870277028  2.91194964226423  1.17458382328233
 6 -9.33278801430143  3.07780327582758 -0.36186904660466
 6 -9.56515682938294 -1.74209972097210 -0.82099852895290
 7 -5.01672509710971  0.49784960306031  0.64929534783478
 6 -4.25899560566057 -0.65297511951195  0.75244326752675
 6 -2.93735274067407 -0.37259668536854  1.19993034723472
 6 -3.05519895829583  1.12670533883388  1.69275000570057
 6 -4.32875987088709  1.54211496029603  1.14489151905191
 6 -3.06221130323032  1.21671395949595  3.28095950485049
 6 -1.86960042104210 -0.64486974837484  0.04177813611361
 6 -0.41295871847185 -0.46660100730073  0.46869099839984
 6  0.54609574677468 -0.66993050595060 -0.54234961546155
 8  0.13166440654065 -1.01337674527453 -1.64433076477648
 8  1.65832764326433 -0.41715911231123 -0.15813260216022
 7 -7.06711715961596  2.63509909970997  0.38200689618962
 6 -5.94323360236024  3.35791676747675  0.73857739133913
 6 -6.40211746484648  4.77862215161516  0.74692537973797
 6 -7.66743945094509  4.86517714921492  0.29459785108511
 6 -8.06894116571657  3.51694088938894  0.10947349364936
 6 -5.46825478217822  5.95569803570357  1.18909366986699
 6 -8.52650044764476  5.94806584028403  0.05219220462046
 6 -8.49241313261326  7.11830794939494  0.74730097989799
 7 -9.08092036463646  0.61183404450445 -0.53861789548955
 6 -9.76536279597960  1.76071602470247 -0.64073039713971
 6 -11.16408550515052  1.52205054415442 -1.16736845634563
 6 -11.24130653455346  0.07627299139914 -1.37059577357736
 6 -9.86502218291829 -0.48145011931193 -0.93372838893889
 6 -12.15716454015402  2.42886345734573 -1.45677245204520
 6 -12.41888643494350 -0.64824223432343 -1.80543135163516
 6 -12.11008849724973 -1.09284169536954 -3.27850296889689
 7 -7.22985245354536 -1.40094970857086 -0.27836251325133
 6 -8.26056629642964 -2.29257442954295 -0.48852380758076
 6 -7.77564370997100 -3.69634790229023 -0.41981925922592
 6 -6.42094597869787 -3.51186552355236 -0.08834056595660
 6 -6.11677427382738 -2.16358463976398  0.11236404060406
 6 -8.66759422682268 -4.90826366876688 -0.71590006840684
 6 -5.30760523082308 -4.31715559905991  0.19836270887089
 8 -5.05676451435144 -5.47930241364136  0.08153518421842
 6 -4.13183676307631 -3.31760755055506  0.53955382068207
 6 -3.47979861076108 -3.66416163746375  1.84560493339334
 8 -3.67685928652865 -3.21930866706671  3.01268394949495
 8 -2.56855804950495 -4.68581330373037  1.68083666456646
 6 -2.03160374827483 -5.26649087818782  2.95031996749675
 6  2.79741225292529 -0.67720551515152 -1.09056025642564
 6  4.11596368536854 -0.47678585488549 -0.45260540954095
 6  5.07290077447745  0.42191845724572 -0.90520029272927
 6  4.87973639663966  1.23060570987099 -2.15848001330133
 6  6.37665199799980  0.48783063326333 -0.18117460266027
 6  7.56801433933393 -0.20950129702970 -0.85720267076708
 6  8.88416028862886 -0.00397552795280 -0.12022383518352
 6  10.14014463896390 -0.55958303000300 -0.90086105660566
 6  10.01357805800580 -1.92858379447945 -1.27473093809381
 6  11.39325220212021 -0.28124190499050  0.07377824642464
 6  12.64901980968097 -0.49515356645665 -0.59313933683368
 6  13.78749821822182 -0.13838504130413  0.21791885938594
 6  15.32843896879688 -0.23944767386739 -0.51336957675768
 6  15.61501317021702 -1.73668130193019 -0.73325294299430
 6  16.32789689558956  0.43964832483248  0.26619112631263
 6  17.78100268966897  0.56555795419542 -0.21581739633963
 6  18.70055042454246  1.28674689168917  0.64783521652165
 6  20.17373604280428  1.25208554205421  0.10567533073307
 6  20.26454780858086  2.13790208740874 -1.23577457015702
 6  21.05037596839684  1.87238017431743  1.23790915431543
 1 -4.07053853835384  3.52939846124612  1.70553514041404
 1 -10.18605899859986  3.82547338233823 -0.49811520302030
 1 -10.25128841824182 -2.27160650145014 -1.21491814401440
 1 -2.73785024192419 -1.03923223712371  2.08120881208121
 1 -2.53722732793279  1.91958554115412  1.47999865026503
 1 -2.13667812531253  0.90050050295029  3.65943965746575
 1 -2.91695675567557  2.26278033553355  3.34589675507551
 1 -3.90258370107011  0.81428611261126  3.83945635843584
 1 -2.06588907380738 -1.67756771717172 -0.39672358155816
 1 -2.16759843234323 -0.03972672227223 -0.71655169476948
 1 -0.30830434783478  0.52529714361436  1.06155655475548
 1 -0.33622142414241 -1.17401191639164  1.31478543374337
 1 -5.90004878027803  6.75339398349835  0.69397510671067
 1 -5.58505549494949  5.91536489958996  2.29632592969297
 1 -4.44157811381138  5.94852601900190  0.88070124572457
 1 -9.28489054155416  5.70327647574757 -0.59985021322132
 1 -8.92575379127913  7.98736947584758  0.49185880768077
 1 -7.66445591139114  7.18536493599360  1.46658504400440
 1 -12.02971707680768  3.16343666966697 -2.25708871357136
 1 -13.19796946614661  2.04577846904690 -1.65875706720672
 1 -12.35697742884289  3.15444409910991 -0.60629187318732
 1 -12.70442522092209 -1.65102454755476 -1.16041099599960
 1 -13.33340205910591 -0.02354909170917 -1.93926945444544
 1 -12.96624297689769 -1.61863654985499 -3.57438732323232
 1 -11.95183874807481 -0.34825936353635 -3.99595309100910
 1 -11.13937021632163 -1.62698756585659 -3.17671629162916
 1 -9.10288989198920 -4.68006874977498 -1.73934719881988
 1 -8.04532389718972 -5.88728873307331 -0.76868648164816
 1 -9.47889777467747 -5.00817583888389  0.03066124352435
 1 -3.52917361326133 -3.38587183788379 -0.34718999049905
 1 -1.46766493299330 -4.55756219591959  3.45845876117612
 1 -2.98911852045205 -5.71120273787379  3.28987182608261
 1 -1.24211232273227 -6.07809708290829  2.67541149404940
 1  2.63393269736974 -1.64756659255926 -1.39707367236724
 1  2.81801927952795  0.10574485408541 -1.81092424462446
 1  4.10444134973497 -0.99966218141814  0.57453066906691
 1  3.89591855535554  0.85544425482548 -2.71594996469647
 1  4.74404981668167  2.30031028992899 -1.86014248244824
 1  5.83774108170817  1.02435354285429 -2.92031076207621
 1  6.56716877977798  1.45115911591159  0.16801944474447
 1  6.22631675107511  0.19468143074307  0.89128884558456
 1  7.26503388808881 -1.12205144034403 -1.11928325192519
 1  7.75512794869487  0.24782799089909 -1.85357828142814
 1  8.87546959855985  0.97235512051205  0.53809144134413
 1  8.63007149584959 -0.79226473267327  0.78106597029703
 1  10.13517106850685  0.15598813651365 -1.66142103160316
 1  9.24240922642264 -2.02293026952695 -1.89659558435844
 1  10.79238179387939 -2.21685846974697 -2.01499574347435
 1  10.02137502350235 -2.49466140814081 -0.41327076677668
 1  11.43275095599560  0.65812804300430  0.56359784728473
 1  11.10123317671767 -0.86899286058606  1.05647626922692
 1  12.69072239113911 -1.65147330853085 -0.82629029662966
 1  12.69042279477948  0.00861155215522 -1.49550291159116
 1  13.58591002770277  0.97111966796680  0.60899824282428
 1  13.63964671777178 -0.83218282298230  1.00415693219322
 1  15.27674096259626  0.18902838783878 -1.52057641564156
 1  15.70063750665066 -2.16133642574257  0.38191673777378
 1  14.66512956365637 -2.21811418701870 -1.14332174727473
 1  16.53720334973497 -1.71180670557056 -1.48295976547655
 1  16.10379558025803  1.51512934663466  0.60804734903490
 1  16.30413486068607 -0.17633680878088  1.21740450165016
 1  18.21611254995500 -0.52970951835184 -0.33314665506551
 1  17.78862592709271  1.25779309820982 -1.00295387118712
 1  18.47371816441644  2.34508866656666  0.88790679597960
 1  18.57446460676068  0.77092127312731  1.68452845314532
 1  20.43589850255026  0.43207935613561 -0.13831676767677
 1  19.77174128072807  3.10324388628863 -1.14179777317732
 1  21.31365561766177  2.12528918171817 -1.54748611191119
 1  19.69821372577258  1.61182299309931 -2.05159212821282
 1  21.19830580578058  1.26224433353335  2.10107972517252
 1  22.24729643594359  1.70686191589159  0.90946591289129
 1  20.83126285618562  2.78541862516252  1.48133857435744
=======
12 -7.09888046104610  0.54100284838484  0.05791347874787
 6 -4.83470808880888 -1.91510268866887  0.48121465416542
 6 -4.92305223412341  2.91248969626963  1.13020938583858
 6 -9.46598133363336  3.06784227972797 -0.30082294199420
 6 -9.49509982368237 -1.73458896989699 -0.95677210631063
 7 -5.14227765236524  0.43628344644464  0.77388780708071
 6 -4.39012871897190 -0.74917473947395  0.81206923012301
 6 -2.92187119251925 -0.44919434513451  1.21337169136914
 6 -3.07112055045505  1.05415808410841  1.68259899059906
 6 -4.42103909880988  1.53717446624662  1.12415944584458
 6 -2.93298838093809  1.29568185628563  3.20717212611261
 6 -1.92058551955196 -0.71391665306531  0.16435039333933
 6 -0.44077149974998 -0.52782712991299  0.61371550085008
 6  0.57605874307431 -0.63557707060706 -0.60965634613461
 8  0.30768200830083 -0.85444085168517 -1.77539387108711
 8  1.79482129262926 -0.25028242464246 -0.13237002590259
 7 -7.18338878677868  2.49880547034703  0.28006670217022
 6 -6.14514379337934  3.32271324712471  0.74121765536554
 6 -6.53492074517452  4.77251154055406  0.85476616381638
 6 -7.80759346634663  4.84440507200720  0.31955034633463
 6 -8.23803807540754  3.43763295859586  0.02864541084108
 6 -5.63774173087309  5.88408087398740  1.14809957045705
 6 -8.59139693729373  6.02506354005401  0.06751373677368
 6 -8.66704059535954  7.12793891249125  0.89158540834083
 7 -9.12155442804280  0.65055791689169 -0.63360739443944
 6 -9.85572183188319  1.70835078817882 -0.64265058915892
 6 -11.22734183078308  1.34014235333533 -1.24599631913191
 6 -11.32225462936294  0.05268063216322 -1.28678739273927
 6 -9.90089577027703 -0.42529450375038 -1.02740775687569
 6 -12.30610943464346  2.46720729172917 -1.33055983078308
 6 -12.42030657695770 -0.83830124022402 -1.85377618611861
 6 -12.25020250865087 -0.99764217541754 -3.43683880248025
 7 -7.19892936123612 -1.39567918151815 -0.23095777277728
 6 -8.29507974777478 -2.21981715381538 -0.54083903910391
 6 -7.77695384098410 -3.53681194869487 -0.55618289558956
 6 -6.43130701480148 -3.53558789578958 -0.14926665856586
 6 -6.16955955235524 -2.22474075537554  0.03752655685569
 6 -8.64523199059906 -4.78104094649465 -0.84626310471047
 6 -5.28209267956796 -4.39473335683568  0.28103097569757
 8 -5.08706754465446 -5.52469695309531  0.29509654035404
 6 -4.14839841924192 -3.26258204800480  0.58933879917992
 6 -3.56741737263726 -3.69115433673367  1.89084945784578
 8 -3.75072667326733 -3.03040977717772  2.94604728582858
 8 -2.69395058875888 -4.72209693209321  1.81799037993799
 6 -2.12428301620162 -5.11518574767477  3.11566650215021
 6  2.82239475117512 -0.47730552515252 -1.27095829622962
 6  4.21784387338734 -0.38662683898390 -0.52697284628463
 6  5.22443592799280  0.41132739813981 -0.89819959265927
 6  5.08246666966697  1.35508815811581 -1.99302346764676
 6  6.49461379417942  0.42157400760076 -0.06788327352735
 6  7.78347588548855 -0.14993534043404 -0.81534848534853
 6  8.98453032563256 -0.13543867426743 -0.01043285608561
 6  10.26880750525052 -0.55193226492649 -0.81244221472147
 6  10.14576127632763 -2.10689162526253 -1.23817728272827
 6  11.43914679157916 -0.28875265606561  0.08013888248825
 6  12.76771167886789 -0.42312636373637 -0.66355637853785
 6  14.01916138453845 -0.08186938973897  0.16245331283128
 6  15.30694681958196 -0.19279300840084 -0.43148138793879
 6  15.58275994489449 -1.62943057685769 -0.78460807850785
 6  16.38299240514051  0.31253561356136  0.46527103430343
 6  17.80121471087109  0.44516591499150 -0.17561337593759
 6  18.79679004850485  1.23044126112611  0.73433386638664
 6  20.22495116431643  1.32027236073607  0.02389715291529
 6  20.35050640444044  1.96026432363236 -1.36295728842884
 6  21.37060799159916  1.74764770107011  1.00393575697570
 1 -4.38052953745375  3.47875339673967  1.80995558245825
 1 -10.23959435213521  3.86345718071807 -0.23543893539354
 1 -10.39934322372237 -2.43325266606661 -1.03828048024803
 1 -2.70318677557756 -1.10812912681268  1.94163485468547
 1 -2.50271387658766  1.72662624522452  1.08866951735174
 1 -1.88372282978298  1.10600105300530  3.54514822832283
 1 -3.02051711171117  2.45211926942694  3.47387955335534
 1 -3.65407885058506  0.78680336433643  3.68655106790679
 1 -1.76132861776178 -1.75553551395139 -0.06195010421042
 1 -1.98243991649165 -0.00715346494649 -0.64965500510051
 1 -0.35644916231623  0.52653726762676  0.98421882098210
 1 -0.10333813581358 -1.24204872007201  1.17315127032703
 1 -5.94397317271727  6.82135077917792  0.90869657885789
 1 -5.68760574997500  5.84330769386939  2.17528382548255
 1 -4.64116807280728  5.47362852925292  0.97943111871187
 1 -9.34587664016402  5.84009015711571 -0.73773400160016
 1 -9.38000921682168  7.77110784968497  0.59492911471147
 1 -8.03866333213321  7.18625502500250  1.91795018051805
 1 -12.23482758785879  3.24464479047905 -2.02497550225022
 1 -13.32468213741374  1.76802069326933 -1.67150834233423
 1 -12.35764749584959  2.86471512621262 -0.34054529852985
 1 -12.61921670007001 -1.88836828192819 -1.42986794169417
 1 -13.37266598549855 -0.26677341414141 -1.64534006150615
 1 -13.15439179177918 -1.64763945014501 -3.76006589108911
 1 -12.13779734393439  0.04911037343734 -3.89120261596160
 1 -11.44394067336734 -1.70273514061406 -3.77841646164616
 1 -9.07702730573057 -4.79383012591259 -1.80546381048105
 1 -8.04052341714171 -5.57615761996200 -0.68533814681468
 1 -9.59340922582258 -4.96396141744174 -0.16469829242924
 1 -3.48852954885489 -3.31802505320532 -0.42629790129013
 1 -1.46805497199720 -4.19247568726873  3.38746166146615
 1 -3.17078668726873 -5.07401901950195  3.84381722062206
 1 -1.61236934843484 -5.98951822502250  3.05873982688269
 1  2.58037734183418 -1.41989382528253 -1.72100606560656
 1  2.75918339593959  0.37745202480248 -1.93796694889489
 1  4.52238314391439 -0.96916913211321  0.32123533953395
 1  3.92535149864986  1.60550926132613 -2.19128749844984
 1  5.70986639833983  2.27281754065407 -1.61078754695470
 1  5.63128043564356  1.11078218571857 -2.95237396839684
 1  6.62256431933193  1.43975797579758  0.23829647244724
 1  6.19705382478248 -0.34434247164717  0.82110182688269
 1  7.47478486318632 -1.26975621082108 -1.15355667926793
 1  7.82524496039604  0.37148035613561 -1.73764668826883
 1  9.14768682028203  0.83811169616962  0.45823345554555
 1  8.54003249194920 -0.82999850605060  0.88408627232723
 1  10.21347889928993  0.08818135583558 -1.76059094859486
 1  9.28097308280828 -2.08553653015301 -1.96268219301930
 1  11.02995555125513 -2.32620940484048 -1.75969021292129
 1  9.85514840084008 -2.81002294429443 -0.41517095679568
 1  11.34098177907791  0.76849908010801  0.24833632113211
 1  11.44015706910691 -0.90874683598360  0.95098572017202
 1  12.96349966886689 -1.51735989718972 -0.81755942354235
 1  12.68798255075508  0.21149184018402 -1.56500986228623
 1  13.86631806850685  0.99110166616662  0.70328767176718
 1  14.00865361846185 -0.90009961466147  0.75781229772977
 1  15.25551884038404  0.41191067606761 -1.38376273427343
 1  15.53639108200820 -2.01811210331033  0.04952349844985
 1  14.79423247394740 -2.00488286388639 -1.45052246734673
 1  16.24652428182818 -1.86689221412141 -1.42383385288529
 1  16.17165236593659  1.38778661236124  0.91139768406841
 1  16.38880332753275 -0.37753692879288  1.34329709090909
 1  18.38251919061906 -0.71250779817982 -0.32680602100210
 1  17.99430649514952  1.00673799269927 -1.13656723252325
 1  18.52274306690669  2.23929808750875  0.86124412971297
 1  18.96489364966497  0.82313649464947  1.68651865216522
 1  20.74238915161516  0.35540168836884 -0.17289022502250
 1  20.10220432703270  2.93496705860586 -1.32138573197320
 1  21.51716596869687  2.03586023882388 -1.70248161146115
 1  19.39109301370137  1.73826563736374 -1.98518548754876
 1  21.47905388058806  1.12139024812481  1.92817243444344
 1  22.31116282258226  1.92301353105311  0.32916788308831
 1  21.12329205910591  2.74045412871287  1.40286072657266
>>>>>>> 8e03b5b5abfc0030b3aa597dc0de36371bfbd096

