%nproc=4
%Mem=2GB
# td=(NStates=1) CAM-B3LYP/6-31G(d,p) 

TD

0 1
<<<<<<< HEAD
12 -7.17399797279728  0.55534428252825  0.08340602800280
 6 -4.86259087708771 -2.00084126252625  0.42087862056206
 6 -4.82123205210521  2.88411685898590  1.11817818271827
 6 -9.42936767226723  3.01485698119812 -0.35906876657666
 6 -9.53931424512451 -1.75249076007601 -0.82339876897690
 7 -5.16247967256726  0.46029584768477  0.68127854615462
 6 -4.36900660676068 -0.77367718971897  0.78816683988399
 6 -2.96072507790779 -0.43075250095009  1.28521887608761
 6 -3.01811524992499  1.05037770607061  1.58845957665767
 6 -4.43785077997800  1.48904965376538  1.09734676457646
 6 -2.86338142024202  1.17376966506651  3.12768417731773
 6 -1.93341680268027 -0.66823208460846  0.04448840714071
 6 -0.54549197179718 -0.41275562276228  0.49666379567957
 6  0.49801093829383 -0.70644415731573 -0.63775915641564
 8  0.14405564566457 -0.92569797739774 -1.83282961466147
 8  1.69299110961096 -0.46504390079008 -0.33026981588159
 7 -7.03587403530353  2.56480207000700  0.30192888838884
 6 -6.08870814981498  3.31733270907091  0.75552908650865
 6 -6.40485773887389  4.76728101750175  0.79926061326133
 6 -7.69019172617262  4.80616124762476  0.39177756905691
 6 -8.16801107270727  3.40778997429743  0.09624217051705
 6 -5.49132708940894  5.85935840174017  1.12660742124212
 6 -8.51620941854185  6.07465849954996  0.05282226762676
 6 -8.35775966726673  7.19419553815382  0.78502475227523
 7 -9.15139741234123  0.64090695179518 -0.50638467216722
 6 -9.88470473017302  1.73887384048405 -0.56112243634363
 6 -11.29606870347035  1.34924326342634 -1.00578229772977
 6 -11.27148955285529  0.02008737283728 -1.13522223622362
 6 -9.89006468716872 -0.37539951425143 -0.84213923002300
 6 -12.43124194789479  2.37396796779678 -1.35079185398540
 6 -12.39810435673567 -0.84492190229023 -1.63586439493949
 6 -12.42117960636064 -1.00197260846085 -3.28648376697670
 7 -7.18998846714672 -1.43257287088709 -0.14242891989199
 6 -8.30470070987099 -2.30481565366537 -0.56024097929793
 6 -7.87140328592859 -3.65544381188119 -0.50409768706871
 6 -6.47471135523552 -3.56051038803880 -0.26661839373937
 6 -6.19092168856886 -2.22581086238624  0.09723252745275
 6 -8.74068153555355 -4.76012885528553 -0.68622710111011
 6 -5.32895736603660 -4.42977686118612  0.13735660826083
 8 -5.19401823972397 -5.61422590599060  0.14336136683668
 6 -4.18919249864986 -3.29691548134813  0.45421528682868
 6 -3.64672530343034 -3.59075429672967  1.81124149704970
 8 -3.85441704230423 -3.02719945614561  2.88701138223822
 8 -2.59594078777878 -4.51444616701670  1.73404198509851
 6 -2.07983857175718 -4.86303053215322  3.10258519401940
 6  2.88368087978798 -0.53752154675468 -1.29402060246025
 6  4.09860194919492 -0.38530670697070 -0.52741289028903
 6  5.08771225562556  0.33663992939294 -1.07840761346135
 6  5.06745516851685  1.24870752005201 -2.23586775207521
 6  6.36232056485649  0.25784763496350 -0.25984246944694
 6  7.75835337323732 -0.28073842074207 -0.84129107960796
 6  8.94650652325233 -0.13055818621862  0.05980416761676
 6  10.20783140764076 -0.56101317301730 -0.77574854535454
 6  10.18275497569757 -2.16262719881988 -1.17651111611161
 6  11.47839071597160 -0.18543232403240  0.07963883248325
 6  12.77451235893589 -0.38638268936894 -0.57200722362236
 6  14.02507197559756  0.10246904410441  0.20419748724872
 6  15.31774789968997 -0.04404813391339 -0.56043428322832
 6  15.51983365226523 -1.61423905770577 -0.94302392009201
 6  16.47326143204321  0.37580194019402  0.43292779998000
 6  17.92100669006901  0.50242164056406 -0.23519933453345
 6  18.86030640014001  1.32888110511051  0.70435086808681
 6  20.30598926812681  1.37702803630363  0.29381414461446
 6  20.46503785758576  1.98178647584758 -1.09089008170817
 6  21.34788571937194  1.84335727202720  1.35175053845385
 1 -3.97582906740674  3.26713223462346  1.63333792069207
 1 -10.09678007070707  3.73660449544955 -0.55044043554355
 1 -10.37018030743074 -2.48197753855385 -1.12581923412341
 1 -2.70049650655066 -0.99106742064206  2.22977366856686
 1 -2.39221282648265  1.75500908350835  1.17370802120212
 1 -1.92987744524452  0.84734518741874  3.35551926542654
 1 -2.76762182218222  2.25558961646165  3.52577474287429
 1 -3.47498094079408  0.62411709570957  3.71720413321332
 1 -2.30023250815082 -1.52693265366537 -0.36812072127213
 1 -2.34524619711971 -0.03008575817582 -0.77724776437644
 1 -0.17443096049605  0.69490410431043  0.50274067316732
 1  0.03627582558256 -0.90564507970797  1.67581153635364
 1 -5.82548132353235  6.79661830593059  0.66389209840984
 1 -5.32700969036904  6.01139450255025  2.14443074017402
 1 -4.48599255525553  5.59593075947595  0.59918309390939
 1 -9.12608466096610  6.00308645674567 -0.89002923112311
 1 -8.87054827072707  8.16603734263426  0.63642326412641
 1 -7.71749121492149  7.12003840334033  1.69308769426943
 1 -11.93448755385539  2.97408773477348 -2.18804180888089
 1 -13.46878654785479  2.14890878207821 -1.55677686918692
 1 -12.59258098919892  3.02116077077708 -0.55039628362836
 1 -12.29137391579158 -1.84184362946295 -1.31887684258426
 1 -13.16421514041404 -0.18950568736874 -1.45162068956896
 1 -13.15959231183118 -1.48314300050005 -3.40884076857686
 1 -12.55195876007601  0.05441090349035 -3.72139563526353
 1 -11.52060834013401 -1.42344721182118 -3.70677929792979
 1 -8.96527613061306 -4.99006974987499 -1.80756402050205
 1 -8.05244460926093 -5.70621062526253 -0.12919253225323
 1 -9.78763864876488 -4.73758878017802 -0.26381820442044
 1 -3.42989368526853 -3.36458970967097 -0.31065633713371
 1 -1.56972513901390 -4.05841228092809  3.59147206250625
 1 -2.97904751335134 -5.08488010561056  3.66072891179118
 1 -1.47001511301130 -5.85744501770177  2.85803975687569
 1  2.72524182828283 -1.72082391829183 -1.80378434343434
 1  2.57101457905791  0.34123840344034 -1.96833998619862
 1  4.17964887048705 -1.12754496969697  0.18507172317232
 1  4.05572453595360  1.44749345974597 -2.76162453215322
 1  5.55059047074707  2.13759401830183 -1.88343481168117
 1  5.62113942154215  0.81177228472847 -3.06849558055806
 1  6.43466552945294  1.32299629962996 -0.06778413561356
 1  6.11099521892189 -0.28775681308131  0.72276199289929
 1  7.54797218191819 -1.42118135333533 -0.94677600120012
 1  7.78113054895489  0.18977218531853 -1.92855577917792
 1  9.10829288088809  0.96484436943694  0.07506513871387
 1  8.77857634633463 -0.85832133833383  0.86804466816682
 1  10.30136768816882  0.03347588528853 -1.56674156365637
 1  9.09835482098210 -2.29042701920192 -1.48263418821882
 1  10.88379093479348 -2.43279006290629 -1.82086633053305
 1  10.25558844484449 -2.73014495649565 -0.22366180588059
 1  11.28975665656566  0.72528475867587  0.43897538503850
 1  11.46341939533953 -0.81258722002200  0.90066068766877
 1  12.92022534143414 -1.48526668786879 -0.90041770937094
 1  12.63195694819482  0.16810750175017 -1.62276563786379
 1  13.77853929062906  1.06862941894189  0.67188453145315
 1  14.20538329142914 -0.54117372207221  1.06965348184818
 1  15.26375966446645  0.61935142014201 -1.41895625362536
 1  15.52283972687269 -2.18499879197920 -0.16590804470447
 1  15.06755980668067 -1.93274565016502 -1.92264968006801
 1  16.42195182458246 -1.48001352625262 -1.46730820032003
 1  16.42014721542154  1.44368220192019  0.68838538283828
 1  16.35101954915491 -0.21113028812881  1.27592035323532
 1  18.31158209690969 -0.48664521192119 -0.38615195559556
 1  17.88376544104410  1.11419873877388 -1.19934351015101
 1  18.45721651425142  2.31368552625263  0.93010101540154
 1  18.73735089538954  0.70669485048505  1.64574457475748
 1  20.55540045274527  0.27128327652765  0.12808987298730
 1  20.10165427202720  3.10284384628463 -0.96761035443544
 1  21.57529178127813  2.17952460526053 -1.53609497279728
 1  20.00223412781278  1.39640145094509 -1.71951892089209
 1  21.41071704690469  1.03863197229723  2.18274789198920
 1  22.57046875317532  1.83900513021302  0.98954392069207
 1  21.18421815171517  2.83674375767577  1.88392883338334
=======
12 -7.14256482948295  0.60943969206921  0.01718940634063
 6 -4.83626824482448 -2.00048122652265  0.43333986668667
 6 -4.88019794869487  2.74641308860886  1.18047441234123
 6 -9.46040077557756  2.98829432493249 -0.38571143084308
 6 -9.65559587328733 -1.79082459345935 -0.81571800090009
 7 -5.15092851745175  0.42837265536554  0.68918933723372
 6 -4.41274098019802 -0.72934275627563  0.78069609280928
 6 -2.89457846324632 -0.31522094779478  1.18634898909891
 6 -3.01526496489649  1.09545221352135  1.60581131183118
 6 -4.48854584948495  1.49864061286129  1.22205923582358
 6 -2.72856793889389  1.40742303040304  3.17314872377238
 6 -1.84064752575257 -0.60281554295430  0.23772773107311
 6 -0.39067649024902 -0.49650399759976  0.66692082138214
 6  0.67147828502850 -0.68029154205421 -0.47780316081608
 8  0.33103434353435 -0.95389079667967 -1.63103943564356
 8  1.82342415291529 -0.50021741814181 -0.07789457835784
 7 -7.13433388128813  2.58495408520852  0.34276297179718
 6 -6.05092437143714  3.34567554335434  0.72198573217322
 6 -6.43561081418142  4.70210449984998  0.77411809900990
 6 -7.76776948394839  4.77749838133813  0.29868826012601
 6 -8.27956222782278  3.50242943824382  0.08742128842884
 6 -5.52601055775578  5.92253471937194  1.01253601410141
 6 -8.57344514211421  5.99393042674267  0.07234421982198
 6 -8.46139003030303  7.14608072667267  0.72596884668467
 7 -9.20281255385539  0.58304116521652 -0.46409044274427
 6 -9.97540380008001  1.66008596169617 -0.61966829092909
 6 -11.27958705530553  1.37143548264826 -1.11053277277728
 6 -11.23770617451745  0.01495685978598 -1.16986570057006
 6 -9.97069274997500 -0.41727370167017 -0.82437745384538
 6 -12.33469229292929  2.44185475647565 -1.36610338513851
 6 -12.54442898919892 -0.70415782588259 -1.61826263476348
 6 -12.48696618501850 -1.05834824602460 -3.13301842044204
 7 -7.20189965826583 -1.40170978457846 -0.16677135413541
 6 -8.22517275707571 -2.28309348144814 -0.48366332153215
 6 -7.88451459705971 -3.66127439493949 -0.50443772107211
 6 -6.48281216531653 -3.55051938893889 -0.05103683558356
 6 -6.10541313771377 -2.22958123942394 -0.00771796759676
 6 -8.67700516791679 -4.86454929732973 -0.82231070947095
 6 -5.36273074337434 -4.38704258775878  0.20495336793679
 8 -5.16159499739974 -5.60089457285729  0.28269530023002
 6 -4.22034561396140 -3.37106289608961  0.48369823512351
 6 -3.43243387428743 -3.63311853315332  1.77508788168817
 8 -3.57057865846585 -3.00350708690869  2.78023070417042
 8 -2.72392358605861 -4.66860158255826  1.76277485838584
 6 -2.17467805570557 -5.22460668976898  3.06680161566157
 6  2.85893840554055 -0.62069986458646 -1.07757895829583
 6  4.10750283928393 -0.26217439373937 -0.56124627362736
 6  5.12976646104610  0.44039030443044 -1.07526729942994
 6  4.99990841384138  1.16010866016602 -2.38028219351935
 6  6.44159849264927  0.65456730693069 -0.32816930213021
 6  7.56504404230423  0.07431708480848 -1.10810776127613
 6  8.97682955555556  0.14521939153915 -0.30493230603060
 6  10.24033465796580 -0.46813388508851 -1.07565853635364
 6  10.09650635083508 -1.92658359445945 -1.42258572357236
 6  11.49701257815782 -0.15812959375938 -0.20753988538854
 6  12.81602651035104 -0.35606965806581 -0.85894591749175
 6  14.05938540694069  0.06392518971897 -0.01615454795480
 6  15.36035216011601 -0.19175290439044 -0.53486172597260
 6  15.62417408630863 -1.55646328012801 -0.88799841754175
 6  16.45027913381338  0.37102146214621  0.45322983018302
 6  17.93513810321032  0.42564396279628  0.04317850325032
 6  18.73068343784378  1.29240745774577  0.91445187818782
 6  20.26335500470047  1.01849218271827  0.45813057625763
 6  20.52684403820382  1.70646894409441 -0.92266325902590
 6  21.11486241704171  1.74062699899990  1.44434979837984
 1 -4.29158064256426  3.44272979437944  1.68102268916892
 1 -10.20279067176718  3.86688752375237 -0.61464685618562
 1 -10.24924821422142 -2.62913225402540 -0.96272292449245
 1 -2.65370182708271 -1.12130044394439  2.07659835103510
 1 -2.19671327652765  1.81901548414842  1.22591324172417
 1 -1.70701515901590  1.01858231113111  3.64386810031003
 1 -2.95170023002300  2.44594865236524  3.50885305070507
 1 -3.46900034273427  0.77100178417842  3.82399481228123
 1 -2.03511599649965 -1.55205516591659 -0.43586749594960
 1 -1.79319099159916  0.07714496489649 -0.78597863746375
 1 -0.21429494689469  0.67846246014601  1.08215861496150
 1 -0.15165296729673 -1.13560807600760  1.49165312051205
 1 -5.93822259765977  6.62427107120712  0.32689839903990
 1 -5.57770475987599  6.13319668276828  2.15276157325733
 1 -4.42975693169317  5.77751891829183  0.89391256685669
 1 -9.50324237673767  5.86992314041404 -0.50678090629063
 1 -9.14107532343234  7.88798953785378  0.62678230003000
 1 -7.77177664346435  7.25082148164817  1.52513089858986
 1 -11.86811091619162  3.20701102710271 -2.06203920862086
 1 -13.26042571177118  1.89129302050205 -1.83259445094509
 1 -12.61998372947295  3.11641029572957 -0.51418266226623
 1 -12.62901768016802 -1.77205665076508 -1.08115307020702
 1 -13.42935165406541 -0.05999273607361 -1.35379090659066
 1 -13.26784313691369 -1.54372905910591 -3.68711859635964
 1 -12.31206477067707  0.00799626202620 -3.53240673637364
 1 -11.58671495079508 -1.71921678877888 -3.29808842884288
 1 -9.19838944194420 -4.83106384928493 -1.86714997909791
 1 -8.08470783558356 -5.80159016321632 -0.83785339833983
 1 -9.64957484238424 -5.03295831713171 -0.17932975557556
 1 -3.48620931683168 -3.69496274697470 -0.45170044154415
 1 -1.44568273477348 -4.54698113781378  3.41544445974597
 1 -2.98645825442544 -5.31007262486249  3.83953679257926
 1 -1.58034614611461 -6.20007928112811  2.74326827972797
 1  2.77921722582258 -1.81980381628163 -1.50965493049305
 1  2.59688716631663  0.17405168476848 -1.86921007320732
 1  4.53662456805681 -0.70717293249325  0.48766198219822
 1  3.88866783028303  1.42399110951095 -2.64958332803280
 1  5.71886729842984  2.19606986588659 -2.61295776397640
 1  5.16715402300230  0.37547865536554 -3.34345307630763
 1  6.53202526542654  1.70803480348035 -0.19343670087009
 1  6.39093321272127 -0.03032106950695  0.56152586928693
 1  7.56398378307831 -1.00619985518552 -1.34158548214821
 1  7.75231766766677  0.57919112721272 -2.05420834443444
 1  9.10241229282928  1.22132001700170 -0.18971133893389
 1  8.86046453515352 -0.23483899009901  0.85528339203920
 1  10.45644319571957  0.07106964466447 -1.93093798329833
 1  9.14825981148115 -2.33567154365437 -1.86667259205921
 1  11.06029858555856 -2.23750053395340 -2.11852609650965
 1  10.00497338333833 -2.70074201620162 -0.60026946664666
 1  11.53011069196920  0.72345457565757 -0.05846435893589
 1  11.53379643304330 -0.73511947324732  0.75332595419542
 1  12.72576589548955 -1.48336649784979 -1.00323799139914
 1  12.77677142964296  0.19811050205020 -1.76598996029603
 1  14.02937437413741  1.06523907990799  0.32387973097310
 1  14.17906065916592 -0.44048365306531  1.04516103260326
 1  15.49408269676968  0.42395188018802 -1.32338669666967
 1  15.58467591049105 -2.19570986308631 -0.04967642154215
 1  14.80659371007101 -1.84110648624862 -1.64039145424542
 1  16.62545217461746 -1.46973249814982 -1.37883935343534
 1  16.18844404510451  1.48400623432343  0.53139968426843
 1  16.26546099329933 -0.07942711781178  1.61688444964496
 1  18.22946388508851 -0.66018256565657  0.00351701130113
 1  18.02773983848385  0.97812513141314 -0.83969754555456
 1  18.44788558115811  2.23277743544354  1.16558456375638
 1  18.53748090839084  0.73117729872987  1.89138913921392
 1  20.41670658335834 -0.09757360916092  0.32859992399240
 1  20.26716082268227  2.82746630853085 -0.85082867626763
 1  21.57121137323733  1.59146579937994 -1.10083144644464
 1  19.90091399579958  1.34933674447445 -1.70455742474247
 1  21.19614558975898  1.23196130523052  2.42394201140114
 1  22.34965667196720  1.72117334703470  1.40177514381438
 1  20.85265499539954  2.80804088738874  1.69311975247525
>>>>>>> 8e03b5b5abfc0030b3aa597dc0de36371bfbd096

