%nproc=4
%Mem=2GB
# td=(NStates=1) CAM-B3LYP/6-31G(d,p) 

TD

0 1
<<<<<<< HEAD
12 -7.16599717271727  0.53812256035604  0.07427511491149
 6 -4.80588520652065 -1.88153933233323  0.49227576027603
 6 -4.88434836373637  2.82221066836684  1.19043540844084
 6 -9.39940467596760  3.02850834633463 -0.36737959765977
 6 -9.59304961866187 -1.74100961196120 -0.80388681778178
 7 -5.03322674727473  0.39044886298630  0.69294971327133
 6 -4.32729243534353 -0.69139896189619  0.77952597579758
 6 -2.88223722912291 -0.38214764046405  1.26852720692069
 6 -3.06931036943694  1.07269993829383  1.74628535923592
 6 -4.43960095499550  1.48723947274727  1.25354238413841
 6 -2.85839092119212  1.34104639273927  3.20059146804680
 6 -1.90848430943094 -0.54095935733573  0.13742770107011
 6 -0.49155657825783 -0.33558790599060  0.55876000530053
 6  0.44462559975998 -0.58805231813181 -0.56072145264526
 8  0.21169240934093 -0.85511091869187 -1.70466679837984
 8  1.69863167366737 -0.43296069246925 -0.05535232413241
 7 -7.22632308020802  2.64241983178318  0.38189688518852
 6 -6.10096937593759  3.37755873167317  0.76880041364136
 6 -6.46984423752375  4.70871516091609  0.80900158735874
 6 -7.82197490449045  4.81015164666467  0.25824421572157
 6 -8.17823209480948  3.47161635693569  0.06431897819782
 6 -5.60346830353035  5.89240170607061  0.94277903840384
 6 -8.71782958055806  5.99609064276428  0.14195118051805
 6 -8.49167305860586  7.18419453805381  0.75285153495350
 7 -9.13093536613661  0.53745660676068 -0.52960699439944
 6 -9.91668792849285  1.68426837993799 -0.65027135123512
 6 -11.20561965856586  1.39229756885689 -1.14631635113511
 6 -11.23497590149015 -0.00657529342934 -1.33730244424442
 6 -9.91791747244724 -0.42760473477348 -0.94218923502350
 6 -12.29983880758076  2.41346191719172 -1.46109288408841
 6 -12.35701024732473 -0.71913932403240 -1.88866967546755
 6 -12.20875836423642 -1.13791620282028 -3.34513963256326
 7 -7.23798326662666 -1.37286690029003 -0.09368404540454
 6 -8.32255249504951 -2.29305447754775 -0.36975193039304
 6 -7.78698484408441 -3.65606387388739 -0.57413469076908
 6 -6.42641652575258 -3.59072340934093 -0.22679441134113
 6 -6.23409600600060 -2.19592787408741  0.12567537173717
 6 -8.75685315271527 -4.81688453085308 -0.65201367976798
 6 -5.29507397769777 -4.35048893239324  0.14416728932893
 8 -5.10575941384138 -5.60525500890089  0.35516254695470
 6 -4.19068264766477 -3.31219700950095  0.44001386668667
 6 -3.49840047094709 -3.60251547284728  1.78314868776878
 8 -3.56910851145115 -3.11460819701970  2.86309899099910
 8 -2.64190538423842 -4.72847757015702  1.65718429932993
 6 -2.10287087498750 -5.20185441454145  2.89544447994800
 6  2.77509002070207 -0.66428422302230 -1.03145434583458
 6  4.06426851585159 -0.31604978127813 -0.39456960596060
 6  5.12491597599760  0.39243550895089 -0.82123189588959
 6  5.11711013401340  1.22959560886089 -2.01512567786779
 6  6.41930626342634  0.39429127932793 -0.02200868606861
 6  7.63630116801680  0.03735338843884 -0.95137208770877
 6  8.89046091869187 -0.01855698609861 -0.11368318111811
 6  10.18853947844784 -0.40174724642464 -0.82261323182318
 6  10.08840554075407 -1.88255919201920 -1.38052151715172
 6  11.41798467536754 -0.10238401920192 -0.00109924132413
 6  12.80899580728073 -0.57089114021402 -0.70535055795580
 6  13.94691415981598 -0.17303850665067  0.17534460196020
 6  15.36032215711571 -0.25988971807181 -0.45153339313931
 6  15.67985965486549 -1.65596323012301 -0.99118873657366
 6  16.45718982488249  0.29343370337034  0.39952445964596
 6  17.77394198359836  0.57861926032603 -0.28907472207221
 6  18.89875024452445  1.26204442144214  0.68560899389939
 6  20.34438310751075  1.20903123662366  0.17663242644264
 6  20.45745709950995  2.01287958515852 -1.11225221792179
 6  21.28431936273627  1.67846078237824  1.26690205360536
 1 -4.29806129062906  3.45576109750975  1.80344493139314
 1 -10.09321971467147  3.81894272927293 -0.63027841934193
 1 -10.27141043044304 -2.40361970277028 -1.36944359655966
 1 -2.52187864476448 -1.07890620452045  2.01777246844684
 1 -2.37185079027903  1.69965354795480  1.04057470787079
 1 -1.82219667716772  1.18203865676568  3.65196891039104
 1 -2.95273033303330  2.48794285178518  3.33998616401640
 1 -3.61900534323432  0.75131981598160  3.81931434423442
 1 -2.04744722962296 -1.53803376377638 -0.44638854805481
 1 -2.18212988548855  0.33103035343534 -0.57481752135213
 1 -0.25977949534953  0.55020963486349  1.08791919101910
 1 -0.35228303030303 -1.12127664286429  1.33988794399440
 1 -5.72465124052405  6.84473311741174  0.59468517771777
 1 -5.46642363176318  6.10543390649065  2.11432772987299
 1 -4.43582753875388  5.86028719511951  0.76769994559456
 1 -9.45135718821882  5.91565771387139 -0.71327155535554
 1 -9.09559077497750  8.04569530843084  0.40886050785078
 1 -7.58618808460846  7.46622302180218  1.35962434793479
 1 -11.99818392349235  3.09773009900990 -2.37199020372037
 1 -13.18975864506451  1.95558945014501 -1.53684487598760
 1 -12.56148787988799  3.12721137583758 -0.63196444044404
 1 -12.40886566496650 -1.68333777887789 -1.30431538643864
 1 -13.40114883378338 -0.10366710351035 -1.78390391789179
 1 -13.12432878547855 -1.61087577377738 -3.53021290579058
 1 -12.30602416661666 -0.32132667026703 -4.08306180188019
 1 -11.34590086938694 -1.64962983008301 -3.47939655965597
 1 -9.10165976897690 -4.94806554945495 -1.77186045014501
 1 -8.06788615341534 -5.53339334353435 -0.37623723672367
 1 -9.91832171707171 -4.84936995829583 -0.12713453605360
 1 -3.56046674257426 -3.27078032873287 -0.24151942344234
 1 -1.48750691719172 -4.24360079977998  3.26651956725673
 1 -3.04928453705371 -5.27554917251725  3.61088392729273
 1 -1.37849596109611 -5.81203047624763  2.78084203710371
 1  2.79445874997500 -1.67632946884688 -1.70775474047405
 1  2.33513099069907  0.06762104170417 -2.00589374157416
 1  4.16399730533053 -0.89463167836784  0.62167538353835
 1  4.05609457295730  1.55246395679568 -2.37636600630063
 1  5.70216562826283  2.13324358325833 -2.13988045624562
 1  5.49050635823582  0.68829993749375 -2.91273000400040
 1  6.45081714461446  1.48665266526653  0.44154679747975
 1  6.35165928532853 -0.46991502890289  0.77967768446845
 1  7.55261264596460 -1.05952518771877 -1.21229255285529
 1  7.93702613851385  0.46919012711271 -1.78547147074707
 1  9.11848389999000  1.03352123712371  0.19952758495850
 1  8.48775726442644 -0.66031153735374  0.82825068876888
 1  10.17503505490549  0.25389792749275 -1.69361425092509
 1  9.30789577507751 -2.06252422892289 -2.29619554435444
 1  11.16935949164917 -2.01792857675768 -1.99260350425043
 1  9.86792967896790 -2.38338028002800 -0.54751419111911
 1  11.57024470537054  1.00644287448745  0.20785227272727
 1  11.32211526492649 -0.81751771307131  0.92365298689869
 1  12.97347066596660 -1.55473363456346 -1.10819848744875
 1  12.96556030853085 -0.01878118711871 -1.89772313361336
 1  13.72469390609061  0.88745130113011  0.52224956795680
 1  14.03314606770677 -0.67330693539354  1.21311782828283
 1  15.38921220972097  0.17043652865287 -1.50065442344234
 1  15.73794123702370 -2.56828712081208 -0.16338779267927
 1  14.85489854055406 -1.97806018161816 -1.58951636673667
 1  16.54455408480848 -1.72539806470647 -1.38644011351135
 1  16.24352955365536  1.27157499119912  0.84887143144314
 1  16.52653710091009 -0.41927110221022  1.17230999219922
 1  18.19946088478848 -0.28151469886989 -0.57521086148615
 1  17.64464152865287  1.13599091799180 -1.06430000580058
 1  18.27389818241824  2.28444260196020  0.93318132343234
 1  18.72564972527253  0.71669585058506  1.49737973827383
 1  20.54905981868187  0.10482663086309 -0.05242817881788
 1  19.96038014461446  3.07763132503250 -1.33848744214421
 1  21.55028928102810  2.07204385718572 -1.28128949224922
 1  20.02846675107511  1.19399120992099 -1.90545751475147
 1  21.00854682988299  1.19836794589459  2.18691830903090
 1  22.44184589088909  1.63542477217722  1.22037700400040
 1  21.20649037893790  2.81613169646965  1.48828926942694
=======
12 -7.19883045604560  0.62680142824282  0.01319900730073
 6 -4.84133875187519 -1.94776595499550  0.47819435213521
 6 -4.90992092099210  2.80356880418042  1.16886325122512
 6 -9.46456119161916  3.16394188968897 -0.40411327102710
 6 -9.53185349904991 -1.61547705870587 -0.86412284138414
 7 -5.11166459105911  0.34662448054805  0.90892131043104
 6 -4.32395210131013 -0.70984080608061  0.77953597679768
 6 -2.89653865926593 -0.37677710341034  1.19297965216522
 6 -2.98713215161516  1.08768143644364  1.71451218191819
 6 -4.40418741364136  1.45493624242424  1.25313234313431
 6 -3.07299238133813  1.29478176627663  3.30468187708771
 6 -1.97004046504650 -0.60206546794679  0.11668562686269
 6 -0.44555197779778 -0.43368771597160  0.62365649494950
 6  0.58098923612361 -0.75587910081008 -0.51059644014401
 8  0.29966120622062 -1.17730313791379 -1.59844617631763
 8  1.86175798629863 -0.50520791719172 -0.09714650355036
 7 -7.17380782868287  2.57172276207621  0.28249694519452
 6 -6.08938821782178  3.27312828862886  0.76312984658466
 6 -6.46163341644164  4.74978926832683  0.77413810101010
 6 -7.74297700470047  4.75876650815081  0.34873326462646
 6 -8.12670694229423  3.49818901420142  0.07021956825683
 6 -5.52027998469847  5.82378484438444  1.25317007750775
 6 -8.50398819641964  6.04989602330233  0.11248823422342
 6 -8.34665855715572  7.22150826942694  0.74359060886089
 7 -9.08254052665266  0.75895875697570 -0.60442447614761
 6 -9.95324158385839  1.79824977807781 -0.76242256635664
 6 -11.27764686128613  1.42765110421042 -1.06433815331533
 6 -11.27047945184518  0.08423378747875 -1.29030774477448
 6 -9.94240992169217 -0.36595857015702 -0.96172118821882
 6 -12.35950477417742  2.41333190419042 -1.37865464026403
 6 -12.45689023532353 -0.75535294539454 -1.69628043654365
 6 -12.55288277667767 -1.12546495769577 -3.17710282888289
 7 -7.26892636093609 -1.36110572417242 -0.26659133613361
 6 -8.31713195299530 -2.16437160926093 -0.59638459365937
 6 -7.91788793439344 -3.59476774427443 -0.53008028532853
 6 -6.57043092719272 -3.53051738873887 -0.16287801970197
 6 -6.21920451685169 -2.17557583888389  0.08239104330433
 6 -8.70021748914891 -4.81447428982898 -0.81478995739574
 6 -5.44067853815382 -4.33362724622462  0.13420629322932
 8 -5.36224506240624 -5.53099758315831  0.19438646934693
 6 -4.24389796919692 -3.28819460926093  0.44859472477248
 6 -3.60501113201320 -3.59549477077708  1.78792916581658
 8 -3.78109971057106 -2.89320605680568  2.78866154725473
 8 -2.85032622632263 -4.77651237363736  1.74586316721672
 6 -2.09002959085909 -5.05651988108811  2.93694863036304
 6  2.86420893259326 -0.89794758935894 -1.13243444384438
 6  4.19628171717172 -0.57775595189519 -0.51153130213021
 6  5.13275676007601  0.20627689308931 -0.88524829752975
 6  5.11675009800980  0.94206685598560 -2.19010317561756
 6  6.53064739753975  0.33598544874487 -0.23457994319432
 6  7.72285982388239 -0.24773512041204 -1.02382933343334
 6  8.95530740334033 -0.13503863426343 -0.22410422322232
 6  10.25939656415641 -0.63870094179418 -0.81184215471547
 6  10.19169586978698 -2.05680661676168 -1.24228769376938
 6  11.57599047594760 -0.37129090989099  0.13964483308331
 6  12.90499540724072 -0.47378142924292 -0.69923994689469
 6  14.10553002140214 -0.11052225502550  0.16414348184818
 6  15.43173929882988 -0.10617434653465 -0.47701594139414
 6  15.78857052595260 -1.54414204800480 -0.90619023672367
 6  16.52250635653565  0.42264662466247  0.47170167736774
 6  17.93253784318432  0.68558995739574 -0.18720453505351
 6  18.88688905840584  1.39546776377638  0.64895532853285
 6  20.29870854005400  1.45774610811081  0.16434119731973
 6  20.38084943874388  2.22994129132913 -1.19822081478148
 6  21.14546547734773  2.04517745404540  1.27048241164116
 1 -4.22897438193819  3.62494801620162  1.29164375127513
 1 -10.10098049074908  3.94826566156616 -0.53449884138414
 1 -10.36438972837284 -2.29551889268927 -1.07674432663266
 1 -2.50803726062606 -0.97550586448645  1.99133982518252
 1 -2.11981558675868  1.65559914251425  1.39161981238124
 1 -1.95619007650765  1.15448590149015  3.56442015551555
 1 -3.46935199519952  2.25250930843084  3.56623878927893
 1 -3.80267371007101  0.59603428742874  3.78409082188219
 1 -2.08691117601760 -1.37820778117812 -0.61584549374938
 1 -2.22933460596060  0.16215346574657 -0.64547458705871
 1 -0.27501101850185  0.52811742564256  0.98521892099210
 1 -0.10624842684268 -1.00994550975098  1.35994995019502
 1 -5.80686946234623  6.63463210731073  0.71708741794179
 1 -5.57275426482648  6.11436479957996  2.33293959105911
 1 -4.48548250425042  5.71949311571157  1.12839601520152
 1 -9.35598765126513  5.80713686178618 -0.61525175337534
 1 -9.18179939583958  8.12711345024502  0.38335795759576
 1 -7.68089755555556  7.32774917441744  1.56214459996000
 1 -12.30930503560356  3.11240156615662 -2.14377738243824
 1 -13.28163783298330  1.88838272947295 -1.65137632913291
 1 -12.59888161926193  3.17314596929693 -0.51325256925693
 1 -12.33611839023902 -1.62927237233723 -1.17578253315331
 1 -13.26677539643964 -0.25334207100710 -1.31344687218722
 1 -13.33741009360936 -1.93682836903690 -3.25691557605761
 1 -12.63898746294630 -0.28121265886589 -3.94135763146315
 1 -11.57658393769377 -1.67747261436144 -3.30623924392439
 1 -9.41154075707571 -4.57694843774378 -1.92636590069007
 1 -8.12315167996800 -5.81947195139514 -0.78872848584858
 1 -9.48363824872487 -4.90504552585259  0.02086026342634
 1 -3.51726242214221 -3.59081233193319 -0.35691096259626
 1 -1.69778794529453 -4.13109954965497  3.57997091239124
 1 -2.80747035563556 -5.75181679927993  3.55794863376338
 1 -1.34712282378238 -5.75280455365537  2.55779973287329
 1  2.70335964006401 -1.95026686258626 -1.34277824282428
 1  2.66232370997100 -0.26413213361336 -2.00348350055005
 1  4.28171907750775 -1.09181139633963  0.50277349334933
 1  4.12046100960096  1.05030374077408 -2.47535590529053
 1  5.66300171187119  2.02394265316532 -2.10823729192919
 1  5.82735004260426  0.44804591209121 -2.83222195319532
 1  6.65313737663766  1.46460046004600 -0.11189854705471
 1  6.52066618601860 -0.04358239563956  0.78801851855186
 1  7.40520790549055 -1.21614084928493 -1.29948127172717
 1  7.66341877777778  0.38408161626163 -2.01968489208921
 1  9.34846689828983  0.75597348234823  0.40842847504750
 1  8.91093958265827 -0.84142964916492  0.65779364306431
 1  10.55837338873887  0.04510704840484 -1.76694158365837
 1  9.38669365486549 -2.00433841034103 -2.02589851465147
 1  10.97630018571857 -2.36439322322232 -1.83074731863186
 1  10.11858474447445 -2.83409535153515 -0.33616305600560
 1  11.36249393029303  0.59291152135214  0.74611609910991
 1  11.54787784118412 -1.16226218751875  0.86437705930593
 1  12.97048036693669 -1.57667582878288 -1.17734540214021
 1  13.03548730123012  0.16324701570157 -1.66982034333433
 1  13.77117855455546  0.81321387738774  0.61558890189019
 1  14.06300905400540 -0.92119172387239  0.83476999349935
 1  15.50659394789479  0.66024550955095 -1.44388874687469
 1  15.80599804270427 -2.16030632273227  0.03348189428943
 1  15.01907495819582 -2.24817719331933 -1.49898731383138
 1  16.80689031843184 -1.39067459235924 -1.35468693819382
 1  16.07648284898490  1.39701753545355  0.74346089038904
 1  16.76594104130413 -0.06566574167417  1.51624438563856
 1  18.39213015171517 -0.29606615401540 -0.88034137453745
 1  17.40307737223723  1.41953927282728 -1.03517709350935
 1  18.48068886148615  2.34374853255325  0.84601260656066
 1  18.78289544984499  0.85725990699070  1.71879187948795
 1  20.83196810951095  0.31168731693169  0.02513957795780
 1  19.89770387698770  3.11998556045605 -1.07337093049305
 1  21.40905515761576  2.30663731653165 -1.31477284058406
 1  19.95754965936594  1.59428123892389 -2.01888885788579
 1  21.52191816701670  1.34499260836084  2.19450906810681
 1  22.14592629892989  2.12372360206021  0.95277024332433
 1  20.78998872877288  2.99017910121012  1.78703914441444
>>>>>>> 8e03b5b5abfc0030b3aa597dc0de36371bfbd096

