%nproc=4
%Mem=2GB
# td=(NStates=1) CAM-B3LYP/6-31G(d,p) 

TD

0 1
12 -7.18565913891389  0.56425517361736  0.14355204260426
 6 -4.83715833383338 -1.96098727712771  0.53526005870587
 6 -4.71279120802080  2.77184563186319  0.95760212511251
 6 -9.34110884638464  3.12853834933493 -0.35150801050105
 6 -9.54271458515852 -1.70037554855486 -0.78180460956096
 7 -5.09113253785379  0.37141695979598  0.60463088138814
 6 -4.26396610271027 -0.73770359235924  0.81535955915592
 6 -2.89954896029603 -0.48377780348035  1.25088544274427
 6 -2.98729216761676  1.05590825912591  1.61796252695270
 6 -4.38336533143314  1.42569331813181  1.11295832573257
 6 -2.96794187628763  1.25352764086409  3.13564497339734
 6 -1.93189665066507 -0.71420668206821  0.08736269456946
 6 -0.53847126972697 -0.55423977117712  0.48141227052705
 6  0.51337247444744 -0.59532304520452 -0.58217359785979
 8  0.24887612771277 -0.86416182378238 -1.80253658535854
 8  1.82044385488549 -0.39731712811281 -0.26249303820382
 7 -6.96807725562556  2.57713330313031  0.11301999749975
 6 -5.89753903290329  3.35278625442544  0.68774230783078
 6 -6.27014426752675  4.73472776217622  0.67980866806681
 6 -7.59519222622262  4.77609824132413  0.24401279257926
 6 -8.10459473107311  3.41433062836284  0.10577312361236
 6 -5.36205416211621  5.87129959585959  1.15746050655066
 6 -8.41701949954995  6.04429546324632  0.07288427382738
 6 -8.25889978127813  7.19440555915592  0.83062931273127
 7 -9.09779205180518  0.64215707680768 -0.49899393309331
 6 -9.85136139583958  1.73501345444544 -0.55406173027303
 6 -11.17425652225223  1.38388672777278 -1.12061378087809
 6 -11.17281968586859  0.05804116821682 -1.22987170117012
 6 -9.99432511321132 -0.40800277457746 -0.79465448154815
 6 -12.20329915361536  2.48101867286729 -1.39725650045005
 6 -12.32185673197320 -0.76578398849885 -1.77621843034303
 6 -12.21474896329633 -1.00188259945995 -3.17882300090009
 7 -7.15712518081808 -1.45427504110411 -0.28096277327733
 6 -8.19392963276328 -2.24767994009401 -0.51332628782878
 6 -7.77502364796480 -3.57498576607661 -0.46415369266927
 6 -6.48374225832583 -3.56875121212121 -0.01645337723772
 6 -6.15647824422442 -2.24154243554355  0.12277508170817
 6 -8.50305777317732 -4.78378122052205 -0.85437391579158
 6 -5.41191566186619 -4.40888477197720  0.25899877247725
 8 -5.25287412531253 -5.65946042944294  0.29904693539354
 6 -4.20813439283928 -3.34526031583158  0.61082094739474
 6 -3.55067569846985 -3.72831805310531  1.92780315321532
 8 -3.74098569916992 -3.18591532773277  3.01389407050705
 8 -2.66023721742174 -4.72831755415542  1.75107368826883
 6 -1.95929651755176 -5.08300252935294  2.94980991649165
 6  2.81780429212921 -0.58402619721972 -1.24951615201520
 6  4.11916400540054 -0.30262843914391 -0.60643079207921
 6  5.06857034143414  0.43781004640464 -1.01696146884688
 6  5.09771819481948  1.26808945824582 -2.20058422372237
 6  6.46008034083408  0.59342119231923 -0.13490997619762
 6  7.53394093199320 -0.08759910681068 -0.90764771527153
 6  8.84702657525753  0.09359422902290 -0.17434924772477
 6  10.05338596309631 -0.33219029072907 -0.89685065556556
 6  9.93168986918692 -1.88305924202420 -1.28444190919092
 6  11.30269314621462 -0.24940872167217 -0.05599473087309
 6  12.60895580328033 -0.60034408550855 -0.70206022892289
 6  13.83257272567257 -0.14129533233323  0.24143121062106
 6  15.14659078397840 -0.21765549464947 -0.47982622242224
 6  15.49662133103310 -1.65771340514051 -0.91967158485849
 6  16.25897000290029  0.36966132613261  0.42990749794979
 6  17.72715730513051  0.46035743414341 -0.19919573417342
 6  18.69997036653665  1.21308952595260  0.80723115611561
 6  20.10804947414741  1.30603093659366  0.22723748694869
 6  20.24939629342934  2.07956625382538 -0.95136612931293
 6  21.05334626542654  1.83552648894889  1.31870723412341
 1 -4.06332781728173  3.33578910031003  1.61240582748275
 1 -10.19847023972397  3.92686352135213 -0.30650604210421
 1 -10.32397568696870 -2.50914025482548 -1.15542219441944
 1 -2.45593205010501 -1.04595290919092  2.20621131233123
 1 -2.14130773597360  1.57010059265927  1.24649529992999
 1 -1.87806226372637  0.75335578847885  3.33168688218822
 1 -3.09843490349035  2.25477953545355  3.55196736213621
 1 -3.53339678237824  0.62813749774977  3.77305971877188
 1 -2.11035352025203 -1.74490445084508 -0.58919282848285
 1 -2.09265093759376 -0.00892364196420 -0.78432847244724
 1 -0.39957347474747  0.24980959485949  1.35118551765177
 1 -0.15647344934493 -1.38183269846985  1.01048500370037
 1 -5.73309208460846  6.57071571567157  0.44738044724472
 1 -5.67130411981198  6.03304666776678  2.26251254835484
 1 -4.36997095309531  5.55354652105210  0.92005518111811
 1 -9.20614266676668  6.06800294839484 -0.64981520972097
 1 -8.82294351025103  8.01470220912091  0.50128975077508
 1 -7.34914438023802  7.50479687918792  1.43652203770377
 1 -11.76204030913091  3.11170149614962 -2.29238224292429
 1 -13.20499016821682  2.17511140234023 -1.52736392789279
 1 -12.40869260036004  3.19581823652365 -0.68155939993999
 1 -12.25654043244324 -1.68814825992599 -1.16042099699970
 1 -13.22670138903890 -0.03582031883188 -1.31662719021902
 1 -13.06669302190219 -1.78725341154115 -3.53000288478848
 1 -12.36322988718872  0.00564602700270 -3.73676717241724
 1 -11.23951023032303 -1.32013688078808 -3.25994461446145
 1 -8.82899250225022 -4.58164890779078 -1.75699896399640
 1 -7.84218358315831 -5.65614561876188 -0.63549316231623
 1 -9.27588747364736 -5.02505752705271 -0.03407523012301
 1 -3.45379607550755 -3.58809205990599 -0.06302157365737
 1 -1.18937710421042 -4.29822626232623  3.33205612091209
 1 -2.56828643724372 -5.24399601720172  3.89245208410841
 1 -1.66711482298230 -6.10640991419142  2.57241119401940
 1  2.81829113321332 -1.60731256715672 -1.76255022002200
 1  2.67115459305931  0.15292957255726 -2.25333848604860
 1  4.08751965756576 -0.85604781998200  0.43308652465246
 1  4.10969993349335  1.52658136853685 -2.53353172287229
 1  5.65351076277628  2.35104536343634 -1.83033950215022
 1  5.44463177077708  1.00678178567857 -3.32474120512051
 1  6.70867293019302  1.60705470547055  0.36773941674167
 1  6.39489360876088  0.03556551915192  0.83530324702470
 1  7.32816020072007 -1.25747498269827 -0.99451077467747
 1  7.52768520442044  0.24463767186719 -1.89700262386239
 1  8.77790984258426  1.11892977797780  0.43996162836284
 1  8.73450193889389 -0.45278078427843  0.80968883258326
 1  10.34066161756176  0.29591212891289 -1.72352724222422
 1  9.13934892039204 -1.89237721422142 -1.95456138093809
 1  10.75597815351535 -2.15326211011101 -1.73743798769877
 1  9.82409529552955 -2.55127706970697 -0.34644408410841
 1  11.20239792069207  0.86672890309031  0.02205369286929
 1  11.27744079747975 -0.55806176747675  0.87390801240124
 1  12.57280059895990 -1.60261842304230 -1.03817148474847
 1  12.51930568306831 -0.05306461546155 -1.57336069736974
 1  13.70292172887289  0.89160171617162  0.47525486848685
 1  13.76647940104010 -0.94106371107111  1.10221673817382
 1  14.91012430093009  0.48636812181218 -1.44651900990099
 1  15.72078952185218 -2.16001629372937 -0.01087254115412
 1  14.75641869256926 -2.03261563716372 -1.49879729482948
 1  16.56275590499050 -1.59367489238924 -1.43436490599060
 1  16.06732193289329  1.38467630133013  0.63597014131413
 1  16.15089953715371 -0.03746292139214  1.33223598479848
 1  18.11718265696570 -0.50064661206121 -0.49128246864686
 1  17.61190825532553  1.02645996489649 -1.00226380218022
 1  18.42208300090009  2.24886904460446  1.25188319361936
 1  18.87793495379538  0.48195237623762  1.61993199349935
 1  20.46201111381138  0.28763491169117  0.04836190019002
 1  19.71436554315432  3.05635919781978 -0.86900049344935
 1  21.47029128122812  2.25534218701870 -1.21140250355035
 1  20.00715461986199  1.55385719651965 -1.93038000700070
 1  21.03901987718772  1.35365347444744  2.12179179637964
 1  22.05339704600460  1.87302853255326  0.74677964426443
 1  20.92777250715072  2.93197328062806  1.35314575507551

