%nproc=4
%Mem=3GB
# td=(NStates=1) iop(3/107=0140000000,3/108=0140000000) CAM-B3LYP/6-31G(d,p) 

TD

0 1
12 -7.11417610931093  0.57540592409241 -0.12352598259826
 6 -4.76015483198320 -1.93146037663766  0.35183058545855
 6 -4.76703273387339  2.90189890779078  1.10180028522852
 6 -9.41022778727873  3.06782433543354 -0.47842031733173
 6 -9.56398249624963 -1.78472023772377 -0.97826463136314
 7 -5.15434246544655  0.39800589118912  0.60645846984698
 6 -4.38106035333533 -0.66269741294129  0.69162705740574
 6 -2.94166038663866 -0.33368176617662  1.20316598569857
 6 -3.10292351925193  1.10418912051205  1.68360463976398
 6 -4.39603983868387  1.56532118321832  1.06665105900590
 6 -3.12525870667067  1.14869768906891  3.13546886148615
 6 -1.84973070277028 -0.59616560576058  0.14871868216822
 6 -0.39147485668567 -0.35594884288429  0.57041042334233
 6  0.57788971217122 -0.66078270017002 -0.58837862796280
 8  0.39460967776778 -0.82237601530153 -1.69031642474247
 8  1.92606120452045 -0.56208614701470 -0.03587897549755
 7 -7.13461110451045  2.57634084398440  0.25080600470047
 6 -6.06311645544554  3.32792656005601  0.68048392449245
 6 -6.44781969036904  4.68392525612561  0.82815107380738
 6 -7.77782256755675  4.86846865206521  0.41446757315732
 6 -8.17144667216722  3.49248618741874  0.02280027862786
 6 -5.63243527742774  5.85480495419542  1.30518067326733
 6 -8.68713872187219  6.02813308290829  0.33123373587359
 6 -8.61384979497950  7.26464561426143  0.97150120942094
 7 -9.04776381748175  0.64523151755176 -0.62748932283228
 6 -9.87623510981098  1.77337066136614 -0.71121393489349
 6 -11.21919587228723  1.50561000550055 -1.07826268596860
 6 -11.27676716391639  0.10544809060906 -1.25334536283628
 6 -9.98575617921792 -0.35056524992499 -0.90089229052905
 6 -12.27949888758876  2.51866710811081 -1.40960041274127
 6 -12.34751854475448 -0.76293241704170 -1.65925525612561
 6 -12.30557246614662 -1.23509370167017 -3.16601725292529
 7 -7.22437539993999 -1.38701353705371 -0.26042871797180
 6 -8.30685501180118 -2.16870541604160 -0.56276785668567
 6 -7.85515755555556 -3.58972952435244 -0.41772207200720
 6 -6.49714750525053 -3.57491047314731 -0.13412549424942
 6 -6.12037576927693 -2.22688064386439  0.05591742714271
 6 -8.76456879637964 -4.78888498689869 -0.71169455255526
 6 -5.41124658755876 -4.38492205560556  0.24068904300430
 8 -5.19943093539354 -5.57662451945195  0.27678362696270
 6 -4.18849335193519 -3.33033048044804  0.56696501810181
 6 -3.49050322712271 -3.61159910261026  1.85403137163716
 8 -3.67808059145915 -2.96271362926293  2.92906626482648
 8 -2.83181853465347 -4.80299891839184  1.82919195669567
 6 -2.03945290229023 -5.16033123902390  3.03599099949995
 6  2.83288960936094 -0.77510579947995 -1.10779429662966
 6  4.20054093929393 -0.37381264916492 -0.57676023882388
 6  5.13853934523452  0.43581010901090 -1.04318719571957
 6  4.96503022862286  1.47199487478748 -2.14024815981598
 6  6.47425370407041  0.62403301930193 -0.18132865726573
 6  7.61761321392139 -0.09661820982098 -0.86659698839884
 6  8.95136284788479 -0.12211402750275 -0.18276437883788
 6  10.24135959655966 -0.57495915911591 -0.86841256125613
 6  10.16754003060306 -2.04622250215021 -1.31055802180218
 6  11.41247591139114 -0.20030492159216  0.00774281178118
 6  12.77606534203420 -0.49447948144814 -0.68263576867687
 6  13.99448071987199 -0.30113582788279  0.16963337493749
 6  15.31050704170417 -0.27356644024402 -0.52175782828283
 6  15.68707497849785 -1.68911730003000 -1.08195002130213
 6  16.50269726242624  0.19089560686069  0.42027676237624
 6  17.82960054775478  0.37745147474747 -0.22315884288429
 6  18.77939835843584  1.16066414491449  0.69739299599960
 6  20.28593139753976  1.35263469596960  0.22817952395240
 6  20.43756660246025  2.07262456755676 -1.06813150905091
 6  21.07577264426443  1.91595329522952  1.33935787578758
 1 -4.09327969146915  3.60363361476148  1.58283437923792
 1 -10.27074919821982  3.74206648114812 -0.41271579777978
 1 -10.17323174727473 -2.43032856795680 -1.21460928032803
 1 -2.81301858905891 -0.99334953765377  2.21295778647865
 1 -2.23921738803880  1.66753881498150  1.22940658965897
 1 -2.29503258965897  0.66889599599960  3.62593293069307
 1 -3.31986909600960  2.20077930073007  3.47566558875888
 1 -3.98707150765077  0.61420657495750  3.48243992919292
 1 -1.85548066706671 -1.65538620942094 -0.13496150325033
 1 -1.89099546854685  0.13588120792079 -0.62782951755176
 1 -0.14033946264626  0.79102869016902  0.81106496949695
 1 -0.14028244854485 -1.05387615421542  1.37135059335934
 1 -5.52433661136114  6.71115862786279  0.80619045034503
 1 -5.80486195749575  6.29642252365237  2.42260427292729
 1 -4.59042388698870  5.54625889388939  1.34708544114411
 1 -9.54544480428043  5.83211659365937 -0.40167151985199
 1 -9.06100516421642  8.06628634963496  0.57117689338934
 1 -7.65006293839384  7.51201803820382  1.59544850515051
 1 -11.93811428442844  3.23324247134714 -2.13279911141114
 1 -13.20285758345834  2.07839658205821 -2.02195792399240
 1 -12.66702773547355  3.08783611771177 -0.45883632313231
 1 -12.48765072997300 -1.70424134693469 -1.12767626852685
 1 -13.22468476757676 -0.32517522802280 -1.63136889128913
 1 -13.09667486668667 -1.82580624272427 -3.54010496859686
 1 -12.35526593229323 -0.24805327662766 -3.91265024342434
 1 -11.41395623502350 -1.68584961216122 -3.65319359755976
 1 -9.15352997159716 -4.84450095089509 -1.86373243624362
 1 -8.36254063926393 -5.83687964126413 -0.51189114421442
 1 -9.66174035303530 -4.83185163356336 -0.28900116881688
 1 -3.37498501700170 -3.60033663926393 -0.07688542664266
 1 -1.53819720732073 -4.20941315471547  3.51956367396740
 1 -2.66612304960496 -5.40022954785479  3.96045708340834
 1 -1.36522704320432 -5.94144492929293  2.83679704080408
 1  2.75820387518752 -1.90631725452545 -1.41445289398940
 1  2.74814125542554 -0.17605952115212 -1.90216127362736
 1  4.40621110781078 -1.06063447724772  0.24118551875188
 1  3.90439575107511  1.58225376807681 -2.43239372507251
 1  5.41236816901690  2.42596302020202 -1.80586802520252
 1  5.83595316381638  1.28068925982598 -2.90631688858886
 1  6.96927511141114  1.52797277787779 -0.00105049114912
 1  6.26961483358336 -0.07355469216922  0.84088028352835
 1  7.38309043184318 -1.06848752175218 -1.08288304550455
 1  7.94447700620062  0.47175627862786 -1.98740956385639
 1  9.31997804210421  0.98545804330433  0.18826125422542
 1  8.94837795859586 -0.60376872957296  0.88668479187919
 1  10.53472810461046 -0.03498735093509 -1.69317447544754
 1  9.17638724782478 -2.36973525702570 -1.80508889078908
 1  10.97467660826083 -2.46823022232223 -2.05192055015502
 1  10.26520871797180 -2.66164027872787 -0.34517191089109
 1  11.56783842544254  0.89234566796680  0.39234700550055
 1  11.46330392589259 -0.85641693929393  0.91193751385138
 1  12.71353930643064 -1.34211163046305 -1.31531380288029
 1  12.78000383028303  0.38436337233723 -1.57077141084108
 1  13.90846226652665  0.68234359765977  0.61453628232823
 1  14.05261357195720 -1.06555293419342  1.09377175117512
 1  15.12093249464947  0.43659705670567 -1.46325759455946
 1  15.77294109090909 -2.29031837303730 -0.10463859935994
 1  14.79117076147615 -2.15357987798780 -1.61885325882588
 1  16.63801208080808 -1.83718461546155 -1.85759227252725
 1  16.25300857435743  1.15682401610161  0.90547646394639
 1  16.37118119591959 -0.41513779857986  1.24944343904390
 1  18.22246898459846 -0.59503601760176 -0.48808900450045
 1  17.59629693929393  0.94465335943594 -1.12720846444644
 1  18.15954501140114  2.22400366836684  0.92397434423442
 1  18.88237419991999  0.72745758525853  1.88248149364937
 1  20.54477430973098  0.18184918251825  0.01415730793079
 1  20.12706952545255  3.16254703120312 -0.94300648534854
 1  21.56233003380338  1.95210635273527 -1.34301228242824
 1  19.63520191779178  1.49021931213121 -1.81257964236424
 1  21.00046389988999  1.82120776167617  2.49749341814181
 1  22.26668456125612  1.78584905560556  1.02621927552755
 1  20.78479855835584  2.86398251545154  1.26354349104910

