%nproc=4
%Mem=2GB
# td=(NStates=1) CAM-B3LYP/6-31G(d,p) 

TD

0 1
12 -7.16009658265827  0.65613436153615  0.08463615101510
 6 -4.81329594759476 -1.96273745214521  0.41528806150615
 6 -4.76582651155116  2.81588003530353  1.07070343524352
 6 -9.42878761426143  3.07732322782278 -0.44045690539054
 6 -9.47683799749975 -1.85508101910191 -0.82386881598160
 7 -5.08408183278328  0.46266608470847  0.67098751705171
 6 -4.28804851095110 -0.68294811681168  0.73520154335434
 6 -2.93825283068307 -0.35174460016002  1.14364471867187
 6 -3.00768420682068  1.15207787608761  1.54457518821882
 6 -4.35792278717872  1.54471522032203  1.02381941184118
 6 -2.97142222432243  1.41250353845385  3.05106651555156
 6 -1.93073653465347 -0.58773403480348  0.12340629892989
 6 -0.42116953955396 -0.34351869906991  0.46594072337234
 6  0.51104224142414 -0.68230174307431 -0.57460284078408
 8  0.29920116021602 -1.16698210581058 -1.73665999769977
 8  1.75326713721372 -0.55581297769777 -0.14012080098010
 7 -7.11690213811381  2.66500209000900  0.34484317981798
 6 -6.05161444044404  3.39007998379838  0.72313584718472
 6 -6.41999925302530  4.83918820822082  0.72531321852185
 6 -7.75814852185218  4.90503113461346  0.37606599789979
 6 -8.23653792539254  3.49109830513051  0.02729527582758
 6 -5.45471342804280  5.89483194909491  1.10117487798780
 6 -8.73089088668867  5.95900693439344  0.25184216961696
 6 -8.69129302060206  7.17951407000700  0.93353960376038
 7 -9.17112938553855  0.62541540264026 -0.55078911261126
 6 -9.89953621332133  1.82460241334133 -0.62196852095210
 6 -11.22261135773577  1.43475181428143 -1.10548226772677
 6 -11.24895729962996  0.03894925902590 -1.16617533153315
 6 -9.93641932263226 -0.40922289658966 -0.75967098319832
 6 -12.27614643834383  2.39410998199820 -1.34699147394739
 6 -12.41440598689869 -0.85219262936294 -1.62468327682768
 6 -12.27464495289529 -0.96432884408441 -3.15110022862286
 7 -7.13747321562156 -1.39007862146215 -0.20312498949895
 6 -8.23037327712771 -2.22596776887689 -0.51931688688869
 6 -7.77731387698770 -3.68118638613861 -0.55682295959596
 6 -6.44110799489949 -3.52035637263726 -0.19255098699870
 6 -6.08700129652965 -2.19046732803280 -0.07714491029103
 6 -8.49451691909191 -4.84662750515051 -0.97000547894790
 6 -5.33425789608961 -4.26507039053905  0.14428730133013
 8 -5.18865770367037 -5.47375185858586  0.26871390209021
 6 -4.16845042444244 -3.31407719751975  0.52662252755276
 6 -3.48261889278928 -3.69214443574357  1.87089746264626
 8 -3.80093169376938 -3.18077481368137  2.98255093619362
 8 -2.68407960166017 -4.70922564496450  1.76816539743974
 6 -2.06451703960396 -5.07566179527953  3.00393532903290
 6  2.76974948664866 -0.66035382998300 -1.16162736313631
 6  4.13722581158116 -0.54694287058706 -0.45426557555756
 6  5.07266075047505  0.36042230763076 -0.84445421812181
 6  5.06088451145115  1.21452410171017 -1.97856202150215
 6  6.32239657245725  0.31155300550055 -0.08436492169217
 6  7.55200273817382 -0.16428677557756 -0.86765371587159
 6  8.86484835743574 -0.08226335673567 -0.06602841564156
 6  10.13111373587359 -0.64768183988399 -0.95031600210021
 6  10.00011671187119 -2.14156509260926 -1.22858632363236
 6  11.37915079197920 -0.27846162696270 -0.10234936633663
 6  12.77192209990999 -0.45906995809581 -0.73348337123712
 6  14.02437190559056 -0.12979418221822  0.13182024952495
 6  15.35314143904390 -0.23838756785679 -0.57328556835684
 6  15.81683335223522 -1.70532816661666 -0.85630524822482
 6  16.50311441734173  0.40084444444444  0.41987649484948
 6  17.86573116251625  0.69451084948495 -0.21345716031603
 6  18.82617298679868  1.29111732873287  0.69420985398540
 6  20.14478314751475  1.32316264976498  0.26913167636764
 6  20.49250060386039  2.00371866906691 -1.17406839953995
 6  21.06968789958996  2.00128306460646  1.39233459685969
 1 -3.92714419891989  3.50984650605060  1.35125971287129
 1 -10.17439783248325  3.79093992899290 -0.66167155865587
 1 -10.09948323772377 -2.54497383818382 -1.23838049024902
 1 -2.57571402830283 -0.98862717661766  1.89476016721672
 1 -2.19957356255626  1.85265884848485  1.22045269566957
 1 -1.89962441994199  1.18025847874787  3.56736044954495
 1 -3.35906096609661  2.48931298879888  3.41513367876788
 1 -3.68010145284528  0.68159284328433  3.76907932073207
 1 -2.06425891079108 -1.63897385778578 -0.35208911811181
 1 -2.06667834033403  0.07699494989499 -0.79754979457946
 1 -0.32446596399640  0.53864847874787  0.84784518361836
 1 -0.23982178417842 -1.22189670487049  1.38627258245825
 1 -5.98734751015102  6.82137078117812  0.67358306750675
 1 -5.32291928132813  6.06929029212921  2.14348064516452
 1 -4.36020997699770  5.66538770517052  0.73102627822782
 1 -9.44600665316532  5.95312146024602 -0.32140236843684
 1 -9.26685790169017  8.00935167406741  0.77528715051505
 1 -7.86952641844184  7.21227762726273  1.64663304880488
 1 -11.86714081918192  3.04728505450545 -2.12907591229123
 1 -13.36528619781978  1.82902679387939 -1.91330252175218
 1 -12.34657638873887  3.21684033873387 -0.63278452245225
 1 -12.05080985938594 -1.90266971207121 -1.24104905980598
 1 -13.38869758865886 -0.48044478127813 -1.10746627412741
 1 -12.90944729732973 -1.87674236043604 -3.55441532603260
 1 -12.47572113631363 -0.08490302790279 -3.78451194689469
 1 -11.18615489478948 -1.20647551465147 -3.68323694369437
 1 -8.85854545754576 -4.71438218111811 -1.89574283838384
 1 -7.84048341314131 -5.92629263346335 -0.68125773877388
 1 -9.41648153305331 -4.73660868216822 -0.45329715231523
 1 -3.49026972287229 -3.57076032673267 -0.22254752625262
 1 -1.29624779127913 -4.25510194989499  3.11592450775078
 1 -2.92979258785879 -5.16893851145115  3.90009284818482
 1 -1.57888600010001 -6.05752502570257  2.56647059996000
 1  2.67733703780378 -1.81249308520852 -1.60333429842984
 1  2.37608508610861  0.03440772037204 -2.02575572777278
 1  4.28093899949995 -1.23226544174417  0.41794501050105
 1  4.04146310981098  1.28242695309531 -2.58482685238524
 1  5.17524293599360  2.25495575447545 -1.77567403560356
 1  5.61871917951795  0.83937504500450 -2.80331906290629
 1  6.35628769166917  1.37647164716472  0.22309495229523
 1  6.54066818621862 -0.41423946134613  0.85705542224222
 1  7.20251763646365 -1.28540777597760 -1.27693901750175
 1  7.49006144204420  0.41318452655266 -1.81688461206121
 1  9.07162921452145  0.97340522552255  0.16069370157016
 1  8.88415690439044 -0.67194270047005  0.85836370007001
 1  10.13110066146615 -0.05909337163716 -1.90752564206421
 1  9.08844382988299 -2.19083706020602 -1.80298622342234
 1  11.02917547324732 -2.51240802470247 -1.72669691359136
 1  9.81706459245925 -2.71914385638564 -0.38795823552355
 1  11.22235991689169  0.83818604880488  0.01282276977698
 1  11.30171322472247 -0.89513547484748  0.88070869246925
 1  12.94485780468047 -1.54960312151215 -0.86794446204620
 1  12.87837158965896  0.18146883788379 -1.69163252455246
 1  13.87728916561656  0.89727228322832  0.68471581458146
 1  14.02083483658366 -0.81818142284228  0.91851836833683
 1  15.44018730723072  0.24830431543154 -1.66095045304530
 1  15.91048849174918 -2.20292058415842  0.19418796489649
 1  14.97780083078308 -2.36620899649965 -1.45951336643664
 1  16.81040066946695 -1.74391991689169 -1.49523099259926
 1  16.04976017671767  1.38370620432043  0.79775631993199
 1  16.45831027822782 -0.19443861896190  1.35698846004600
 1  18.28188912761276 -0.16158270567057 -0.58505184558456
 1  17.72955001950195  1.22597991689169 -1.06613018881888
 1  18.56121691429143  2.45533969166917  0.67092509780978
 1  18.98369552985299  0.95658983998400  1.67369737003700
 1  20.65509042174217  0.33950009820982  0.24977204120412
 1  20.11367547414741  3.02729629152915 -1.11911550495050
 1  21.60210446254625  2.02126877967797 -1.30833219651965
 1  20.15037894229423  1.38597040784078 -1.91879884888489
 1  20.66557253245325  1.89739784888489  2.55379499669967
 1  22.10320202650265  1.64504573427343  1.08965393169317
 1  21.00582031193120  3.06206628992899  1.17726816731673

