%nproc=4
%Mem=2GB
# td=(NStates=1) CAM-B3LYP/6-31G(d,p) 

TD

0 1
12 -7.14658523152315  0.65204395249525  0.09082677007701
 6 -4.87209182718272 -1.95363654205421  0.51223775647565
 6 -4.80262019091909  2.87924637193719  1.03952031693169
 6 -9.37562229772977  3.11355685118512 -0.33978683838384
 6 -9.49260957465747 -1.64768027902790 -0.90547697679768
 7 -5.15386881148115  0.39723954205421  0.67586800510051
 6 -4.33351305740574 -0.68691851385138  0.79369739293929
 6 -2.92496150155015 -0.32982240794079  1.16199655385539
 6 -3.03322676107611  1.04020668896890  1.66480721142114
 6 -4.42699969486949  1.47175792459246  1.10061709160916
 6 -2.93123820592059  1.28767105520552  3.16141755065507
 6 -1.90589405040504 -0.44509977137714 -0.09744578627863
 6 -0.50611803440344 -0.48288263546355  0.45010914021402
 6  0.49184032123212 -0.63426693959396 -0.75291067156716
 8  0.29828106820682 -0.96310171777178 -1.87789412111211
 8  1.78192000250025 -0.53593098949895 -0.16195298419842
 7 -7.06971741964196  2.69495508530853  0.19900859635964
 6 -5.98209748874887  3.42017299309931  0.71604513811381
 6 -6.39077633073307  4.74549883928393  0.60003069026903
 6 -7.68720142714271  4.84469510101010  0.37966635793579
 6 -8.17919219081908  3.57072626792679  0.00733327962796
 6 -5.48950690739074  5.79994246014602  1.14240900140014
 6 -8.65079287688769  5.99763079677968  0.29502648804881
 6 -8.54001789308931  7.05178129672967  1.03628987878788
 7 -9.06165843844384  0.65028788988899 -0.54880891459146
 6 -9.88187444714471  1.77764771787179 -0.63195952005201
 6 -11.16061515811581  1.42778111721172 -1.11819353885389
 6 -11.28923132703270  0.03174853895390 -1.21320003400340
 6 -9.97970365106511 -0.40654262856286 -0.96499151525153
 6 -12.31117994169417  2.44143471447145 -1.27640441524152
 6 -12.43824837113711 -0.83122053215322 -1.72578338683868
 6 -12.21287877627763 -1.09684209540954 -3.28239335793579
 7 -7.23933340164016 -1.44004361796180 -0.09707438443844
 6 -8.21932217201720 -2.25594076617662 -0.60988594379438
 6 -7.83403954955496 -3.60179844734473 -0.46512378967897
 6 -6.52665654975498 -3.60748508550855 -0.05327705960596
 6 -6.20739333573357 -2.16808508980898  0.14613741794179
 6 -8.64730219761976 -4.80656349874987 -0.73219169756976
 6 -5.38556302660266 -4.42924680818082  0.28127099969997
 8 -5.16252509040904 -5.63819830323032  0.31225825652565
 6 -4.17829140854085 -3.26904269406941  0.60901076637664
 6 -3.60768139903990 -3.60943616491649  1.98779915281528
 8 -3.73739534013401 -3.07832456865687  3.01192387348735
 8 -2.69537073077308 -4.66239096149615  1.81962054295430
 6 -2.26579716761676 -5.18635286438644  3.02576751225123
 6  2.83587609930993 -0.67511530613061 -1.17209841024102
 6  4.12863495249525 -0.42669084538454 -0.55521567056706
 6  5.16254973937394  0.27280354575458 -1.05262503520352
 6  5.15293371637164  1.11580422972297 -2.23743790909091
 6  6.44713904670467  0.28517036723672 -0.10004648984898
 6  7.59247678557856 -0.14059440634063 -1.00322727322732
 6  8.96527840044005 -0.01563669406941 -0.17193900670067
 6  10.14143476797680 -0.40197726942694 -0.96600757125713
 6  10.10879757995800 -1.96088702480248 -1.27046051105110
 6  11.44286716361636 -0.22608638943894 -0.13879301070107
 6  12.76440134783478 -0.45378943004300 -0.83358338123812
 6  14.00159962836284 -0.04680588338834  0.05175224272427
 6  15.44676080098010 -0.22246597569757 -0.45777401720172
 6  15.74128579747975 -1.76532416621662 -0.87497711541154
 6  16.46391049694969  0.21178553855386  0.56471097829783
 6  17.81763635303530  0.56403780218022 -0.03106892149215
 6  18.73554392389239  1.28083630063006  0.82080251325133
 6  20.21909057825782  1.38800913441344  0.30583534673467
 6  20.37043839763976  2.17669596679668 -1.06712770547055
 6  21.06880781158116  1.90436337263726  1.32553791719172
 1 -4.23200468496850  3.75045056645664  1.47149173607361
 1 -10.23336372907291  3.70950178517852 -0.52835822732273
 1 -10.17975126452645 -2.51565090589059 -1.27084373657366
 1 -2.56155261216122 -0.94725303920392  1.87763845504550
 1 -2.20563416861686  1.77851143374337  1.29855050545054
 1 -1.89538399589959  0.70385083798380  3.51482519601960
 1 -3.05903096309631  2.35830988848885  3.43306547194719
 1 -3.54981842454245  0.85779046304630  3.70649306210621
 1 -2.05557804270427 -1.33748370877088 -0.51622553175318
 1 -2.05327700020002  0.29588683908391 -1.01353139273927
 1 -0.37161067846785  0.51317593149315  1.11908230733073
 1 -0.45643344534453 -1.29398391359136  0.99557351255125
 1 -5.54346312171217  6.90298894299430  0.75187089628963
 1 -5.45156214561456  5.85010837393739  2.13165946304630
 1 -4.39765372137214  5.58362952935293  0.77667084268427
 1 -9.26665871837184  5.95755190329033 -0.56990721892189
 1 -9.02049326522652  7.93279401830183  0.76268589038904
 1 -7.91959142494249  7.04409080858086  2.04770315581558
 1 -12.12533663876388  3.23650397639764 -1.98584158885889
 1 -13.27130679987999  1.91194508570857 -1.59923111461146
 1 -12.42618434953495  2.88995765046505 -0.31187243124312
 1 -12.51382616101610 -1.65965541064106 -1.18904385928593
 1 -13.42067078597860 -0.30681741854185 -1.47464299179918
 1 -12.89597595019502 -1.90700538673867 -3.78396828132813
 1 -12.31431499569957 -0.08414295189519 -4.00347384308431
 1 -11.26240251955196 -1.57533240034003 -3.49083770377038
 1 -8.90953055605561 -4.88100884378438 -1.90235349944994
 1 -8.07837720252025 -5.90688069226923 -0.67259687268727
 1 -9.50655053995400 -4.85477049834983  0.00621879927993
 1 -3.29458015391539 -3.32330558125813 -0.10874614611461
 1 -1.56427459395940 -4.54572101180118  3.53752666796680
 1 -2.97514712331233 -5.45406702430243  3.84910774967497
 1 -1.64963307480748 -6.00184945814581  2.79705365826583
 1  2.76412571667167 -1.68661049694969 -1.56567053205320
 1  2.45039251685168 -0.00175589598960 -2.01492464466447
 1  4.32798370397040 -0.84305652085209  0.47079029502950
 1  4.08636760026003  1.29752846324632 -2.43178154785479
 1  5.81687709940994  2.05264552345235 -2.08043451165116
 1  5.73251055865587  0.69566067356736 -3.12174090509051
 1  6.66416847974798  1.31674567456746  0.23446608940894
 1  6.23021714111411 -0.51237927532753  0.73753347004700
 1  7.24133151785179 -1.38225746094609 -1.08086941054105
 1  7.57402983888389  0.29413262136214 -2.11521444504450
 1  9.21584363596360  1.00947883288329  0.12685031723172
 1  8.87618610731073 -0.88768427462746  0.72413027672767
 1  10.28216576797680  0.04835737343734 -1.90800569006901
 1  9.23708869436944 -2.27146512301230 -1.81890781558156
 1  10.97552010771077 -2.24982176607661 -1.82085632953295
 1  10.08457134313431 -2.51053299529953 -0.56713615331533
 1  11.55971365226523  0.75660789098910  0.39810129762976
 1  11.18398145154515 -0.80816677797780  0.76813743534353
 1  12.93881720062006 -1.47091525272527 -1.24823249084908
 1  12.81859561206121  0.13804449544955 -1.65456881818182
 1  13.98611004770477  0.97852040804080  0.38697604060406
 1  14.07915066816682 -0.51885148984899  1.17002351885189
 1  15.57713100160016  0.39045853085309 -1.47123148114811
 1  15.50892833573357 -2.52759305140514 -0.12275372927293
 1  15.12750580128013 -2.02610498609861 -1.83769118421842
 1  16.78981861126113 -2.02743826872687 -1.11779324882488
 1  15.79310451115111  1.05586342004200  1.08319486378638
 1  16.55165961316132 -0.27232640774077  1.44768752995299
 1  18.20073101180118 -0.55480202760276 -0.05257859825983
 1  17.53913097759776  1.09637695659566 -0.99393296909691
 1  18.22710350295030  2.49823398109811  0.97604560986099
 1  18.79518667896790  0.70340452145215  1.69615961626163
 1  20.51741665436544  0.33235938413841  0.06552361636164
 1  20.19581368796879  3.32969653155316 -1.10339393279328
 1  21.50846509860986  2.20029668246825 -1.39179054235424
 1  19.83465737013702  1.69677148794879 -1.96611358035804
 1  21.07958393359336  1.26930503960396  2.14075369256926
 1  22.07940964726473  1.87705893559356  0.95260022632263
 1  20.78999872977298  3.01613169646965  1.76816725722572

