%nproc=4
%Mem=2GB
# td=(NStates=1) CAM-B3LYP/6-31G(d,p) 

TD

0 1
<<<<<<< HEAD
12 -7.18896946994699  0.69277802590259  0.13057074447445
 6 -4.88148276627663 -1.93123430183018  0.54021055375538
 6 -4.85320524942494  2.88505695299530  1.13998036293629
 6 -9.41193592909291  3.08445394089409 -0.38398125782578
 6 -9.52787310101010 -1.69017452845285 -0.99233566266627
 7 -5.16524994959496  0.50790060816082  0.67765818411841
 6 -4.34232393849385 -0.69685950795080  0.83718174137414
 6 -2.91614061946195 -0.33840326602660  1.32601295549555
 6 -3.01615505390539  1.13794646294629  1.68909964066407
 6 -4.44177117201720  1.54787553635364  1.06727375727573
 6 -3.02767784988499  1.33468575667567  3.25179658855886
 6 -1.84400786178618 -0.65448070947095  0.20124408270827
 6 -0.43036045864586 -0.50335468266827  0.64029815911591
 6  0.46630776797680 -0.71700521342134 -0.63147852835284
 8  0.11641288138814 -1.02396780438044 -1.66779311101110
 8  1.81573338383838 -0.60826822322232 -0.19216600550055
 7 -7.10929137703770  2.62099768956896  0.31577027252725
 6 -6.08271755075508  3.38742971877188  0.74033756735674
 6 -6.38541579467947  4.80643493289329  0.73992467966797
 6 -7.71249395639564  4.80499113061306  0.28026641794179
 6 -8.14973924552455  3.51731092639264  0.07433998029803
 6 -5.51602955965597  5.84811727762776  1.26366112661266
 6 -8.59577737533753  5.94601563526353  0.16915390079008
 6 -8.67055094639464  7.12318843744374  0.71095734553455
 7 -9.16141841444144  0.68227108820882 -0.45969000270027
 6 -9.90910717041704  1.81042099519952 -0.66043236733673
 6 -11.20641973857386  1.43248158725873 -1.16287800730073
 6 -11.27933033693369  0.05224058815882 -1.21315002900290
 6 -9.94534021472147 -0.47000897519752 -0.81838685478548
 6 -12.20211903560356  2.42823339433943 -1.36824359915992
 6 -12.27864241054105 -0.88050546064606 -1.81520232873287
 6 -12.29341683008301 -1.04855726692669 -3.29334445304530
 7 -7.29562903120312 -1.28536815041504 -0.02495717271727
 6 -8.24115435523552 -2.22773794589459 -0.41603655885589
 6 -7.86107225282528 -3.53883215071507 -0.48803608090809
 6 -6.51768565266527 -3.47163150015002 -0.18787051895190
 6 -6.17259985638564 -2.08911719301930  0.11709451365137
 6 -8.61077854525452 -4.82226506890689 -0.69482796119612
 6 -5.31001547184718 -4.26321020452045  0.19977284988499
 8 -5.13815265316532 -5.43698818221822  0.17952498319832
 6 -4.12231581098110 -3.31177696749675  0.56956682198220
 6 -3.46714734563456 -3.60950617191719  1.82962333523352
 8 -3.62601420202020 -3.04701143734373  2.94158683978398
 8 -2.54212540624062 -4.67522224462446  1.64826340724072
 6 -1.85375596349635 -5.01659588868887  2.92714765026503
 6  2.77849036073607 -0.75548334293429 -1.18201940234023
 6  4.08771086008601 -0.51669984628463 -0.55356550555056
 6  5.12935642004200  0.15630189558956 -1.04637441014101
 6  5.07806622962296  1.04021667096710 -2.18458262356236
 6  6.42734706750675  0.26185803600360 -0.29736622182218
 6  7.56030356825683 -0.33139348624862 -1.18723567406741
 6  8.83110498309831 -0.27633276367637 -0.31255306810681
 6  10.22194281878188 -0.60532760446045 -1.10670164066407
 6  10.18867556775677 -2.00024096019602 -1.59427289228923
 6  11.36622949984999 -0.36209999079908 -0.12372150355036
 6  12.73847875557556 -0.50714476557656 -0.84314433733373
 6  13.86861633003300 -0.16649785258526  0.10192726022602
 6  15.22241836673667 -0.21979570867087 -0.41399963976398
 6  15.67294896379638 -1.60231786558656 -0.77373699139914
 6  16.34546865276528  0.38312267226723  0.53231773897390
 6  17.74109869926993  0.60942234063406 -0.10110592519252
 6  18.86724709420942  1.23698191519152  0.84010444344434
 6  20.30893956315631  1.40782111561156  0.29148391159116
 6  20.47393874767477  2.32033033023302 -0.90490148284828
 6  21.09990092089209  2.01105404170417  1.43114847824782
 1 -4.05485697019702  3.48452397379738  1.48979356625663
 1 -10.04171456415642  3.94466530153015 -0.67517290879088
 1 -10.11336462586259 -2.53284262506251 -1.30234688688869
 1 -2.83844030093009 -0.89468778267827  2.26620731193119
 1 -2.29957356255626  1.91740532313231  1.26550720112011
 1 -2.05961041854185  1.18301875477548  3.66713042654265
 1 -3.46293135313531  2.37775183268327  3.67296946234623
 1 -3.72107555025503  0.54047873187319  3.83737615041504
 1 -2.14775726062606 -1.54749470987099 -0.34947885708571
 1 -2.11186285878588  0.31879913031303 -0.45411545114512
 1 -0.22565608300830  0.45573018691869  1.00022042114211
 1 -0.03217101910191 -1.45531004620462  1.26802075727573
 1 -5.67214598999900  6.88363700780078  0.67878358755876
 1 -5.69604659405941  6.19895325842584  2.46003230033003
 1 -4.29225318131813  5.64493565996600  1.10365354095410
 1 -9.20639269176918  5.82185833393339 -0.78661889008901
 1 -9.08409962586259  8.00306104500450  0.41440106190619
 1 -7.88090755655566  7.35473187268727  1.61519990549055
 1 -12.10615472057206  2.76915724172417 -2.65645865056506
 1 -13.10488015721572  1.94557844904490 -1.17963915541554
 1 -12.12738446954696  3.19581823652365 -0.58117936193619
 1 -12.25214999339934 -1.77095654075408 -1.21364631953195
 1 -13.32899161806180 -0.43249998679868 -1.52927845534553
 1 -13.26160251285128 -1.86781146734673 -3.53595347984798
 1 -12.33680724492449 -0.08935347294729 -3.81411490719072
 1 -11.40802708200820 -1.48380324742474 -3.74784340434043
 1 -8.82334193719372 -5.22899364226423 -1.81196446054605
 1 -8.09032839763976 -5.93197320152015 -0.25955556855686
 1 -9.52226211111111 -4.77999302060206 -0.03615543814381
 1 -3.45542623852385 -3.42797604830483 -0.27886315781578
 1 -1.30583875037504 -4.21117755745575  3.32880579587959
 1 -2.66439604820482 -5.22989460706071  3.71407424632463
 1 -1.29224733623362 -5.90229950315032  2.82571652455245
 1  2.90644994909491 -1.76681851775178 -1.50801476647665
 1  2.47691516911691 -0.16574229462946 -2.11495464766477
 1  4.47808871447145 -1.15211742694269  0.28776199219922
 1  3.92976193969397  1.18732744314431 -2.49773814351435
 1  5.65751116281628  1.99879013791379 -2.06753322152215
 1  5.76817412501250  0.59729083658366 -2.94343307430743
 1  6.79623168606861  1.20786478647865 -0.02777013421342
 1  6.42253637303730 -0.40672871027103  0.65549526622662
 1  7.27684506920692 -1.28165740094009 -1.48810013361336
 1  7.70079251515152  0.08007121522152 -2.09964288788879
 1  9.14501655325532  0.78303618861886 -0.06382875067507
 1  8.79114760346035 -0.95286079227923  0.63359122282228
 1  10.27222477387739  0.20614315201520 -1.89951484098410
 1  9.39746473197320 -2.40520849734973 -2.14566049084908
 1  11.06037859355936 -2.37214399829983 -2.22903714761476
 1  10.05483836983698 -2.82732467446745 -0.82024146384638
 1  11.34335201610161  0.66370860106011  0.19970145764576
 1  11.51240429382938 -1.03690965226523  0.66442706430643
 1  12.75959927882788 -1.48805696689669 -1.32554022162216
 1  12.98416216871687  0.20327101810181 -1.68201156245625
 1  13.88918035473547  0.94652720872087  0.26177352035203
 1  13.95261801490149 -0.51199080378038  1.18334485098510
 1  15.44077736623662  0.37299678467847 -1.33705806380638
 1  15.58285572847285 -2.21672196429643 -0.08258971287129
 1  15.03542659335934 -2.02680505610561 -1.56714412951295
 1  16.70589021842184 -1.68190371527153 -0.93526499599960
 1  16.00256545724572  1.42494032773277  0.92291883618362
 1  16.41990643784378  0.01358218311831  1.39247200840084
 1  17.99107004570457 -0.44112065946595 -0.38427176757676
 1  17.76035309980998  1.24390170907091 -0.98328190399040
 1  18.30521131373137  2.12598675637564  1.19825783108311
 1  18.71274843514352  0.58035221622162  1.72274227452745
 1  20.80470538323832  0.44774092229223 -0.05564850085008
 1  20.27079118571857  3.35837939983998 -0.62997659105911
 1  21.45236948904891  2.10854750755075 -1.39242060536054
 1  19.59761366576658  2.17946975777578 -1.65795276427643
 1  21.20724669986999  1.15670377947795  2.27250686788679
 1  22.18434014031403  2.09113034273427  1.12801776807681
 1  20.64597432733273  3.00665074837484  2.24642508300830
=======
12 -7.19695026802680  0.57944669276928  0.15412309970997
 6 -4.89937455545555 -2.00420159855986  0.57254378707871
 6 -4.81135106400640  2.79575802310231  1.01430779567957
 6 -9.42734747024702  3.11099659515952 -0.44367722742274
 6 -9.63822413611361 -1.73968947994799 -0.75688211731173
 7 -5.09766319091909  0.31976179427943  0.76989740804080
 6 -4.29887959405941 -0.81104092609261  0.94922294549455
 6 -2.87998700410041 -0.40098952465247  1.28426878107811
 6 -2.99663310171017  1.05163783208321  1.60694142484248
 6 -4.34143113801380  1.45401615041504  1.14520155005501
 6 -3.08459354145415  1.33893618171817  3.15573698259826
 6 -1.90894435543554 -0.69711497289729  0.09103306160616
 6 -0.42631005360536 -0.49328367556756  0.54026815611561
 6  0.45944708190819 -0.70897441034103 -0.63330871137114
 8  0.12745398549855 -0.99841524912491 -1.73840017171717
 8  1.75502731323132 -0.47671506790679 -0.28632542144214
 7 -7.10007045494550  2.64802039183918  0.27600629612961
 6 -6.09779905890589  3.30585156095610  0.80173370697070
 6 -6.39113636673667  4.73374766416642  0.84909559675968
 6 -7.72839554655465  4.88825945744574  0.38759715101510
 6 -8.18668293989399  3.52553174847485  0.10972351865186
 6 -5.41705966266627  5.89938240414041  1.19662442294229
 6 -8.53746154375438  6.03781481518152  0.02656964236424
 6 -8.47295118641864  7.20178629722972  0.77017326712671
 7 -9.07560983358336  0.66318918001800 -0.47218125182518
 6 -9.84983124282428  1.78773872697270 -0.62734905900590
 6 -11.25554465106511  1.41557989708971 -1.08436015551555
 6 -11.29527193109311  0.12947831193119 -1.23010172417242
 6 -9.96545222592259 -0.34193616791679 -0.82313732983298
 6 -12.18166699039904  2.45530610161016 -1.52718949374938
 6 -12.49467401370137 -0.78446585668567 -1.73958476697670
 6 -12.18742623102310 -1.04585699689969 -3.25229034763476
 7 -7.33814328262826 -1.35788540214021 -0.08694337133713
 6 -8.25847608740874 -2.18529370147015 -0.46045100030003
 6 -7.83315946154615 -3.59457772527253 -0.48667594489449
 6 -6.53907779187919 -3.55741007800780 -0.05232696459646
 6 -6.20963355975598 -2.15170345164516  0.17350015421542
 6 -8.64632209960996 -4.76517936033603 -0.88550702910291
 6 -5.36662113241324 -4.40749463296330  0.25931880448045
 8 -5.24687352525252 -5.60438492189219  0.25216224692469
 6 -4.21393497289729 -3.33950974077408  0.59558942424242
 6 -3.50208083898390 -3.72959818111811  1.82885325822582
 8 -3.75363696429643 -3.21942867906791  2.97770045114511
 8 -2.67009820352035 -4.77550227262726  1.71984056495650
 6 -2.04311489938994 -5.32858708780878  3.03557849334933
 6  2.77474998669867 -0.44484227882788 -1.29221042144214
 6  4.11261335033503 -0.24945312161216 -0.70305045404540
 6  5.14147763216322  0.45694195959596 -1.23628340104010
 6  5.00792921592159  1.13861651095110 -2.57289145444544
 6  6.42392672547255  0.59153100330033 -0.44360084528453
 6  7.68081561946195  0.03103275637564 -1.09767671817182
 6  8.92670454305431  0.09057392699270 -0.22885469826983
 6  10.22689331383138 -0.60210728242824 -0.89507047754775
 6  10.14185088528853 -2.04152508860886 -1.19801326632663
 6  11.41162403930393 -0.09681346214621  0.03661453005301
 6  12.79751465916592 -0.47858190929093 -0.65501552445245
 6  13.96789625802580 -0.13525472827283  0.30277734523452
 6  15.31872799769977 -0.23817754685469 -0.36750499029903
 6  15.67135880478048 -1.60558819261926 -0.93446306400640
 6  16.50544465036504  0.37597195719572  0.51016552375238
 6  17.89922451185118  0.46107750615061 -0.07227304190419
 6  18.92134250375037  1.12625084208421  0.74611504450445
 6  20.37095576477648  1.27692802630263  0.28800356355636
 6  20.32903425722572  2.04236253345335 -1.08877987068707
 6  21.15098602940294  1.98704164046405  1.39020438383838
 1 -3.80482196669667  3.36958247964796  1.29744433133313
 1 -10.29777016971697  3.83457429242924 -0.30069546104611
 1 -10.39460274967497 -2.32505184598460 -1.12321897409741
 1 -2.39498595549555 -1.16304461836184  2.03758444964496
 1 -2.06415002020202  1.69194277687769  1.27803845424542
 1 -2.22724718221822  0.88076852975298  3.46054976847685
 1 -3.33944900490049  2.31367542504250  3.21868403380338
 1 -3.82957640034003  0.79593427742774  3.63583599639964
 1 -1.85663814871487 -1.71039099949995 -0.46818072727273
 1 -2.06565823832383 -0.01171392099210 -0.81028106770677
 1 -0.28729224662466  0.48483309720972  0.76077647674767
 1 -0.33540134213421 -1.08154266946695  1.55188914411441
 1 -5.85095387078708  6.64071271537154  0.46970267946795
 1 -5.55915290469047  5.96111947504750  2.26689298639864
 1 -4.32095605160516  5.76921808820882  0.90357353295330
 1 -9.33572562506251  5.83922007010701 -0.78324855305531
 1 -9.00453166906691  7.91891263016302  0.27729735153515
 1 -7.72242170797080  7.41013741324132  1.54749313481348
 1 -11.83126723182318  3.08013833983398 -2.28158116281628
 1 -13.15752542174217  1.90505439663966 -1.57010820232023
 1 -12.39671140224022  3.06542519721972 -0.59152039603960
 1 -12.35461023942394 -1.78026747184718 -1.16076103100310
 1 -13.35648436733673 -0.26018275507551 -1.51429695719572
 1 -13.04610096269627 -1.73902858905891 -3.60151003550355
 1 -12.03162672687269 -0.15876041364136 -3.89848334403440
 1 -11.19206548584859 -1.69602446954696 -3.40327894789479
 1 -8.78199780278028 -4.55432617551755 -1.96686995109511
 1 -8.04536390119012 -5.61314131833183 -0.96968658165817
 1 -9.48279816471647 -4.83091811311131 -0.20808263086309
 1 -3.36233692959296 -3.42671592229223 -0.34662993449345
 1 -1.16449461596160 -4.59956639633963  3.34131704700470
 1 -2.90141975057506 -5.51587320492049  3.89069190809081
 1 -1.70826893839384 -6.35578485168517  2.84355830873087
 1  2.74858416251625 -1.48523035893589 -1.41943590859086
 1  2.49696717431743 -0.00711643204320 -2.26714986718672
 1  4.13323422902290 -0.65005722092209  0.23393660966097
 1  4.01437040054005  0.85433414381438 -3.12277064676468
 1  5.46597200890089  2.15715597449745 -2.60026649484948
 1  5.93056036363636  0.50512161966197 -3.33967269826983
 1  6.71310337323732  1.59086308630863 -0.42198955615562
 1  6.32598671807181  0.21790375297530  0.59394911161116
 1  7.45664304900490 -1.08651788698870 -1.32500382398240
 1  7.80682311821182  0.25910911901190 -2.14688761236124
 1  9.01219327092709  1.11490937593759 -0.04929729752975
 1  8.68301679037904 -0.34507001320132  0.72181004470447
 1  10.40697824922492 -0.01290875317532 -1.82698758825883
 1  9.28011299679968 -2.37210518701870 -1.84172009680968
 1  10.86740929662966 -2.48230501440144 -1.82821706560656
 1  9.99275216121612 -2.54549649164916 -0.23986342604260
 1  11.33158083898390  0.98869109930993  0.07312880038004
 1  11.47097015041504 -0.54591055235524  1.17570819241924
 1  12.75836915581558 -1.53190135133513 -0.74030169776978
 1  12.94484823732373  0.06859755075508 -1.69653301460146
 1  13.68705014171417  0.98843139913991  0.56160350335033
 1  14.00430318341834 -0.80612021672167  1.18020453695370
 1  15.17366065456546  0.50984046904691 -1.12875723372337
 1  15.87577502040204 -2.36224651675167 -0.04621607550755
 1  15.02086513721372 -2.16745912151215 -1.62853026812681
 1  16.66170579998000 -1.67589311421142 -1.59625109460946
 1  16.06490169086909  1.36422425612561  0.83431997629763
 1  16.51241568876888 -0.09278845394539  1.58339110031003
 1  18.12119305800580 -0.47159370677068 -0.51216455685569
 1  17.90306737123712  1.10988830773077 -1.00710428622862
 1  18.49753054565457  2.13398755645565  1.16640464576458
 1  18.91182834313431  0.58487266826683  1.96025602590259
 1  20.73460837353736  0.22345849404940  0.15040210421042
 1  19.79132323892389  2.90693425532553 -0.87175076847685
 1  21.29808406050605  2.44786143894389 -1.28267963126313
 1  19.90295419981998  1.51642345314531 -1.89781675067507
 1  21.08823479867987  1.48968707780778  2.42484210141014
 1  22.14174588088809  2.21307253695370  1.24313928022802
 1  20.91287101700170  3.07699778307831  1.56179662016202
>>>>>>> 8e03b5b5abfc0030b3aa597dc0de36371bfbd096

