%nproc=4
%Mem=2GB
# td=(NStates=1) CAM-B3LYP/6-31G(d,p) 

TD

0 1
12 -7.10974154715471  0.68968771687169  0.02463015041504
 6 -4.79274389238924 -1.95526670507051  0.45622215491549
 6 -4.84732466136614  2.75146359365937  1.04040040494049
 6 -9.43847858335834  3.09577507300730 -0.40710357005701
 6 -9.52953326702670 -1.77495300630063 -0.77389381848185
 7 -5.09436286088609  0.41455127322732  0.73903432173217
 6 -4.29440914701470 -0.65400522252225  0.91879990319032
 6 -2.88929793519352 -0.35112453815382  1.24410476467647
 6 -3.02035547394739  1.15086775507551  1.72207293799380
 6 -4.41080807570757  1.47543829262926  1.14490152005200
 6 -2.86950203230323  1.24205649374938  3.20600200910091
 6 -1.93339680068007 -0.63709897129713  0.06937089538954
 6 -0.41504892749275 -0.45372972017202  0.58068219751975
 6  0.61681281848185 -0.61386489938994 -0.55571095159516
 8  0.25584682478248 -0.98027343494349 -1.66154248594859
 8  1.81161297179718 -0.39795719211921 -0.18026481538154
 7 -7.19957040494049  2.63219880968097  0.33843253875388
 6 -6.04979425842584  3.35011598739874  0.71028456205621
 6 -6.39580683378338  4.73938822822282  0.71210189738974
 6 -7.78348105510551  4.86726735823582  0.31503989528953
 6 -8.13873814541454  3.48793798909891  0.05371791809181
 6 -5.51759971667167  5.80343280918092  1.09720448094809
 6 -8.47086488408841  6.07979901360136  0.01345833123312
 6 -8.38202209350935  7.23059917851785  0.80232648244824
 7 -9.08777104970497  0.75078793989399 -0.49961399509951
 6 -9.90710697039704  1.83375332843284 -0.66836316041604
 6 -11.21082017861786  1.47694603370337 -1.12434415391539
 6 -11.15434783868387  0.07405276937694 -1.25397411141114
 6 -9.91324700540054 -0.33889586388639 -0.84946996309631
 6 -12.44656348004800  2.34607517851785 -1.29134590939094
 6 -12.44121866816682 -0.83614102420242 -1.73020382888289
 6 -12.27431491989199 -1.23456586778678 -3.20591571017102
 7 -7.23483295159516 -1.39045865946595 -0.16495117211721
 6 -8.23951419121912 -2.24152932503250 -0.51616657185719
 6 -7.74861100670067 -3.68004627212721 -0.52021929922992
 6 -6.43815769986999 -3.47440177717772 -0.06136786868687
 6 -6.14643724012401 -2.22672095339534  0.16942974717472
 6 -8.55274274167417 -4.90137297969797 -0.85883436183618
 6 -5.26318078837884 -4.36442032553255  0.04977785038504
 8 -4.98875771367137 -5.51611609500950  0.07970500120012
 6 -4.12908648804880 -3.27432322212221  0.56656652195220
 6 -3.61162179307931 -3.70904612591259  1.88410878377838
 8 -3.75053665426543 -3.12795953215322  2.87528020912091
 8 -2.86822801650165 -4.84551927432743  1.75990457135714
 6 -2.18848943684368 -5.27762199129913  2.99074400990099
 6  2.86750926262626 -0.65710350495050 -1.08111931233123
 6  4.22627471647165 -0.38362653895390 -0.52925307430743
 6  5.11562504690469  0.47406367176718 -0.83331310401040
 6  5.03948237123712  1.43280592989299 -2.06473063836384
 6  6.40730506330633  0.62259410961096 -0.09075556075608
 6  7.56236377427743 -0.06229657655766 -0.90103705420542
 6  8.90197206980698 -0.08795392579258 -0.22086389918992
 6  10.13011363586359 -0.61005807750775 -0.83611458195820
 6  9.99538623882388 -2.09171010711071 -1.30334379937994
 6  11.43935681258126 -0.37730151095110  0.04994586318632
 6  12.71358626632663 -0.71416546764676 -0.65387541044104
 6  13.86673614201420 -0.23655485828583  0.18773584108411
 6  15.26754287918792 -0.09375310441044 -0.54005224502450
 6  15.68888055695570 -1.56400403420342 -0.85980559825983
 6  16.32900700660066  0.57986234623462  0.33993850105011
 6  17.73394798419842  0.50983238163816 -0.25031084568457
 6  18.74826519601960  1.22979119611961  0.69850028302830
 6  20.27483615281528  1.29804013751375  0.20029479267927
 6  20.42417377117712  1.98112640984098 -1.16639763246325
 6  21.09646057685769  1.89809274557456  1.33277864126413
 1 -3.88795027952795  3.31100662206221  1.30694528142814
 1 -10.35766615931593  4.03980481548155 -0.58275366686669
 1 -10.24260755015501 -2.51785112591259 -1.35871252345235
 1 -2.56586304320432 -0.97736605050505  2.06871756295630
 1 -2.16673027822782  1.76154973757376  1.01607225762576
 1 -1.89928438593859  0.79400985388539  3.43892760626063
 1 -2.94889994999500  2.37556161366137  3.41780394579458
 1 -3.78172161486149  0.74951963596360  3.78338075087509
 1 -1.93242572747275 -1.68699866026603 -0.37726163536354
 1 -2.14557623012301  0.13830108050805 -0.72567260686069
 1 -0.16030954835484  0.55434004790479  0.91452185128513
 1 -0.08047584958496 -1.32266678187819  1.35031898709871
 1 -5.76192496789679  6.81913055715572  0.58503421262126
 1 -5.57884487388739  6.06913027612761  2.12259855695570
 1 -4.43653760976098  5.54838600500050  0.62186536213621
 1 -9.16256830933093  6.18892504060406 -0.96572680088009
 1 -9.06862807870787  8.06351709060906  0.37783740554055
 1 -7.91186065186519  7.10201660116012  1.78097648314831
 1 -12.28763286838684  3.13112343834383 -2.21565457015702
 1 -13.16762643184318  1.67831172237224 -1.55656684818482
 1 -12.69456118721872  3.08079673437344 -0.59946119011901
 1 -12.39333411181118 -1.71600104520452 -1.03091804670467
 1 -13.24755347424743 -0.47081381818182 -1.31628715621562
 1 -13.26904325692569 -1.80515520172017 -3.42448233273327
 1 -12.28898246244625 -0.34664920252025 -3.81982547824782
 1 -11.34268054735474 -1.78510337743774 -3.44810343034303
 1 -9.21625122812281 -4.68374911781178 -1.79974323842384
 1 -8.12055141994199 -5.85700570477048 -0.86731634463446
 1 -9.30398028292829 -5.16682170347035 -0.01741356395640
 1 -3.41677237313731 -3.33981723242324 -0.10831610311031
 1 -1.54728289478948 -4.12134857455746  3.22707562286229
 1 -2.96319592819282 -5.67121873947395  3.65459829872987
 1 -1.56202431393139 -6.02757203040304  2.57052100500050
 1  2.89065836993699 -1.53685552145215 -1.66577054205420
 1  2.68286576417642 -0.08562428282828 -2.05823897609761
 1  4.47960886648665 -1.15332754795480  0.39801301730173
 1  4.01212017551755  1.33696240664066 -2.50780915061506
 1  5.39319473117312  2.50119037793779 -1.83165963416342
 1  5.90015732333233  0.96800790829083 -2.69305803680368
 1  6.73938600150015  1.61128512851285  0.08968161096110
 1  6.26965108450845  0.04654661726173  0.83572328902890
 1  7.04603198789879 -1.24403363856386 -1.22827415101510
 1  7.61967440334033  0.55122833093309 -1.95276820042004
 1  9.02272432403240  0.96845473047305  0.01960959315932
 1  8.72983147184718 -0.53325883208321  0.68589645334533
 1  10.33786133753375  0.01000353805381 -1.84407929742974
 1  8.98167315281528 -2.31351932843284 -1.71181710651065
 1  10.74184674037404 -2.51556834073407 -1.95727997189719
 1  9.93333621962196 -2.82579452145215 -0.45344478417842
 1  11.35411309220922  0.78228045824582  0.12752423992399
 1  11.33280633403340 -1.03132909420942  0.95742636423642
 1  12.77796111501150 -1.66466462766277 -1.04794246184618
 1  12.72115586808681 -0.30204951395140 -1.62628598989899
 1  13.74223566026603  0.71318387438744  0.67769511251125
 1  13.89132188528853 -0.80755035973597  1.06735325182518
 1  15.13449673817382  0.52003148814881 -1.43523788178818
 1  15.89199664256426 -2.16829712181218  0.14799334543454
 1  14.87688073877388 -2.03754613021302 -1.51481889698970
 1  16.66822645204521 -1.82650817571757 -1.43104457395740
 1  16.19408460916092  1.78221605530553  0.61579812411241
 1  16.28669311651165  0.14644546944694  1.41970473167317
 1  17.99223016171617 -0.52496904430443 -0.34377771817182
 1  17.70967803230323  0.96489380828083 -1.24132770857086
 1  18.57324811741174  2.29250340804080  0.80414842014201
 1  18.92503966426643  0.88809299029903  1.77134713501350
 1  20.63951886458646  0.28412456065607  0.08951601560156
 1  20.09499360596060  3.10692425432543 -1.22791638503850
 1  21.46247049914992  1.96924357715772 -1.60653201650165
 1  19.85119902430243  1.26650846164616 -2.00371734073407
 1  20.79186516171617  1.42472058115812  2.27291690889089
 1  22.23612531883188  1.85683691339134  1.24765973227323
 1  21.04942467236724  3.07435751905191  1.50881132163216

