%nproc=4
%Mem=3GB
# td=(NStates=1) iop(3/107=0140000000,3/108=0140000000) CAM-B3LYP/6-31G(d,p) 

TD

0 1
12 -7.20820551225122  0.55934431793179  0.15957232723272
 6 -4.74266308280828 -2.05797302790279  0.42277768016802
 6 -4.79226525712571  2.83175189308931  1.20616072127213
 6 -9.38188495299530  3.19231678467847 -0.50860333563356
 6 -9.59849594759476 -1.71603336903690 -0.89439624452445
 7 -5.13531056225623  0.31900799139914  0.83942176617662
 6 -4.32302454975498 -0.79468061126113  0.87546544124412
 6 -2.88667488808881 -0.41912031003100  1.24632030113011
 6 -2.94885811271127  1.06032473407341  1.64236051535154
 6 -4.35162539723972  1.47670232133213  1.28321271517152
 6 -2.89054523532353  1.24388720802080  3.20396571117112
 6 -1.95291102080208 -0.63890988018802  0.14069788008801
 6 -0.49231494069407 -0.54576782478248  0.54504788708871
 6  0.54292621582158 -0.54189081098110 -0.65338512861286
 8  0.22574279107911 -0.90550432813281 -1.75553294639464
 8  1.75685428382838 -0.44786472487249 -0.19976536413641
 7 -7.12157980138014  2.57696090599060  0.33595451955196
 6 -6.06891703550355  3.33850761816182  0.80823669976998
 6 -6.35624053245324  4.70602746634663  0.86650490919092
 6 -7.71838662396240  4.84774657985799  0.52104823122312
 6 -8.16045557305731  3.41971891069107  0.05929392799280
 6 -5.56823885778578  5.81149062276228  1.38404856005601
 6 -8.50417042504250  6.03917418701870  0.18539915241524
 6 -8.33169157915792  7.23907305700570  0.77256131543154
 7 -9.15248428952895  0.69767676207621 -0.48500507440744
 6 -9.84849233553355  1.89141246554655 -0.78204101760176
 6 -11.12431638433844  1.55728517301730 -1.40557541724172
 6 -11.26444593179318  0.17416496229623 -1.39738976727673
 6 -9.99083668726873 -0.31260145354535 -0.89789199049905
 6 -12.27690862856286  2.58619386078608 -1.64325377807781
 6 -12.34544833773377 -0.69471559535954 -1.90566989758976
 6 -12.05791770067007 -1.29627982028203 -3.32067271847185
 7 -7.15930889328933 -1.32055689138914 -0.32011468656866
 6 -8.26174050035004 -2.23774231973197 -0.55541712161216
 6 -7.84997703750375 -3.58586913831383 -0.48367866766677
 6 -6.57011480198020 -3.53095607770777 -0.06737881958196
 6 -6.14914864656466 -2.17672562836284  0.11149298469847
 6 -8.57824016351635 -4.87315341374137 -0.76106949004900
 6 -5.32693815671567 -4.37499106250625  0.27468244234423
 8 -5.23178417071707 -5.55351220822082  0.15342129072907
 6 -4.13821832443244 -3.39114656205621  0.54695301690169
 6 -3.55957013381338 -3.68867681038104  1.91405737423742
 8 -3.70367315071507 -3.03805116301630  2.97821117931793
 8 -2.88547390019002 -4.81046966546655  1.86057509500950
 6 -2.31248020502050 -5.29478468436844  3.04228162856286
 6  2.78205452585259 -0.65113340224022 -1.24771828902890
 6  4.07532841804180 -0.32645791369137 -0.65097766056606
 6  5.14551004230423  0.40386691469147 -1.03258613561356
 6  5.10394412001200  1.30570824612461 -2.18826296129613
 6  6.38296457515752  0.44574519051905 -0.14720524492449
 6  7.68686013861386 -0.04147269526953 -0.87096742544254
 6  8.89449716131613 -0.04145596169617 -0.03432953535354
 6  10.13194865546555 -0.51843350655066 -0.79549526952695
 6  9.95717899449945 -1.98655653555356 -1.12319928592859
 6  11.34181884568457 -0.25101999309931 -0.01044900740074
 6  12.68671640714071 -0.45479551305131 -0.70329783488349
 6  13.89795106690669 -0.15278099239924  0.18584499609961
 6  15.30853684468447 -0.25067415101510 -0.48756440894089
 6  15.69912618361836 -1.77557594589459 -0.81169299559956
 6  16.42109910261026  0.40391690899090  0.40365510021002
 6  17.80140772847285  0.57520124972497 -0.28515504250425
 6  18.78336875547555  1.30569864836484  0.61475473217322
 6  20.26267907230723  1.30256968946895  0.09414612061206
 6  20.45975882168217  2.09938724382438 -1.17135183108311
 6  21.23032809980998  1.72239393929393  1.26720066006601
 1 -4.06865722922292  3.60434368576858  1.57011310711071
 1 -10.20233235653565  3.83027530203020 -0.39393391959196
 1 -10.23624804890489 -2.55609114421442 -0.95034285368537
 1 -2.62793008020802 -0.93767397009701  1.97198368906891
 1 -2.15454892119212  1.77096915801580  1.29372302130213
 1 -2.00011309770977  0.65621472787279  3.56650698809881
 1 -2.84535164426443  2.25426464926493  3.61462948514851
 1 -3.77565036553655  0.58310346464646  3.63241492669267
 1 -2.15986110511051 -1.55474614541454 -0.41815982308231
 1 -2.17638400740074  0.11051867166717 -0.61083781838184
 1 -0.16675210391039  0.43512309960996  1.06313017601760
 1 -0.28315673597360 -1.32089285588559  1.25759921822182
 1 -5.53145732343234  6.79765727772777  0.73344317561756
 1 -5.89994146544654  6.06776965836584  2.41851386388639
 1 -4.40915576017602  5.55316958495850  1.44577531013101
 1 -9.42890315011501  5.74534791679168 -0.21436278897890
 1 -9.31438050175018  7.86182590359036  0.51429120482048
 1 -7.67949588168817  7.52748958535854  1.60282924322432
 1 -11.92891336433643  3.24086323342334 -2.44364019551955
 1 -13.42746004370437  2.21451019341934 -1.78169389758976
 1 -12.40864189688969  3.25886322042204 -0.66927736723672
 1 -12.48559052395239 -1.48469939273927 -1.07188068896890
 1 -13.29251155025502 -0.21448415891589 -1.93458921332133
 1 -12.95057025622562 -1.86793045514551 -3.54980593869387
 1 -12.01874227992799 -0.55217368866887 -4.13395237363736
 1 -11.14769960936093 -1.83479450665066 -3.36102438063806
 1 -9.00041466006601 -4.81558805960596 -1.85232129512951
 1 -7.83569795499550 -5.65283123642364 -0.45224517961796
 1 -9.38814299329933 -5.06321476987699 -0.24983725242524
 1 -3.46594411291129 -3.33520012561256 -0.28383612171217
 1 -1.32470585818582 -4.75468768216822  3.41525324292429
 1 -3.08660509780978 -5.45615514041404  3.73908494619462
 1 -2.06543706420642 -6.32562334713471  2.85561892299230
 1  2.68444649944994 -1.74123074587459 -1.40284173287329
 1  2.86446288758876 -0.05868778397840 -2.22597365486549
 1  4.25035552225223 -0.88499691349135  0.35419681988199
 1  3.95470078157816  1.37170271297130 -2.51981246694669
 1  5.36510344254425  2.38587901180118 -1.99558699709971
 1  5.78893846234624  0.97466865776578 -3.17314357125713
 1  6.77664584848485  1.37756773737374  0.22610222412241
 1  6.62488036013601 -0.23246058275828  0.75164135963596
 1  7.52051417421742 -0.96218689168917 -1.52664742194219
 1  7.75858841734173  0.79667877087709 -1.61773259615962
 1  8.96376242054205  0.99493899139914  0.27645007310731
 1  8.70256337713771 -0.63281163386339  0.83639976337634
 1  10.17952258405841  0.03987013481348 -1.79862502050205
 1  9.34149375847585 -2.14591287478748 -1.92117049894990
 1  11.00894003460346 -2.36330973027303 -1.54481984008401
 1  9.74463666076608 -2.43709782448245 -0.28769616331633
 1  11.33389503110311  0.93969040244024  0.18024579537954
 1  11.40666826232623 -0.73941523912391  0.84654097419742
 1  12.97586553905391 -1.57029444874487 -1.07445971747175
 1  12.77125295519552  0.16255119111911 -1.67385171887189
 1  13.84315573587359  0.91374673797380  0.73368819751975
 1  13.86082439303930 -0.75402178107811  1.19151152515252
 1  15.41385178657866  0.09636303330333 -1.50204147294729
 1  15.71240503730373 -2.32470181138114  0.07356922142214
 1  15.06396804120412 -2.06658117811781 -1.59957133063306
 1  16.68876715631563 -1.50460135713571 -1.18205471877188
 1  16.10697397089709  1.38000633433343  0.56310222652265
 1  16.57035111291129 -0.31717800260026  1.17247574227423
 1  18.39517625532553 -0.36158267226723 -0.39005920152015
 1  17.74301161076108  1.21311020512051 -1.21845758935894
 1  18.52218127502750  2.42634390239024  0.46194814161416
 1  18.69665562806281  0.86745158465847  1.58691193669367
 1  20.59707954025403  0.22210320792079 -0.07708181598160
 1  20.05820263876388  3.39103988048805 -1.10637282198220
 1  21.63412721352135  2.21998314041404 -1.39688766996700
 1  20.18549694729473  1.53022331253125 -2.05025340974097
 1  20.90397425092509  1.11696733763376  2.11255492429243
 1  22.25713360616061  1.53536400710071  1.04467112071207
 1  21.17427750625063  2.81644776197620  1.35790292699270

