%nproc=4
%Mem=3GB
# td=(NStates=1) iop(3/107=0140000000,3/108=0140000000) CAM-B3LYP/6-31G(d,p) 

TD

0 1
12 -7.14342903460346  0.59575795929593  0.05215158515852
 6 -4.90588940544054 -1.89572680328033  0.48461386378638
 6 -4.83599963056306  2.92896161406141  1.06874697989799
 6 -9.40098686318632  3.01292884588459 -0.25484796009601
 6 -9.54225032303230 -1.74187595329533 -0.88598540344034
 7 -5.11507853905391  0.48709480008001  0.70051787578758
 6 -4.29385163246325 -0.63982512571257  0.70468836353635
 6 -2.85744196479648 -0.35468386638664  1.13753942304230
 6 -3.01312453935394  1.13289199079908  1.64759103840384
 6 -4.43829406410641  1.56064071517152  1.23447784168417
 6 -2.91924810561056  1.21866468576858  3.18047336193619
 6 -1.89018474817482 -0.45127111631163  0.02268607890789
 6 -0.46386209540954 -0.26043929192919  0.43541692399240
 6  0.51882380558056 -0.55288191009101 -0.70141993209321
 8  0.18029824662466 -0.96917069476948 -1.76068346144614
 8  1.74116271467147 -0.32338227662766 -0.36966235383538
 7 -7.11482912631263  2.60207341724172  0.33513443754375
 6 -6.09767991179118  3.42114588198820  0.86647252335234
 6 -6.51097600600060  4.80038690229023  0.84198245694569
 6 -7.80630541584158  4.83735554075408  0.46970309670967
 6 -8.23101262876288  3.51167810661066  0.12052005060506
 6 -5.63051508540854  5.96001547524753  1.36002615781578
 6 -8.57218722672267  6.13066333593359  0.08256886938694
 6 -8.41558996899690  7.31113026272627  0.69660371967197
 7 -9.11488052915291  0.62035903030303 -0.49323589748975
 6 -9.88998648494849  1.78455177947795 -0.64338715221522
 6 -11.29209316201620  1.43044248874887 -1.01693655335534
 6 -11.27766725392539  0.12047959375938 -1.21100112841284
 6 -9.93229083268327 -0.38496869026903 -0.88687088838884
 6 -12.38886982468247  2.43865910731073 -1.21453090579058
 6 -12.36438023092309 -0.82933905770577 -1.50994032463246
 6 -12.17114902380238 -1.41020121242124 -2.94477512871287
 7 -7.17963092549255 -1.34560939663966 -0.28200087518752
 6 -8.21604593089309 -2.27203574907491 -0.63971555145515
 6 -7.83081512131213 -3.54900545194519 -0.50298059785979
 6 -6.40733852435244 -3.60266324842484 -0.24668675037504
 6 -6.15900963266327 -2.17225518131813  0.04317615301530
 6 -8.49985232473247 -4.92613871227123 -0.90684406750675
 6 -5.15000046294629 -4.30203376677668 -0.01968699459946
 8 -5.09107009930993 -5.47783464046405 -0.00763481488149
 6 -4.15443994659466 -3.25444289168917  0.54912323392339
 6 -3.67931210801080 -3.61064900760076  1.95091105960596
 8 -3.90481326472647 -3.02056941484148  2.96659001720172
 8 -2.76555190799080 -4.62315093359336  1.84130316781678
 6 -2.36038499549955 -5.08078328422842  3.03627102750275
 6  2.80649697009701 -0.59916820572057 -1.39326284348435
 6  4.12125301050105 -0.46032130003000 -0.64943750655066
 6  5.22987847914791  0.17283381138114 -1.08555143214321
 6  5.15275900150015  1.12739041434143 -2.25436957195720
 6  6.43258953765377  0.21595221122112 -0.24674519891989
 6  7.70870232283228 -0.34792334033403 -1.04218454715472
 6  8.92888059965997 -0.23334515061506 -0.17598370077008
 6  10.17684314491449 -0.77340900410041 -0.86420214021402
 6  10.22620589718972 -2.18692657255726 -1.27355432143214
 6  11.42495715951595 -0.49063395449545  0.11448348584858
 6  12.77645538103810 -0.51120115361536 -0.76602410751075
 6  13.94786605840584 -0.25206092039204  0.21505791739174
 6  15.35062105310531 -0.21569065266527 -0.41643729622962
 6  15.73951022202220 -1.69156754505451 -0.67977980428043
 6  16.41153814651465  0.42772929022902  0.48413314801480
 6  17.82356994469447  0.58847257685769 -0.21381790879088
 6  18.78701912051205  1.20177825632563  0.75868912561256
 6  20.24340714511451  1.37068650115012  0.23820052605261
 6  20.33475632143214  2.28867617271727 -1.00483517941794
 6  21.13822888988899  1.94364606450645  1.38964290429043
 1 -4.07284764826483  3.56647989938994  1.42542863866387
 1 -10.19306142944294  3.79302157665767 -0.55397992419242
 1 -10.43316774087409 -2.34950048514852 -0.95555337473747
 1 -2.57137442464246 -1.14747495019502  1.83914040474047
 1 -2.28219168546855  1.90853291439144  1.20582423142314
 1 -1.94408749514952  1.11776088248825  3.45616595399540
 1 -2.97958506760676  2.16148537133713  3.61709973217322
 1 -3.62260506100610  0.53110826512651  3.53652533773377
 1 -1.81519663866387 -1.44215488628863 -0.46853486058606
 1 -2.09488585758576  0.13482110191019 -1.01999873447345
 1 -0.47471289999000  0.82894248154815  0.80305416841684
 1 -0.24275269556956 -0.77120788738874  1.41431488978898
 1 -5.66680085778578  7.10388790079008  0.73366319761976
 1 -5.87643911521152  6.45078796019602  2.25596760926093
 1 -4.58279312391239  5.66421068906891  1.36205693829383
 1 -9.49356961676168  6.10949433143314 -0.45658701140114
 1 -9.00714977867787  8.15793551455146  0.63229300500050
 1 -7.60497842994299  7.40268710511051  1.46285524582458
 1 -12.02490296329633  3.36877602470247 -1.84013984548455
 1 -13.18157545524552  1.86971571397140 -1.50182591079108
 1 -12.89204023672367  2.94271160526053 -0.33208364786479
 1 -12.12615458035804 -1.68220914371437 -0.73757725862586
 1 -13.34265656475648 -0.38158086858686 -1.54567032143214
 1 -12.93933913311331 -2.14855851795179 -3.21836279437944
 1 -12.18117852355235 -0.64973344464447 -3.77235621402140
 1 -11.17841268066807 -1.84386541374137 -3.11774005220522
 1 -8.72462708130813 -5.07089359015902 -2.01901796479648
 1 -7.87079146434643 -5.83420937423742 -0.57245720082008
 1 -9.58650282928293 -4.99352780118012 -0.70277254595459
 1 -3.14656217471747 -3.37307391299130 -0.04489222732273
 1 -1.56881026862686 -4.66356857025703  3.68362007960796
 1 -3.23312975027503 -5.40071959685969  3.85714675237524
 1 -1.84840536103610 -5.90751153595360  2.68270163126313
 1  2.58866692149215 -1.51597822062206 -1.81780322902290
 1  2.56080252155215 -0.10395231043104 -2.32535359285929
 1  4.14272475917592 -1.01359977377738  0.21131253145314
 1  4.11772708420842  1.04188973167317 -2.81762224792479
 1  5.46400333253325  2.31318174207421 -1.96390382878288
 1  5.87270683918392  0.89001019191919 -2.84732098899890
 1  6.74086227012701  1.09946992759276  0.44143375727573
 1  6.29762763486349 -0.52171950865087  0.63881007650765
 1  7.38930105290529 -1.33806447944794 -1.45927068426843
 1  7.93381594009401  0.21281038403840 -2.02021284418442
 1  9.16663270757076  0.69502900040004  0.10121254935494
 1  8.77294041484148 -0.81743009570957  0.79358548194819
 1  10.39838447024703 -0.19319317151715 -1.87080223822382
 1  9.36320592969297 -2.19537782128213 -2.17770615251525
 1  11.34655379597960 -2.48477187648765 -1.65711106920692
 1  9.86501869896990 -2.86831094579458 -0.47853524722472
 1  11.45393703530353  0.38536496989699  0.51960973177318
 1  11.28549614511451 -1.21367266486649  0.91294761486149
 1  13.05349330183018 -1.53820123942394 -1.22397466896690
 1  12.83994982488249  0.15968090409041 -1.60384471817182
 1  13.72434385468547  0.76554191749175  0.51083591229123
 1  13.78976728732873 -0.89685606450645  1.29603197719772
 1  15.25712611401140  0.46485988298830 -1.25722699149915
 1  15.89533333013301 -2.23027236843684  0.20088195269527
 1  15.26358800320032 -2.17946246624663 -1.49091046454645
 1  16.79539781938194 -1.67154805180518 -1.23864037733773
 1  16.17739101260126  1.38999733343334  0.71731764806481
 1  16.69025310311031 -0.20838712351235  1.27831632633263
 1  18.25306204390439 -0.29262577657766 -0.60190038563856
 1  17.83434074367437  1.24726362046205 -1.19417516111611
 1  18.42286134303430  2.14701596959696  1.05881782858286
 1  18.95805176767677  0.65789062856286  1.72379562506251
 1  20.57001683398340  0.33833483108311 -0.13065717351735
 1  19.94671148964897  3.23798457495750 -0.82447463216322
 1  21.32809661046105  2.12820396249625 -1.32399038023802
 1  19.67550594819482  2.05264555475548 -1.69650803520352
 1  21.06778063156316  1.07323296419642  2.16467013581358
 1  22.09641753455345  1.98759923062306  0.91763841744174
 1  20.86701678017802  3.04871098829883  1.60912804950495

