%nproc=4
%Mem=2GB
# td=(NStates=1) CAM-B3LYP/6-31G(d,p) 

TD

0 1
12 -7.16882745574557  0.56974572267227  0.13880156755676
 6 -4.83185780378038 -1.92805398379838  0.51362789548955
 6 -4.82617254615462  2.88101654895490  1.14635100000000
 6 -9.54165890139014  3.11215671117112 -0.36604946464646
 6 -9.44870518421842 -1.76300181118112 -0.93644007310731
 7 -5.11524494909491  0.51259107720772  0.69485990429043
 6 -4.37695740184018 -0.65247506950695  0.85105312851285
 6 -2.98214722012201 -0.29100852655266  1.21565191939194
 6 -2.98866230463046  1.10760342864286  1.61433216391639
 6 -4.39533652855286  1.53296404520452  1.14976200610061
 6 -2.93671875397540  1.34976726482648  3.24052546144614
 6 -1.95224868586859 -0.59372463386339 -0.00016605830583
 6 -0.47351477407741 -0.44984933213321  0.47177130643064
 6  0.46533767096710 -0.60015352825283 -0.60278565906591
 8  0.17651889198920 -1.06943235083508 -1.72739907160716
 8  1.79232104260426 -0.38363575997600 -0.18913570247025
 7 -7.18464891279128  2.53468905870587  0.38280697619762
 6 -6.15065434443444  3.37446842264226  0.77216074967497
 6 -6.49169642274227  4.79514380378038  0.71685237243724
 6 -7.83938664566457  4.74996562806281  0.44731312261226
 6 -8.27009128072807  3.47262645794579  0.01227377367737
 6 -5.69666762346235  5.90024249014902  1.15820058055806
 6 -8.57288508610861  6.04468550225023  0.13409039443944
 6 -8.57139103040304  7.09831595019502  0.94131038083808
 7 -9.09226149874988  0.61116397749775 -0.60263429712971
 6 -9.85222148184818  1.69339929302930 -0.65863218731873
 6 -11.19432852945294  1.38826716581658 -1.22656437593759
 6 -11.24693709760976  0.04513987808781 -1.40563927792779
 6 -9.92043772447245 -0.43211518581858 -0.96126114221422
 6 -12.24408323202320  2.41443201420142 -1.47734450925093
 6 -12.44993954025403 -0.70388779887989 -1.84931574007401
 6 -12.32741022942294 -0.97479989118912 -3.33258837743774
 7 -7.26439590789079 -1.47236685028503 -0.03472814981498
 6 -8.30973121292129 -2.27932310441044 -0.48170312551255
 6 -7.89182532813281 -3.61643991149115 -0.38882615991599
 6 -6.48468235233523 -3.61106544354435  0.00565883398340
 6 -6.18728132453245 -2.22826110741074  0.20172297649765
 6 -8.69273674107411 -4.84334717711771 -0.77100557895790
 6 -5.28866333663366 -4.35502938643864  0.19978285088509
 8 -5.18683752165217 -5.60325480888089  0.12174920562056
 6 -4.17221080048005 -3.26005179497950  0.61495136043604
 6 -3.43065369626963 -3.62380760206021  1.89479985288529
 8 -3.69006060666067 -3.13225996219622  2.91576425752575
 8 -2.65907710141014 -4.64077880028003  1.61453003390339
 6 -1.89522010991099 -5.03774800390039  2.85888082358236
 6  2.89314182588259 -0.76203399799980 -1.15530673107311
 6  4.17340942994299 -0.38560673697370 -0.48150829982998
 6  5.19653313771377  0.42681894729473 -0.92596236893689
 6  5.15558398139814  1.17239988928893 -2.20737490279028
 6  6.33120745354535  0.50362221242124 -0.03161964716472
 6  7.65507304520452 -0.04035438233823 -0.79559651015102
 6  9.00423229582958 -0.15927105750575 -0.02165397819782
 6  10.24028465296530 -0.54074114581458 -0.80237120762076
 6  10.16951365156516 -2.04352528862886 -1.32235570057006
 6  11.40171304820482 -0.29874365516552  0.00460132873287
 6  12.74957986568657 -0.38716276737674 -0.58711873477348
 6  13.95758522692269 -0.00707190999100  0.22345941344134
 6  15.31114723962396 -0.13387711681168 -0.46506474627463
 6  15.61577324622462 -1.69596723052305 -0.77601721942194
 6  16.39073317921792  0.45757011701170  0.45065957315732
 6  17.86848143754375  0.53064446284628 -0.23497931253125
 6  18.81168153765377  1.22239045604560  0.66524695769577
 6  20.33248191739174  1.19711004450445  0.11766652985299
 6  20.45236659045905  1.81510980818082 -1.27366835953595
 6  21.28766969776978  1.88126106240624  1.14869023242324
 1 -4.12032351685168  3.70444596599660  1.29367395429543
 1 -10.23427382008201  3.92880371537154 -0.45575096659666
 1 -10.21038432783278 -2.67057639843984 -1.20126677887789
 1 -2.58686514341434 -0.96998531243124  2.09557024822482
 1 -2.10000360556056  1.76066964956496  1.16574722512251
 1 -1.80228468596860  1.16781723462346  3.36979069256926
 1 -3.17434249424942  2.23914797229723  3.45529769516952
 1 -3.73743718641864  0.69394407840784  3.59980239303930
 1 -2.15573805870587 -1.66729669006901 -0.35561947114712
 1 -2.17215888838884  0.02629988038804 -0.79197923752375
 1 -0.28041155855586  0.50364497839784  0.96085648474847
 1 -0.19750755275528 -0.94635915111511  1.55631958715872
 1 -5.83441221662166  6.67974661876188  0.37406311551155
 1 -5.94001099049905  6.44168753185319  2.00116641374137
 1 -4.60485444144414  5.53271443784378  1.51759493509351
 1 -9.27793984648465  5.76228237633763 -0.80915114331433
 1 -8.94863607950795  8.10909164806481  0.49233885568557
 1 -7.92436190199020  7.16204260376038  1.89670805630563
 1 -12.04532863796380  2.97438776477648 -2.32222522722272
 1 -13.23841351055105  1.95872976417642 -1.64623581508151
 1 -12.44227595869587  3.05484413911391 -0.57437868186819
 1 -12.50790556895690 -1.63656310141014 -1.45241019591959
 1 -13.46129484838484 -0.19537627442744 -1.54433996149615
 1 -13.22879923252325 -1.45924061026103 -3.88527841234123
 1 -12.34688825302530 -0.03975851345134 -3.91095459115912
 1 -11.39111539083908 -1.50569543664366 -3.73102172217222
 1 -8.99191879487949 -4.96610735363536 -1.82358562266227
 1 -7.96362572737274 -5.72353235743574 -0.75296490949095
 1 -9.58222810771077 -5.02441746304630 -0.17340916351635
 1 -3.45148584448445 -3.60582383308331 -0.22338761026103
 1 -0.98854702120212 -4.50114655435543  3.19547246254625
 1 -2.55424503310331 -5.33272489008901  3.79535237413741
 1 -1.39162727422742 -5.93861313451345  2.47911186408641
 1  2.58381768586859 -1.75043687958796 -1.51890585558556
 1  2.61675915351535 -0.13882960336034 -2.04479763196320
 1  4.28232913851385 -0.80258247344734  0.55566878287829
 1  4.13504246774677  1.30416912731273 -2.66648501820182
 1  5.73890930263026  2.16647690659066 -2.17965443364336
 1  5.89190649824983  0.64958606610661 -2.74099283028303
 1  6.65159722262226  1.52617661766177  0.25672831563156
 1  6.27741186058606 -0.07146518391839  0.91459117581758
 1  7.28392577727773 -1.06583581878188 -1.43448477207721
 1  7.96777921382138  0.68005121322132 -1.61755467906791
 1  9.27365941754175  0.83934181918192  0.32323995619562
 1  8.84267275597560 -0.56576208240824  0.99224708840884
 1  10.27622517391739  0.18043058075808 -1.59240412991299
 1  9.19419440494049 -2.03027100360036 -1.82324824962496
 1  11.07505006070607 -2.04243102700270 -1.95223946784678
 1  10.25852873887389 -2.80173211521152 -0.40007944764476
 1  11.23013069396940  0.66112834303430  0.48732021952195
 1  11.65599865326533 -0.77697365866587  0.75218584018402
 1  12.96964028292829 -1.32829099029903 -0.92703037063706
 1  12.61297505000500  0.28418910991099 -1.46746010731073
 1  13.97631906860686  1.05623817981798  0.62190953395340
 1  14.15526827992799 -0.50498010271027  1.29706622312231
 1  15.33080636913691  0.26259574457446 -1.24525888388839
 1  15.77589503240324 -2.48045833793379 -0.04161561546155
 1  14.71537458815882 -2.08453082868287 -1.26373378847885
 1  16.51059068846885 -1.71675720062006 -1.41340280978098
 1  16.08094329502950  1.46665449914992  0.54479102340234
 1  16.34664911211121  0.05363618851885  1.38965172637264
 1  18.25262620132013 -0.55920246764676 -0.43508684908491
 1  17.83975103960396  1.03561087998800 -1.20310388618862
 1  18.36465725832583  2.22747690539054  0.84211221652165
 1  18.78950611091109  0.74608878987899  1.68481848214821
 1  20.47989290199020  0.06204235243524  0.21081814581458
 1  20.08499260586058  2.74261782368237 -1.36029962336234
 1  21.52738699079908  1.73113976677668 -1.47505886918692
 1  19.86707061146115  1.14372618341834 -2.01974894389439
 1  21.13824980018002  1.55876398549855  2.13511312851285
 1  22.31753345964596  1.68463969366937  0.88962392869287
 1  20.85790552045205  2.92698278157816  1.29844028452845

