%nproc=4
%Mem=3GB
# td=(NStates=1) iop(3/107=0140000000,3/108=0140000000) CAM-B3LYP/6-31G(d,p) 

TD

0 1
12 -7.11676636833683  0.58663704720472  0.06434280428043
 6 -4.84882369886989 -1.93633086368637  0.52544794719472
 6 -4.82057808840884  2.85597431533153  1.09039914511451
 6 -9.50898766326633  3.11701925492549 -0.32056453175318
 6 -9.52783888188819 -1.72696446214621 -1.00738754365437
 7 -5.13346037723772  0.52793888448845  0.56584440844084
 6 -4.43481572887289 -0.61346248944894  0.83494138883888
 6 -2.97061328192819 -0.32417081508151  1.22548821792179
 6 -2.97996122302230  1.15169387098710  1.69287556685669
 6 -4.33397363206321  1.56229088018802  1.02380677457746
 6 -2.92961914271427  1.28178099739974  3.24868018261826
 6 -1.87184291399140 -0.55552154135414  0.07810162046205
 6 -0.40542625182518 -0.28396164416442  0.59971335363536
 6  0.54658658185819 -0.62498912081208 -0.49842963306331
 8  0.19809002580258 -1.13725750345034 -1.58323571667167
 8  1.80555915431543 -0.38129806820682 -0.11420680828083
 7 -7.13859150255026  2.67967117701770  0.29171009510951
 6 -6.08739888368837  3.43204697209721  0.75430130623062
 6 -6.41088599699970  4.80257712131213  0.72312057075708
 6 -7.73108789408941  4.90017182238224  0.30335646204620
 6 -8.20353988148815  3.57149408820882  0.03097109570957
 6 -5.49728176207621  5.88602807650765  1.22174232943294
 6 -8.59886989498950  6.10873114271427  0.21611222372237
 6 -8.45953436343634  7.28779792949295  0.73984804410441
 7 -9.11481052215222  0.66801379577958 -0.51358793269327
 6 -9.90205769206921  1.82178550285028 -0.51027384088409
 6 -11.29810376307631  1.42796224072407 -1.01093595329533
 6 -11.29818930613061  0.04593213901390 -1.32094212251225
 6 -9.94839244284428 -0.37098729212921 -0.87680988228823
 6 -12.38446938463846  2.43738898029803 -1.15246469916992
 6 -12.41631542444244 -0.85784190799080 -1.72491182178218
 6 -12.26706861576158 -1.16035622792279 -3.18298895009501
 7 -7.25344830723072 -1.30092492819282 -0.12412508760876
 6 -8.30099442574257 -2.20052859835984 -0.64651623152315
 6 -7.81820386018602 -3.60589114051405 -0.59415971577158
 6 -6.49459725022502 -3.65776875897590 -0.11994407610761
 6 -6.26981071277128 -2.24540249604960 -0.00396856145615
 6 -8.56108844834483 -4.90907700610061 -0.97493087618762
 6 -5.30399586248625 -4.36156972037204  0.20167514161416
 8 -5.13468446074607 -5.62195905290529  0.18770471907191
 6 -4.15783028562856 -3.33511095849585  0.57219554115412
 6 -3.56970114691469 -3.68217616031603  1.81197716621662
 8 -3.63430621402140 -3.15184254215422  2.90172353055305
 8 -2.79447480028003 -4.74758337683768  1.79888892639264
 6 -2.29411836883688 -5.23747895379538  3.00607800820082
 6  2.84768108850885 -0.65827411631163 -1.18292180938094
 6  4.16033691889189 -0.44219948784878 -0.52751531433143
 6  5.16077156845685  0.34973150115012 -1.04284716171617
 6  5.10790451605160  1.06973464876488 -2.33940807580758
 6  6.44283056175618  0.43968458445845 -0.22578310271027
 6  7.65373682628263 -0.21443999199920 -0.94171450015002
 6  8.95581329292929 -0.02768458455846 -0.14605070747075
 6  10.28848430903090 -0.54147581078108 -0.87383310331033
 6  10.10192346894689 -2.00054793469347 -1.33646061206121
 6  11.50756542034203 -0.50715560666067 -0.08426638913891
 6  12.90775851135114 -0.54318435193519 -0.75988349344934
 6  13.91393266506651 -0.14987070137014  0.21409782138214
 6  15.35998198919892 -0.30644972857286 -0.57011266376638
 6  15.76043231423142 -1.66307469576958 -0.97936976327633
 6  16.45707269997000  0.21526804410441  0.49185392009201
 6  17.82676026372637  0.46167989758976 -0.14348087508751
 6  18.80770118871887  1.24784286278628  0.75188844554455
 6  20.22277508190819  1.44878431093109  0.15808251425143
 6  20.29848269406941  2.35751305640564 -1.02370706660666
 6  21.08888395539554  1.80534223412341  1.42025596559656
 1 -4.26525688918892  3.65017826922692  1.33629972577258
 1 -10.26586871017102  3.82703497799780 -0.56486101230123
 1 -10.20084450855085 -2.27279281438144 -1.52213003240324
 1 -2.45706299349935 -0.94621482418242  2.14885137583758
 1 -2.28486195249525  1.75420748184818  1.32824647364736
 1 -1.94026711311131  0.83566267266727  3.66561689908991
 1 -2.97853496259626  2.46720594339434  3.45794381658166
 1 -3.83865666616662  0.71110626492649  3.59775146034603
 1 -1.90067518651865 -1.64817548834883 -0.18293630073007
 1 -1.95560192919292 -0.15514789498950 -0.92480921552155
 1 -0.44508993769377  0.81487107440744  0.71152501550155
 1 -0.07287570787079 -0.69953071967197  1.63732719101910
 1 -5.79435361306131  6.90638815081508  0.80661049234923
 1 -5.25960743204320  5.90921380278028  2.31441345384538
 1 -4.50105495009501  5.52526679467947  0.92569330193019
 1 -9.45844610441044  5.81844522652265 -0.38270962366237
 1 -9.33018208190819  8.04016373737374  0.42774254995500
 1 -7.54523245534553  7.64835167156716  1.40617957825783
 1 -12.11151162416242  3.26722586968697 -1.84256008750875
 1 -13.45493279097910  2.03877261966197 -1.49357508570857
 1 -12.66652768546855  2.88122545664566 -0.15848628812881
 1 -12.49913187808781 -1.79672059485949 -1.07772127302730
 1 -13.40163246234624 -0.31704441494149 -1.61147690209021
 1 -13.22936813601360 -1.59199286138614 -3.48218917701770
 1 -12.04834524022402 -0.21895036633663 -3.66561553995400
 1 -11.35535037443744 -1.62969399659966 -3.16647492569257
 1 -8.89302392099210 -4.87750425122512 -1.96064212721272
 1 -7.81760614581458 -5.75721167446745 -0.55366532163216
 1 -9.52542672167217 -4.87453590199020 -0.55439770847085
 1 -3.41774929342934 -3.42042864846485 -0.18723646174617
 1 -1.60865425302530 -4.45248746214622  3.62338405600560
 1 -3.08963540084008 -5.72506203110311  3.70184122182218
 1 -1.57181770227023 -6.03263404820482  2.71312467356736
 1  2.81702975777578 -1.66162278507851 -1.48234968366837
 1  2.80490693199320 -0.06829874507451 -2.03433449094910
 1  4.16710719741974 -0.92975138893889  0.28869026922692
 1  4.08909422092209  1.13231877457746 -2.46508699439944
 1  5.58253518571857  2.13686411031103 -2.29083652205220
 1  5.48733830233023  0.46320751165117 -3.48895515241524
 1  6.47258544244424  1.28094807540754  0.19472908680868
 1  6.24588246034603 -0.11754909160916  0.68386458195820
 1  7.44552667546755 -1.35340601360136 -1.11865662286229
 1  7.94158671717172  0.29635873887389 -1.83844466736674
 1  9.31213725802580  1.06125562306231  0.23499592769277
 1  8.73112623342334 -0.36779513221322  0.97140326372637
 1  10.43495812761276  0.20371651945195 -1.75946110411041
 1  9.04380398949895 -2.13752203570357 -1.81145952785279
 1  10.83153229382938 -2.24511791109111 -1.91138649674968
 1  10.32007420452045 -2.57330144484448 -0.51642903660366
 1  11.46593823542354  0.43650008340834  0.53132090289029
 1  11.59616721222122 -1.19182047964796  0.63323964406441
 1  13.15094304680468 -1.62617003630363 -1.24964723622362
 1  12.88819464936494  0.05916085208521 -1.64768910261026
 1  13.77654907520752  0.89404476777678  0.55022985168517
 1  13.80967927852785 -0.75804218311831  1.11425379937994
 1  15.39725012641264  0.30754415141514 -1.53918518731873
 1  15.68196199299930 -2.34184352555256 -0.15119325482548
 1  15.15265691009101 -2.03665818581858 -1.85644701820182
 1  16.84718299789979 -1.64368526552655 -1.16938345164516
 1  16.07522079557956  1.08651698539854  1.00528644494449
 1  16.70197427522752 -0.36842312711271  1.37300579527953
 1  18.37985472317232 -0.48357487148715 -0.03954415001500
 1  17.37681499109911  1.10469936403640 -1.06827257085709
 1  18.47283634053405  2.38313958195820  1.13958590539054
 1  18.90467643014302  0.66051089058906  1.64849809530953
 1  20.39213904620462  0.43202420002000 -0.08656276407641
 1  19.93665048354836  3.38271904840484 -0.68662084678468
 1  21.42701650245025  2.43037417951795 -1.58505648684868
 1  19.48331672927293  1.89196948714871 -1.84482286668667
 1  20.98396224972497  0.59245488638864  2.04603827262726
 1  22.12081997479748  2.07681815251525  0.99110576417642
 1  20.59482956145615  2.83764988218822  1.94161129782978

