%nproc=4
%Mem=3GB
# td=(NStates=1) iop(3/107=0140000000,3/108=0140000000) CAM-B3LYP/6-31G(d,p) 

TD

0 1
12 -7.13506819851985  0.55353373687369  0.21277764776478
 6 -4.85461427792779 -1.97700493109311  0.52469787218722
 6 -4.79307533813381  2.90691940984098  1.22850295549555
 6 -9.32743950845085  3.04139169216922 -0.42580505580558
 6 -9.60190628862886 -1.63472523822382 -0.82022882778278
 7 -5.15173220442044  0.34247033763376  0.80133795779578
 6 -4.36421866916692 -0.71957310051005  0.86704459915992
 6 -2.87545376597660 -0.40603900190019  1.26450211931193
 6 -2.98784201110111  1.05712441404140  1.71558783808381
 6 -4.39758999369937  1.49163381448145  1.10564495839584
 6 -2.98727490829083  1.13109592889289  3.27401271587159
 6 -1.97609333903390 -0.69601559075908 -0.00004619431943
 6 -0.47992370157016 -0.40250349834983  0.40373375567557
 6  0.43822574577458 -0.53117973987399 -0.77420721082108
 8  0.05061527832783 -0.95824960266027 -1.91452884598460
 8  1.74063266166617 -0.23673361176118 -0.42996838443844
 7 -7.02378002140214  2.58555176507651  0.34931585568557
 6 -5.99522966676668  3.39815358275828  0.81426730283028
 6 -6.29218412681268  4.80438730233023  0.77015527422742
 6 -7.63671845714571  4.88531033623362  0.27756388278828
 6 -8.10597012451245  3.51014795359536 -0.00319232063206
 6 -5.48336036993699  5.83042251595160  1.24318447364736
 6 -8.47700770877088  6.10013028262826  0.16961757425743
 6 -8.29154756475648  7.26802595229523  0.72562662196220
 7 -9.10080912201220  0.69536653105311 -0.44081065496550
 6 -9.82756024232423  1.76051937623762 -0.64268708220822
 6 -11.18547249995000  1.48208765326533 -1.18092295199520
 6 -11.22549203640364  0.12654019981998 -1.27655768406841
 6 -9.86178378197820 -0.35328552195220 -0.72945514681468
 6 -12.16809774747475  2.51765700710071 -1.36885633833383
 6 -12.32505629852985 -0.72719884368437 -1.69292862346235
 6 -12.23620552945295 -1.17636782908291 -3.14434508570857
 7 -7.20967392979298 -1.40920575627563 -0.18492116721672
 6 -8.25120944724473 -2.21539008450845 -0.55670725062506
 6 -7.88109014881488 -3.62992354375438 -0.48949924972497
 6 -6.49075686618662 -3.56197918001800 -0.10542262396240
 6 -6.13888762046205 -2.19249720552055  0.15336717211721
 6 -8.72206454595459 -4.86213231163116 -0.72527591069107
 6 -5.37854331723172 -4.47688125152515  0.09108408250825
 8 -5.16550754305431 -5.64647150415042  0.11230717931793
 6 -4.17910241284128 -3.36004345174517  0.61090941254125
 6 -3.55283946074607 -3.72306024872487  1.89732570107011
 8 -3.90746352975298 -3.16325368326833  2.97002036023602
 8 -2.78625397819782 -4.71210982948295  1.80847988548855
 6 -2.16329528652865 -5.20047525342534  3.01117851825183
 6  2.78875519591959 -0.49910819971997 -1.49904342154215
 6  4.10911179637964 -0.33910917881788 -0.82188475127513
 6  5.14788027932793  0.41890841884188 -1.06225910291029
 6  5.16494021962196  1.38677635293529 -2.42787692269227
 6  6.40744702340234  0.30576119211921 -0.24429495389539
 6  7.65844729732973 -0.12823137113711 -1.02725305400540
 6  8.89684739633963 -0.15420723682368 -0.22348845124512
 6  10.15170063066307 -0.61285294849485 -0.87137285728573
 6  10.05093837043704 -2.12714059395940 -1.21359832583258
 6  11.36346100990099 -0.21516640774077 -0.03368133063306
 6  12.75548328382838 -0.66720675417542 -0.61485899099910
 6  14.00908218001800 -0.07823353765377  0.19233564516452
 6  15.30685667666767 -0.39602868646865 -0.51277693019302
 6  15.65941221222122 -1.86622501080108 -0.77679950625062
 6  16.37170416311631  0.38903542084208  0.41074580928093
 6  17.85372295999600  0.49609333893389 -0.17107363436344
 6  18.73728414701470  1.33048112661266  0.78597185388539
 6  20.18003080748075  1.44692412491249  0.31388809480948
 6  20.54201704750475  2.23137044214421 -0.96864156005601
 6  20.98374344134414  1.94330603050305  1.45422936293629
 1 -4.09221958545855  3.55957920932093  1.67296339213921
 1 -9.94431655495550  3.97301957645765 -0.91102562876288
 1 -10.52469689378938 -2.36793232833283 -0.71369918931893
 1 -2.71407869506951 -1.15969617231723  2.05466195689569
 1 -2.14381784808481  1.59927198829883  1.39511316031603
 1 -1.92353543994399  1.05334444084408  3.59893023042304
 1 -3.42945005410541  1.93990321312131  3.89332735493549
 1 -3.59894269476948  0.29485463976398  3.61587327252725
 1 -2.02800791979198 -1.69831050185018 -0.39313732083208
 1 -2.19731610061006 -0.07313969416942 -0.80727746234623
 1 -0.45047047574757  0.59404899219922  0.81096495949595
 1 -0.27306572687269 -1.03714448104810  1.22427588588859
 1 -5.74043822152215  6.72324983698370  0.56287611891189
 1 -5.85087655895590  6.24839772117212  2.26270828332833
 1 -4.37307215181518  5.49402367036704  1.34997573017302
 1 -9.31743200300030  6.04720810281028 -0.40152150485049
 1 -8.90823988768877  8.01078079907991  0.63612338803880
 1 -7.84977290939094  7.54467130353035  1.85081404170417
 1 -11.74059453245324  3.20667981508151 -2.27984381588159
 1 -13.23230052775278  2.09564830723072 -1.76343207140714
 1 -12.30127115981598  3.23061039513951 -0.46050649014901
 1 -12.41030299519952 -1.60332125492549 -1.20189369026903
 1 -13.49320161926193 -0.41990470097010 -1.55709146354635
 1 -13.26497169636964 -1.61247490959096 -3.33915487358736
 1 -12.28184859055906 -0.25068353965397 -3.73729270767077
 1 -11.46088092749275 -1.91028205540554 -3.21932021022102
 1 -8.73641826042604 -5.04351085188519 -1.93766982998300
 1 -8.20316470167017 -5.76292224552455 -0.14872482758276
 1 -9.59039321832183 -4.90225867426743 -0.18546081478148
 1 -3.30957847634763 -3.57360396599660  0.00681294319432
 1 -1.78993238083808 -4.38753096649665  3.73188490609061
 1 -2.97153359065907 -5.58971849674967  3.72052309000900
 1 -1.27043756425643 -5.88220900570057  2.72562592369237
 1  2.86828488328833 -1.54324094689469 -1.95265671437144
 1  2.59646608790879  0.17767585238524 -2.23070412791279
 1  4.38228871557156 -1.05090350415042  0.00660206040604
 1  4.10460577207721  1.28959450215022 -2.96071655735574
 1  5.62465939813981  2.33643406730673 -2.14611204960496
 1  5.91716128462846  1.04703589448945 -2.98564482138214
 1  6.61387957185719  1.29535951655166  0.03137275117512
 1  6.30982885498550 -0.50968830553055  0.44363055855586
 1  7.60530265306531 -1.19027970097010 -1.30599535673567
 1  7.93661622012201  0.47915701870187 -1.89903072597260
 1  9.14282032633263  0.93173267076708  0.13098552665267
 1  8.88066118691869 -0.73955230793079  0.77359348274828
 1  10.13357798959896 -0.08257210941094 -1.86367152515252
 1  9.19359896899690 -2.23302158565857 -1.83752213411341
 1  10.92173131373137 -2.43952735203520 -1.87546290439044
 1  10.13500569766977 -2.78728284298430 -0.38242563626363
 1  11.20720236183618  0.65449188258826  0.39838760956096
 1  11.48987658315832 -0.78713001060106  0.93474979507951
 1  12.80681863436344 -1.70870829012901 -0.56616888838884
 1  12.81143697359736 -0.29791485548555 -1.68553288698870
 1  14.00812223252325  0.92984834813481  0.29409423812381
 1  14.27529584018402 -0.54785116401640  1.24109648364836
 1  15.27776817821782  0.20406380338034 -1.44050531933193
 1  15.60417421422142 -2.40679002020202  0.28374023852385
 1  15.12544418881888 -2.33352787278728 -1.67394876837684
 1  16.81660994059406 -1.98117901490149 -0.96862337563756
 1  16.14476775027503  1.34490282398240  0.71420733703370
 1  16.43436751455145 -0.18780506530653  1.24683317801780
 1  18.39865660336034 -0.38185469946995 -0.31293148874887
 1  17.80253756335633  1.00662955705571 -1.27187293089309
 1  18.46508556545654  2.53472474047405  0.76642858965897
 1  18.73282924542454  0.92472731223122  1.99469271477148
 1  20.57241707400740  0.43530452805281  0.24127001920192
 1  20.21494831333133  3.33264404090409 -0.87151933663366
 1  21.54707850865087  2.44627576967697 -1.09444742594259
 1  19.97609600720072  1.72502279247925 -1.78866725112511
 1  20.84489834333433  1.51918755965597  2.47997166596660
 1  22.02161005380538  1.92579305000500  1.26486313991399
 1  20.62049212771277  3.14683080028003  1.64704184088409

