%nproc=4
%Mem=2GB
# td=(NStates=1) CAM-B3LYP/6-31G(d,p) 

TD

0 1
12 -7.13982455545555  0.54205295339534  0.03730141754175
 6 -4.88663328132813 -1.97811899029903  0.50690722342234
 6 -4.77526745564557  2.77567601490149  1.09143550845084
 6 -9.43523825932593  3.12019751525153 -0.37282014171417
 6 -9.52356266996700 -1.69384489548955 -0.92347877697770
 7 -5.17824124872487  0.37963778187819  0.67234765306531
 6 -4.29767947404741 -0.76298612061206  0.72949097229723
 6 -2.87420642604260 -0.39783920962096  1.19320967516752
 6 -3.06499993839384  1.06413908220822  1.77266799749975
 6 -4.46793378827883  1.41544229302930  1.14998202810281
 6 -3.00216529862986  1.24707699579958  3.23748515741574
 6 -1.85382884388439 -0.63913917531753 -0.03869991169117
 6 -0.42766018861886 -0.51363571077108  0.52171630093009
 6  0.53733487068707 -0.78294180708071 -0.56939231973197
 8  0.29935117521752 -1.35070047764776 -1.63595992769277
 8  1.81128293879388 -0.38787618401840 -0.21776856575658
 7 -7.13470391829183  2.58577416721672  0.38071676717672
 6 -5.98353763276328  3.32589356515652  0.79430296389639
 6 -6.36478373147315  4.70914520392039  0.76270695789579
 6 -7.61004371137114  4.88878951045105  0.34958334963496
 6 -8.20462473407341  3.47296649194920 -0.00233768746875
 6 -5.46776473317332  5.93075554145415  1.18467322782278
 6 -8.44040183778378  6.05260629432943  0.09876686208621
 6 -8.52166605790579  7.25423154175418  0.71187743754375
 7 -9.12419469206921  0.68071093219322 -0.46735076877688
 6 -9.89430569026903  1.83167312041204 -0.76801312541254
 6 -11.18618771537154  1.50880922002200 -1.12026374587459
 6 -11.23120552445245  0.16173153725373 -1.23488220222022
 6 -9.97058273897390 -0.36545852015202 -0.79239425552555
 6 -12.22934175787579  2.50196076707671 -1.37665444024402
 6 -12.45603014931493 -0.73589099919992 -1.70206101460146
 6 -12.37402489088909 -1.01940435163516 -3.24979009760976
 7 -7.20283975227523 -1.42407202080208 -0.28811348834883
 6 -8.28707894769477 -2.25798097019702 -0.68466342154215
 6 -7.91620776637664 -3.69841810931093 -0.48089536683668
 6 -6.63777766186619 -3.56566090309031 -0.09021075297530
 6 -6.15534813121312 -2.29008729002900  0.09975277947795
 6 -8.75067253465346 -4.82230507290729 -0.80701918031803
 6 -5.40449491979198 -4.44194807830783  0.23698657125713
 8 -5.24249308720872 -5.63493797719772  0.19980701140114
 6 -4.18429200860086 -3.35939172897290  0.58194806010601
 6 -3.64684531543154 -3.77008222952295  1.92292266516652
 8 -3.83049465006501 -3.11450818701870  2.96260894199420
 8 -2.82141333503350 -4.76896161856186  1.86451503240324
 6 -2.20256084398440 -5.05376960606061  3.13444838033803
 6  2.78262077377738 -0.43006080068007 -1.25891709210921
 6  4.05066715571557 -0.37615579187919 -0.53812396139614
 6  5.08367185158516  0.42523878927893 -0.94152392509251
 6  5.09957838083808  1.41074372367237 -2.06551071637164
 6  6.49699403220322  0.46700855105511 -0.21857834303430
 6  7.70265780368037 -0.08836918381838 -1.03595054555456
 6  8.98072994559456 -0.05838096849685 -0.27024883768377
 6  10.23374399889989 -0.43827089878988 -0.94686565706571
 6  10.17881458165817 -2.00650158625863 -1.37103056805681
 6  11.46645952285229 -0.30443422422242 -0.10248938033803
 6  12.82400730843084 -0.53154720582058 -0.65347537043704
 6  13.99861933033303 -0.12717392019202  0.29500656815682
 6  15.36412253715372 -0.13577730683068 -0.49359759955996
 6  15.74535620452045 -1.71011864566457 -0.75146476417642
 6  16.48888299419942  0.36635099509951  0.45475998319832
 6  17.90578516791679  0.56939833823382 -0.14279009360936
 6  18.82782315181518  1.20481869886989  0.74359479247925
 6  20.28325699489949  1.42319265276528  0.22644740794079
 6  20.30868222202220  2.16440473767377 -1.11172216491649
 6  21.26959789058906  1.94577751405141  1.19529489288929
 1 -3.83362484698470  3.24713023442344  1.36600118701870
 1 -10.07444783748375  3.79669050405040 -0.43736912841284
 1 -10.52731602100210 -2.39992933373337 -1.23704035623562
 1 -2.71227768466847 -1.03650196409641  2.00578126932693
 1 -2.42534613981398  1.73500708330833  1.20069071947195
 1 -2.02481693919392  0.77255770867087  3.56724043754375
 1 -2.86121118111811  2.30740479797980  3.77855002040204
 1 -3.85953939663966  0.78339302330233  3.67796020882088
 1 -2.06433891879188 -1.47367732813281 -0.53965787498750
 1 -1.68561023352335  0.03771102150215 -0.87321736133613
 1 -0.01116463386339  0.25765037893789  1.07286768586859
 1 -0.37632543454345 -1.35584009920992  1.18949290449045
 1 -5.98554733013301  6.75582422652265  0.82956866606661
 1 -5.17900488988899  5.88387175027503  2.35428172527253
 1 -4.50674463046305  5.75378654505451  0.61318449404941
 1 -9.33110516301630  5.91395754385438 -0.69820004820482
 1 -9.28537975387539  8.07951869076908  0.60005962776278
 1 -7.69603906970697  7.54837123662366  1.41866025152515
 1 -12.10412451755176  3.13069339533953 -2.20190319501950
 1 -13.41812148134813  2.16503039423942 -1.41490268176818
 1 -12.37550928202820  3.22161081578158 -0.41090233423342
 1 -12.54953973237324 -1.50253969906991 -0.96393134803480
 1 -13.48693741264126 -0.21716845364537 -1.56074160166017
 1 -13.52111846444645 -1.46980166636664 -3.54274415891589
 1 -12.31802536673667 -0.05870040764076 -3.80874437013701
 1 -11.77656393569357 -2.10092495959596 -3.42249086908691
 1 -9.50424002700270 -4.75688643154315 -1.75988925302530
 1 -8.04941430623062 -5.81944194839484 -1.04769438243824
 1 -9.31690157505751 -5.21830685198520  0.33923210061006
 1 -3.43775447134713 -3.58430168086809 -0.20359563106311
 1 -1.47151531803180 -4.33510995069507  3.38761167646765
 1 -2.94085369396940 -5.11015263286329  3.95137797669767
 1 -1.81118923042304 -6.09639891309131  2.85331928482848
 1  2.65553485758576 -1.49300113601360 -1.62142610761076
 1  2.63693117071707  0.24968924852485 -2.27593074527453
 1  4.13488439403940 -1.02263447864786  0.24857807380738
 1  4.12345130863086  1.66701541194119 -2.52090045974597
 1  5.40910632233223  2.40436069496950 -1.77733420162016
 1  5.88166547414741  1.03804491199120 -2.89205793679368
 1  6.63631569446945  1.56476047604760  0.04090673347335
 1  6.31887600700070  0.02129409200920  0.60404012071207
 1  7.35372275697570 -1.08395763096310 -1.37194851845184
 1  7.94533696959696  0.10836404450445 -2.15525844944494
 1  9.26278833043304  0.84313219821982  0.05714334653465
 1  8.70590907960796 -0.76066157235724  0.60985884958496
 1  10.33847139853985  0.08868140584058 -1.85111000050005
 1  9.50388537403740 -2.05676365286529 -1.93117904270427
 1  11.01240379607961 -2.39614639853985 -2.04597884178418
 1  10.02816570257026 -2.51012295429543 -0.45412485218522
 1  11.41351903280328  0.90881311151115  0.32320380788079
 1  11.28594164756476 -1.06305226652665  0.77743836543654
 1  13.20865418431843 -1.66382454365437 -1.03154082168217
 1  12.88599235173517  0.12901359235924 -1.65598896019602
 1  13.67781921862186  1.13937649364937  0.42415975897590
 1  14.08806155925593 -0.51370097479748  1.34482099859986
 1  15.28853214171417  0.59951943694369 -1.37071142914291
 1  15.71233867676768 -2.08294858695870  0.28010655675568
 1  15.04607765846585 -2.05486786238624 -1.52436985208521
 1  16.87579720912091 -1.73192871777178 -1.20409187868787
 1  16.23258845954595  1.40310814451445  0.97482402670267
 1  16.66945139233923 -0.26501567666767  1.25988875007501
 1  18.41915285398540 -0.28555510291029 -0.45411875227523
 1  17.70996806130613  1.02953027192719 -1.07378095389539
 1  18.33218401100110  2.20034419211921  1.14263226852685
 1  18.84416157645765  0.54625880688069  1.58242824312431
 1  20.50182509520952  0.22453860206021  0.00974803880388
 1  19.86833093969397  3.15857941984198 -0.92565615901590
 1  21.35007926002600  2.10362701550155 -1.43530489378938
 1  19.71307521192119  1.59322113291329 -1.83373034203420
 1  21.13957993319332  1.57391550065006  2.22615223242324
 1  22.40298200450045  1.90518174787479  0.97480244654465
 1  20.85421515141514  2.97466755005501  1.30970141064106

