%nproc=4
%Mem=2GB
# td=(NStates=1) CAM-B3LYP/6-31G(d,p) 

TD

0 1
12 -7.13568414141414  0.58214696279628 -0.02342465506551
 6 -4.77583220122012 -1.94509568796880  0.51450798349835
 6 -4.86578650755076  2.89619806710671  1.12242860776078
 6 -9.36034076957696  3.13932942844284 -0.29368222792279
 6 -9.50422073577358 -1.75921143214321 -0.98866529562956
 7 -5.11317474207421  0.44400421852185  0.66097651595160
 6 -4.29240894699470 -0.65394521652165  0.77538556175618
 6 -2.96213521892189 -0.32286171187119  1.26042639683968
 6 -3.10434387278728  1.17191986028603  1.65156588728873
 6 -4.44407140204020  1.57849859865987  1.15559258915892
 6 -2.80668575067507  1.33138542664266  3.14080548944894
 6 -1.88404186518652 -0.58700396179618  0.04953891219122
 6 -0.52567999059906 -0.49310365756576  0.62050617991799
 6  0.58740987818782 -0.74815832873287 -0.57748312881288
 8  0.20603184328433 -1.09041444904490 -1.65523185488549
 8  1.78147995849585 -0.36443383978398 -0.28020480938094
 7 -7.06976742464246  2.70759634943494  0.26403509900990
 6 -5.98899817881788  3.42462343814381  0.68802233583358
 6 -6.45547280038004  4.80913520292029  0.77636832403240
 6 -7.82789549654965  4.80408103960396  0.34371276257626
 6 -8.16864113571357  3.45916511181118  0.00517306360636
 6 -5.59482743944394  5.94208667456746  1.20626538703870
 6 -8.62028982658266  6.05875690939094  0.18305529092909
 6 -8.58590248154816  7.17942406100610  0.95263151295130
 7 -9.15190746334634  0.65668852995300 -0.49338337203720
 6 -9.87498375807581  1.78236818991899 -0.65869219331933
 6 -11.19235833243324  1.38881722082208 -1.19330104960496
 6 -11.23161556545655  0.09056442054205 -1.28845755975598
 6 -9.91176685738574 -0.45976795109511 -0.93648866496650
 6 -12.28056688038804  2.45042561356136 -1.35405218001800
 6 -12.36118066436644 -0.81717912801280 -1.74497530603060
 6 -12.30977846624662 -1.16367877907791 -3.23765888448845
 7 -7.18663813211321 -1.37846746034603 -0.21417609460946
 6 -8.24152439223922 -2.21832700480048 -0.54200915611561
 6 -7.81947809340934 -3.59949821732173 -0.46135341264126
 6 -6.49601348544855 -3.53895823282328  0.03978224632463
 6 -6.19450204660466 -2.22289057035704  0.12419522372237
 6 -8.57593506090609 -4.84736757915792 -0.72551102950295
 6 -5.19581405170517 -4.28237212071207  0.14531740434043
 8 -5.14427326522652 -5.50383486688669  0.14808183888389
 6 -4.13022660206021 -3.21729751955196  0.54204406970697
 6 -3.62689332023202 -3.67040226152615  1.93157353025303
 8 -3.75269687028703 -3.10825756195620  2.96725940704070
 8 -2.79399059275928 -4.68664338673867  1.69430801170117
 6 -2.16121670957096 -5.24125835493549  2.88011294679468
 6  2.80435294699470 -0.80886868146815 -1.22957415781578
 6  4.15111720072007 -0.59489766606661 -0.64494464346435
 6  5.06198968336834  0.26772303770377 -0.95726549924992
 6  5.00496891989199  1.23686633593359 -2.15593975927593
 6  6.38463279607961  0.30224207440744 -0.14029051425143
 6  7.63599113701370 -0.21195154205421 -0.99256620712071
 6  8.87420929352935 -0.21451658205821 -0.03624543734373
 6  10.09531015551555 -0.55133220492049 -0.86355732623262
 6  10.12928962916292 -2.00795173127313 -1.23386685168517
 6  11.42498537543754 -0.13864764556456 -0.05886501790179
 6  12.78966387408741 -0.48179223032303 -0.66479650255026
 6  13.98273774217422 -0.08222942574257  0.27137420492049
 6  15.31976810171017 -0.23623735283528 -0.49087732753275
 6  15.71339300820082 -1.65335296909691 -0.83603322102210
 6  16.41915602150215  0.41016537653765  0.49798430563056
 6  17.79816440584058  0.47146854525453 -0.13171898649865
 6  18.84692506200620  1.27590580758076  0.74552498549855
 6  20.25310397959796  1.41085141864186  0.16864162736274
 6  20.31309266306631  2.09586788398840 -1.23286427912791
 6  21.25194612541254  1.93068600490049  1.20344570797080
 1 -4.15677716221622  3.61006652805281  1.64068865576558
 1 -10.00134052675267  3.92748358335834 -0.18915430693069
 1 -10.09965325472547 -2.48413775457546 -1.43296994919492
 1 -2.68215467236724 -1.06796511041104  2.09043973517352
 1 -2.23186679187919  1.76234981758176  1.25900655105510
 1 -1.76909136663666  1.25314576747675  3.28069178267827
 1 -3.26271133113311  2.39424348184819  3.49876204160416
 1 -3.28262170487049  0.56603128712871  3.61789420222022
 1 -1.84945743064306 -1.56253621402140 -0.24423833303330
 1 -2.00575224772477  0.12405965636564 -0.71679171877188
 1 -0.25905942334233  0.46367098099810  1.13516391549155
 1 -0.16952475447545 -1.15109962516252  1.34662861806181
 1 -5.90343911931193  6.89825846994700  0.68481419061906
 1 -5.47079406880688  6.04797816091609  2.23171946904691
 1 -4.58162211821182  5.77108827522752  1.06607978357836
 1 -9.23909596209621  6.02587873597360 -0.49475970417042
 1 -9.46257747364736  7.61110184908491  0.63582320412041
 1 -7.78199766556656  7.38676507600760  1.70835922142214
 1 -11.98465257035704  2.90918124412441 -2.33700670537054
 1 -13.17584725392539  1.89069296049605 -1.36235742724272
 1 -12.15671740284028  3.33578223292329 -0.58029927392739
 1 -12.43701848024802 -1.72193163826383 -0.99190414531453
 1 -13.41941065996600 -0.41680841764176 -1.54215974347435
 1 -13.15082143474347 -1.76558124432443 -3.47344722922292
 1 -12.53284684888489 -0.15508004560456 -3.76529002470247
 1 -11.41863814311431 -1.91185605270527 -3.45807442744274
 1 -9.17635723872387 -4.80639138203820 -1.70183344744474
 1 -7.93974333913391 -5.75030503470347 -0.72914252725273
 1 -9.25736562146215 -5.07818283958396  0.13082125952595
 1 -3.39768046394639 -3.62644589528953 -0.31275654715472
 1 -1.60907907440744 -4.32131857155716  3.25236815211521
 1 -2.93666327492749 -5.54526614421442  3.58012085098510
 1 -1.51434954645465 -6.04928420162016  2.42177613051305
 1  2.90876018011801 -1.91787362326233 -1.49832379737974
 1  2.68174565216522 -0.21865758615862 -2.15503865606561
 1  4.38966987258726 -0.99223143834383  0.34298751475148
 1  3.88085704920492  1.50202891329133 -2.38946731643164
 1  5.43743915561556  2.07078733763376 -1.87141360956096
 1  5.44919222682268  0.77486859435944 -3.28335706670667
 1  6.52694475737574  1.34326832683268  0.23476611941194
 1  6.23139725912591 -0.43660169756976  0.87466718341834
 1  7.40261764646465 -1.28997823302330 -1.35036636023602
 1  8.03252568846885  0.36369957805781 -1.81857478107811
 1  9.24867691929193  0.98576646164616  0.21963959615962
 1  8.77441593029303 -0.97167267346735  0.89118698239824
 1  10.24524207560756  0.11987452515252 -1.96360124962496
 1  9.34799978547855 -2.30781875837584 -1.90094601940194
 1  11.10994355005501 -2.39554633853385 -1.62675691959196
 1  10.27323020902090 -2.48862080408041 -0.17919735943594
 1  11.40256793769377  0.82708493869387  0.15852734023402
 1  11.34387744114411 -0.62607856915692  0.90963158475848
 1  12.79265258415842 -1.76750491169117 -1.00955862346235
 1  13.00523427592759  0.09178986998700 -1.53485684698470
 1  14.08248968566857  1.14372692869287  0.40847819081908
 1  14.04124687778778 -0.70822042674267  1.18632514901490
 1  15.60553384188419  0.29640912591259 -1.18989334733473
 1  16.11965940884089 -2.15621591369137  0.05705425152515
 1  14.88307135783578 -2.01351372697270 -1.41595901100110
 1  16.61249087848785 -1.76336186108611 -1.43018448794879
 1  16.02934813551355  1.48701653535354  0.66314285858586
 1  16.31355580278028 -0.08393756885689  1.55478824002400
 1  18.15781672037204 -0.61175772317232 -0.26982032243224
 1  17.72304936943695  1.00222754165417 -1.02718629442944
 1  18.60933172577258  2.39280343804380  0.95285329062906
 1  18.95656281658166  0.79214339533953  1.92577257755776
 1  20.62751766446645  0.37145329352935  0.02406947094710
 1  19.70996510311031  3.09769333123312 -1.16584017741774
 1  21.27781203330333  2.40896754955496 -1.49795115841584
 1  19.74348825322532  1.41951376217622 -1.87020398939894
 1  21.02141811701170  1.36353446254625  2.14996461366137
 1  22.34819652595259  2.04710594029403  0.78148311461146
 1  20.83446317621762  2.97986807010701  1.33281372187219

