%nproc=4
%Mem=2GB
# td=(NStates=1) CAM-B3LYP/6-31G(d,p) 

TD

0 1
12 -7.08682925592559  0.61319006710671  0.05222290969097
 6 -4.89784440244024 -1.94328550695070  0.56108264096410
 6 -4.78410833973397  2.83342178947895  1.23389975487549
 6 -9.33287802330233  3.11646714221422 -0.51970483018302
 6 -9.50362067576758 -1.67033254425443 -0.96246267536754
 7 -5.07356078067807  0.51667148524852  0.64720513881388
 6 -4.34396410251025 -0.63851367336734  0.70823884708471
 6 -2.93559256465647 -0.36622604830483  1.21177153135314
 6 -2.99974341274127  1.14141680998100  1.70283101380138
 6 -4.32533952885288  1.52433318211821  1.21717874777478
 6 -2.87276235833583  1.35403769186919  3.21439284818482
 6 -1.87685114611461 -0.64310957235724  0.08917287558756
 6 -0.46299372197220 -0.52218656585659  0.62802693199320
 6  0.50195133233323 -0.79377289018902 -0.53342872337234
 8  0.25121636173617 -1.09425483308331 -1.66415274697470
 8  1.78902071257126 -0.62298969536954 -0.09219600850085
 7 -7.03631407930793  2.65440102990299  0.27034573007301
 6 -6.04924420342034  3.39355033083308  0.76136967056706
 6 -6.42779003210321  4.78310259965997  0.85680636783678
 6 -7.73415612261226  4.90263089458946  0.38026641794179
 6 -8.05675994759476  3.46541573687369 -0.04260171387139
 6 -5.50662861956196  5.85025749164916  1.37974273477348
 6 -8.43348114571457  6.07917895159516  0.15354233963396
 6 -8.43899779107911  7.27350346894689  0.89508575837584
 7 -9.07354962756276  0.67598045914591 -0.60166420012001
 6 -9.83482974267427  1.77386733983398 -0.66596292039204
 6 -11.14067316391639  1.42760109920992 -1.32098381788179
 6 -11.24332673657366  0.15764112821282 -1.24862357635764
 6 -10.01806748744874 -0.38550052435243 -0.86231124722472
 6 -12.20641946564656  2.46480705170517 -1.62277905270527
 6 -12.48713325962596 -0.71667907800780 -1.67219802830283
 6 -12.42052954135414 -1.25175758695870 -3.15589070767077
 7 -7.26237570587059 -1.39107872147215 -0.13861853885389
 6 -8.26318655845585 -2.19408458055806 -0.55319027422742
 6 -7.84464060966097 -3.59357762526253 -0.58172544984498
 6 -6.56865074917492 -3.56188052505251 -0.20970270217022
 6 -6.24782737913791 -2.13533181448145  0.04569737393739
 6 -8.67808527592759 -4.81434427682768 -0.93135161356136
 6 -5.39709417971797 -4.31413529702970  0.09229210181018
 8 -5.22016085398540 -5.49921440484048  0.20523755445545
 6 -4.18391197059706 -3.32994878467847  0.61677154245425
 6 -3.73718434933493 -3.74362958425843  2.04716508940894
 8 -3.90003160376038 -3.12841957815782  3.12472515361536
 8 -2.83063425712571 -4.72061678407841  1.92990157105711
 6 -2.29261984988499 -5.16947117621762  3.13868880438044
 6  2.83167567926793 -0.74380217481748 -1.09959115951595
 6  4.07967005600560 -0.55311348764876 -0.47905805480548
 6  5.09886337073707  0.13729999539954 -1.06156592929293
 6  5.16555497849785  1.01024367366737 -2.25288945424542
 6  6.43552788558856  0.15849769997000 -0.17751423662366
 6  7.72304984288429 -0.24386473337334 -0.91568851935194
 6  8.98896076867687 -0.17723285368537 -0.18717052985299
 6  10.23406403090309 -0.54172124382438 -1.03250422092209
 6  10.08829552975297 -1.91237217331733 -1.45244870987099
 6  11.53048592549255 -0.34868864966497 -0.15935506690669
 6  12.84182909060906 -0.62599665076508 -0.78238826172617
 6  14.02523199159916 -0.04673587638764  0.05987305480548
 6  15.38476460136014 -0.17917164626463 -0.52144038383838
 6  15.76756842574257 -1.56204383818382 -1.05056467416742
 6  16.50117422332233  0.42759711971197  0.35636014321432
 6  17.80033462286228  0.54167556595660 -0.19933574817482
 6  18.81193156265627  1.32574079107911  0.69261969496950
 6  20.20631930113011  1.45053538703870  0.30337510071007
 6  20.28946029982998  2.36469476667667 -0.90189118181818
 6  20.96640757155716  2.16515945224522  1.43201856525653
 1 -3.88234971947195  3.45164068546855  1.64538912581258
 1 -10.09080947364737  3.95508634363436 -0.99004439593959
 1 -10.29076236563656 -2.33527286808681 -1.23551020322032
 1 -2.72172862976298 -1.01457977187719  1.96180687188719
 1 -2.26547015221522  1.91063464606461  1.12921357175718
 1 -1.90133459095910  1.06448690159016  3.44563827732773
 1 -3.15568062806281  2.20295435293529  3.50625279067907
 1 -3.46388983168317  0.48014269826983  3.77478989178918
 1 -1.97987047194719 -1.74964492489249 -0.43005691489149
 1 -2.01345301780178  0.27379462986299 -0.67663770337034
 1 -0.17547106450645  0.41032564646465  1.10578097719772
 1 -0.34935273727373 -1.45013952915292  1.43790774597460
 1 -5.68647742314231  6.81976062016202  0.79179488868887
 1 -5.89947693709371  5.89408277137714  2.57842413951395
 1 -4.55606956295630  5.54599576597660  1.16642981858186
 1 -9.19816186868687  6.04178032613261 -0.71608183638364
 1 -9.02896411231123  8.12029276817682  0.70131975377538
 1 -7.97846731253125  7.48037443694369  1.88119650515052
 1 -11.88645275037504  3.17761808780878 -2.43968697339734
 1 -12.95934560376038  1.95305919711971 -2.35216640814081
 1 -12.66231796289629  3.02210086478648 -0.78879012301230
 1 -12.73439821822182 -1.64309375447545 -1.07797275217522
 1 -13.51330004890489 -0.13180991779178 -1.42520804830483
 1 -13.38101445404540 -1.73547823402340 -3.40173005750575
 1 -12.34670823502350 -0.31506604420442 -3.72346584228423
 1 -11.62829910921092 -2.04107897499750 -3.36132475247525
 1 -9.16483608660866 -4.85900664356436 -1.98189145324532
 1 -8.02577194199420 -5.67277728192819 -0.90856046904690
 1 -9.34551443634363 -4.98985400670067 -0.07054887748775
 1 -3.23341403730373 -3.52601585228523  0.01560628912891
 1 -1.84834300080008 -4.31897833753375  3.63470638593859
 1 -3.06611622022202 -5.68616023362336  3.79743258215822
 1 -1.45044315581558 -5.88520779397940  2.74073802670267
 1  2.88221752585258 -1.76044788068807 -1.62197616261626
 1  2.50725820342034  0.07064134373437 -1.84977813001300
 1  4.26862776837684 -1.04107632283228  0.58682189818982
 1  4.20572953645364  1.06357506790679 -2.71684005370537
 1  5.48888430013001  2.11256151505151 -2.14029049724973
 1  6.00481778937894  0.56521762926293 -3.03095182618262
 1  6.61366342924292  1.31197519751975  0.13261590439044
 1  6.29188330773077 -0.24296233363336  0.83659337603760
 1  7.51328871357136 -1.31683091829183 -1.35048637223722
 1  7.58507094299430  0.46495970407041 -1.75795871947195
 1  9.09622167376738  0.85619350435044  0.11388902110211
 1  9.07145563426343 -0.74564007020702  0.73362122582258
 1  10.42710026142614  0.03208574627463 -2.04008889838984
 1  9.35193017851785 -1.94335231173117 -2.18090401520152
 1  10.97396995269527 -2.25224200810081 -2.03179742364236
 1  10.05096798279828 -2.61676361836184 -0.67657709740974
 1  11.40585826672667  0.67360959115912  0.22871435893589
 1  11.55624867826783 -0.98207416871687  0.74640526212621
 1  13.02864618351835 -1.66142430363036 -0.89768743634363
 1  12.64182793529353 -0.14153346234624 -1.91757511881188
 1  13.85599703640364  1.10037259325933  0.40698804180418
 1  14.08462121522152 -0.61918152285229  1.02933945044504
 1  15.34842813131313  0.54297378237824 -1.31524588258826
 1  15.72071951485148 -2.27951824392439 -0.03878533243324
 1  15.15156820752075 -2.23389576517652 -1.82099951505150
 1  16.78756838623863 -1.43562908780878 -1.61965343484348
 1  16.08552375307531  1.38499633333333  0.78276482078208
 1  16.59840428762876 -0.08182735783578  1.38300106130613
 1  18.32156309500950 -0.49633618101810 -0.33342668306831
 1  17.93000006450645  1.04583190209021 -1.37321089688969
 1  18.43507430003000  2.34917907560756  0.88854685998600
 1  18.63295045534554  0.62633681468147  1.61942194249425
 1  20.58219313201320  0.47817396559656 -0.02765570157016
 1  19.71488559515952  3.35509907180718 -0.79633322672267
 1  21.31955620772077  2.61885853865387 -1.19705106840684
 1  19.69621352575258  1.94469628042804 -1.95667263626363
 1  21.13074905010501  1.38674678377838  2.37526714391439
 1  22.17775948224822  2.41681291099110  1.12253722002200
 1  20.33028275817582  3.04927501080108  1.87878831933193

