%nproc=4
%Mem=2GB
# td=(NStates=1) CAM-B3LYP/6-31G(d,p) 

TD

0 1
12 -7.09645021802180  0.51605035313531  0.04192187958796
 6 -4.85045966396640 -1.88987016541654  0.37151368406841
 6 -4.80090001890189  2.82572101940194  1.22614897979798
 6 -9.40843557905790  3.12997849334933 -0.30258311801180
 6 -9.46329664336434 -1.76154166516652 -0.89215564466447
 7 -5.04069749434943  0.57499731783178  0.73190360866087
 6 -4.26368607470747 -0.72474229622962  0.72580060326033
 6 -2.93592259765977 -0.35705513121312  1.20028038223822
 6 -2.95992943134313  1.12281494979498  1.64727545824582
 6 -4.30641763666367  1.46894764356436  1.18079510941094
 6 -2.83274835693569  1.28863115121512  3.10543195209521
 6 -1.87556101710171 -0.59569483088309  0.05834979327933
 6 -0.43514093669367 -0.45597994519452  0.60243437273727
 6  0.49272040924092 -0.78304181708171 -0.55942132263226
 8  0.05093633373337 -1.06959236683668 -1.66464279597960
 8  1.82381419191919 -0.48314571097110 -0.23484027292729
 7 -7.08112856075608  2.58995458525853  0.38134683018302
 6 -6.09609888888889  3.25450642644264  0.85001853545355
 6 -6.34430168326833  4.80582487188719  0.78800948814881
 6 -7.58801150815082  4.85484611611161  0.41045943724372
 6 -8.13830810241024  3.52866206150615  0.11003354965497
 6 -5.48332628932893  5.93371583748375  1.02889765026503
 6 -8.53950174777478  6.01550258395840  0.06649363476348
 6 -8.37637152845285  7.27097321592159  0.62252850265027
 7 -9.03074534713471  0.65826868796880 -0.42673670737074
 6 -9.73725998569857  1.69661961506151 -0.55495181928193
 6 -11.13378247484748  1.47152549164917 -1.01569328882888
 6 -11.16746915081508  0.10483584768477 -1.22222093609361
 6 -9.89660534123412 -0.46299827412741 -0.88708372447245
 6 -12.21208003170317  2.45325589658966 -1.17609438423842
 6 -12.35206975327533 -0.75505291539154 -1.73755456395640
 6 -12.34726221462146 -1.13633604480448 -3.22436755535554
 7 -7.18744821312131 -1.38874848844884 -0.22059673667367
 6 -8.25051529132913 -2.25594076617662 -0.59056401160116
 6 -7.78664481008101 -3.62370063756376 -0.55621289858986
 6 -6.47215109920992 -3.55982031903190 -0.15044677657766
 6 -6.12553514991499 -2.24766304760476 -0.11178837463746
 6 -8.73901136853685 -4.79833267566757 -0.80176865526553
 6 -5.39079354965497 -4.31097498099810  0.29121199379938
 8 -5.25741457935794 -5.53101758515852  0.24665169586959
 6 -4.15569914931493 -3.24772056185619  0.55913577887789
 6 -3.60931156205621 -3.70743596489649  1.89617999089909
 8 -3.92978457905791 -3.19966670287029  2.93041572267227
 8 -2.76671786548655 -4.72682740514051  1.80244882578258
 6 -2.13179376727673 -5.01132536163616  3.05753068856886
 6  2.83356586828683 -0.75778357295730 -1.19062026242624
 6  4.07441953095309 -0.49702787908791 -0.67156730573057
 6  4.99701318571857  0.28169443484348 -1.00308008070807
 6  4.95589401240124  1.26899954925493 -2.15865003030303
 6  6.36766109890989  0.34077592779278 -0.28003448864887
 6  7.55970350825083 -0.25885623252325 -1.03165011551155
 6  8.82264413701370 -0.33771890229023 -0.17838965176518
 6  10.11624224872487 -0.74962203390339 -0.93702467296730
 6  10.10271697189719 -2.16307724382438 -1.48874233923392
 6  11.44257713461346 -0.36940072087209 -0.09343847524752
 6  12.73810871857186 -0.44848889999000 -0.94729475237524
 6  13.93043251165117  0.01023982118212  0.01457852535254
 6  15.31100722562256 -0.09202293139314 -0.54286252605261
 6  15.65252692159216 -1.47938557235724 -0.95194481218122
 6  16.48679278517852  0.54997935793579  0.43157766496650
 6  17.87823241264126  0.66610800920092 -0.07805361996200
 6  18.70264063356336  1.45286350335033  0.83583401640164
 6  20.15442411161116  1.39250958445845  0.45941070427043
 6  20.45204655845585  2.07417571477148 -0.90148114081408
 6  21.05586651745175  1.95865880218022  1.48849421282128
 1 -4.18033951845185  3.66181170257026  1.35152973987399
 1 -10.18906929962996  3.99535037003700 -0.49837522902290
 1 -10.22940623002300 -2.52163150395040 -1.19997664986499
 1 -2.62578903580358 -1.07144545844584  2.12376306750675
 1 -2.17477108230823  1.66912049464947  1.14705535593559
 1 -1.76071052855286  0.85380583348335  3.54223793729373
 1 -2.73703876387639  2.53619767726773  3.31704386978698
 1 -3.93005644834483  1.03142782678268  3.65573798659866
 1 -1.96064854975498 -1.59427938833883 -0.32060596979698
 1 -2.03238491099110  0.22676992739274 -0.72945298489849
 1 -0.16858037543754  0.77643225712571  0.81762216131613
 1 -0.23002080408041 -1.12778729392939  1.44910886608661
 1 -5.59401817721772  6.87030567466747  0.21910761996200
 1 -5.44968195759576  6.30599396249625  2.01045734283428
 1 -4.40503445944594  5.61991315771577  0.75981915751575
 1 -9.15656770927093  5.84411055915592 -0.77555778397840
 1 -9.14831604750475  7.98550928982898  0.11318093989399
 1 -7.72353181898190  7.60073647314731  1.59654804030403
 1 -11.84545865096510  3.22946327232723 -1.89207221192119
 1 -13.13243291249125  1.89566345754575 -1.47339853135313
 1 -12.25969770087009  3.27626628132813 -0.33458470247025
 1 -12.50256503490349 -1.60218966406641 -0.89803475837584
 1 -13.36638535743574 -0.25941267806781 -1.54487001450145
 1 -13.23081943454345 -1.88958364456446 -3.21404128862886
 1 -12.30732429662966 -0.25094963256326 -3.78623211891189
 1 -11.40689696899690 -1.69411427852785 -3.31421004100410
 1 -9.14389399239924 -4.72891363426343 -1.94601786588659
 1 -8.33447281208121 -5.83255325952595 -0.55497511051105
 1 -9.58235812071207 -4.83829885118512  0.00340851825182
 1 -3.32936363226323 -3.54563781448145 -0.32391766326633
 1 -1.64072223872387 -4.18099453915391  3.55565848114811
 1 -3.02634224282428 -5.47430904850485  3.72126496539654
 1 -1.33140125162516 -5.88190746394640  2.99275322822282
 1  2.49230853495350 -1.76576841274127 -1.66685065006501
 1  2.56152362996300  0.01711599119912 -2.05148830103010
 1  4.17372827842784 -1.18240045524552  0.35035825182518
 1  3.96895585908591  1.19362807320732 -2.57582595229523
 1  5.12682809450945  2.24563482238224 -2.01873834203420
 1  5.82715002260226  1.11438254575458 -2.97656638763876
 1  6.45000706360636  1.56301030103010 -0.07953531073107
 1  6.21193531293129 -0.20116815421542  0.62702241894189
 1  7.39520690539054 -1.20850008520852 -1.28295961956196
 1  7.85777821372137  0.24948815691569 -1.79399232283228
 1  9.10497254885489  0.71203908890889  0.28345597779778
 1  8.67848633733373 -1.12198770497050  0.60795865956596
 1  10.24445199659966 -0.18267572987299 -1.97664255375538
 1  8.91383636913691 -2.45372334883488 -1.80003592839284
 1  10.91813436913691 -2.40183696759676 -2.38812305620562
 1  10.28488137413741 -2.86769871187119 -0.62464190389039
 1  11.28624630553055  0.55972820302030  0.14816630413041
 1  11.48763181658166 -1.01292725402540  0.77195781738174
 1  13.06382970187019 -1.37907606880688 -1.27065473307331
 1  12.53255700820082  0.21639233023302 -1.87356071737174
 1  13.86093753045304  1.11737429342934  0.50507785078508
 1  13.83885663876388 -0.38310791549155  1.00860737723772
 1  15.40044333283328  0.49993947894790 -1.44428878687869
 1  15.81737918081808 -2.05639593169317  0.03215176127613
 1  14.75821887258726 -1.70063243884388 -1.52686010111011
 1  16.65136476587659 -1.59418494339434 -1.38211968146815
 1  15.98698389908991  1.53049088278828  0.77168371267127
 1  16.51610605780578 -0.38751792689269  1.18698145934593
 1  18.48689962866287 -0.37860440784078 -0.05090843124312
 1  17.96708377287729  0.98036535543554 -1.17707128292829
 1  18.16928772137214  2.51978613631363  0.90204821012101
 1  18.55112227252726  0.88953313431343  1.82525252555256
 1  20.53371828452845  0.36683283148315  0.26716378037804
 1  19.93399750635063  3.13497705960596 -0.95011860526053
 1  21.40104435653565  2.17200385318532 -0.97781914521452
 1  20.14260816521652  1.46944875567557 -1.89500646964696
 1  20.75119109430943  1.41471958105811  2.50824044124412
 1  22.17828953525352  1.86067729742974  1.34567953425343
 1  21.03426315621562  3.07451753505351  1.59624006450645

