%nproc=4
%Mem=2GB
# td=(NStates=1) CAM-B3LYP/6-31G(d,p) 

TD

0 1
<<<<<<< HEAD
12 -7.19482005500550  0.62606135423542  0.07466515391539
 6 -4.90898551655166 -1.91871304970497  0.48223475617562
 6 -4.77666759565957  2.84200264756476  1.13527989288929
 6 -9.43456819231923  3.10710620612061 -0.51547440714071
 6 -9.57977829152915 -1.78490400140014 -0.76464289338934
 7 -5.19284270887089  0.45583540164016  0.61414183248325
 6 -4.45497520362036 -0.67758758075808  0.78660668386839
 6 -3.02522152755276 -0.33939336503650  1.20821117531753
 6 -3.06874031243124  1.06315898419842  1.77367809850985
 6 -4.41533852875287  1.48556930573057  1.10522755265527
 6 -3.10270535263526  1.22128441654165  3.28579998889889
 6 -1.94315777677768 -0.44202946434643  0.12568652695270
 6 -0.42089951255126 -0.31683603080308  0.54880901020102
 6  0.52484362156216 -0.59474298719872 -0.54242962346235
 8  0.29332057215722 -1.07796320392039 -1.64491082278228
 8  1.79570138063806 -0.24307170357036 -0.04842163106311
 7 -7.06928737663766  2.58741433123312  0.25723441894189
 6 -5.96073535253525  3.33871484728473  0.74429796339634
 6 -6.42418967206721  4.73433772317232  0.76927761496150
 6 -7.80334304130413  4.79944057555756  0.24513290459046
 6 -8.15528980058006  3.43499269456946  0.01590413671367
 6 -5.60024798149815  5.90475294119412  0.99487424792479
 6 -8.51129892749275  5.94468550225023  0.14081106650665
 6 -8.44550844214421  7.18528464706471  0.76197244704470
 7 -9.14781705430543  0.62698555965597 -0.54754878857886
 6 -9.86891315101510  1.77780773387339 -0.71895821992199
 6 -11.23055215181518  1.49642798189819 -1.17922964246425
 6 -11.26588899279928  0.12612797689769 -1.29489820382038
 6 -10.01341702240224 -0.40901287558756 -0.77718273437344
 6 -12.28229705340534  2.51747231823182 -1.37393416821682
 6 -12.39215376167617 -0.77109451955196 -1.68063887238724
 6 -12.21879936833683 -1.27197960916092 -3.14509962856286
 7 -7.29517898619862 -1.36111572517252 -0.16015069206921
 6 -8.34776501630163 -2.26062123422342 -0.42895785098510
 6 -7.88061420702070 -3.53908217571757 -0.41766904420442
 6 -6.52146603070307 -3.53410774777478  0.01630989908991
 6 -6.24964756115612 -2.16511479277928  0.14097690189019
 6 -8.73532099949995 -4.79593243564356 -0.81932041044104
 6 -5.32031650195020 -4.35642952645264  0.08943181578158
 8 -5.13327216511651 -5.59042352575258 -0.04610758005801
 6 -4.15164874427443 -3.26696248604860  0.53654351965197
 6 -3.42955358625863 -3.63395861716172  1.80979135203520
 8 -3.55454705530553 -3.06460319651965  2.86974965606561
 8 -2.65163635733573 -4.73807853025303  1.59945852675268
 6 -2.04828541644164 -5.33897812691269  2.74192912841284
 6  2.79808231993199 -0.57292508710871 -1.03309450985099
 6  4.17254934393439 -0.41107928422842 -0.33862401140114
 6  5.17503098749875  0.33908017341734 -0.82629240194019
 6  5.12162058505851  1.05660831013101 -2.16825099039904
 6  6.43668800160016  0.42271412161216 -0.06525301050105
 6  7.64386192409241 -0.12094244114411 -0.84904185468547
 6  8.95517739033903 -0.15111024142414 -0.04032584538454
 6  10.27994861936194 -0.54687175887589 -0.78137910841084
 6  10.12552925312531 -2.06523745984598 -1.30673413841384
 6  11.50456333323332 -0.29534331513151  0.11524239283928
 6  12.80520542824282 -0.57241129222922 -0.61837186008601
 6  14.01551101950195 -0.14190539333933  0.24224129162916
 6  15.32994911981198 -0.14110783988399 -0.46446468626863
 6  15.74645631453145 -1.64317195099510 -0.80857047474747
 6  16.40085419131913  0.37422178217822  0.42836734393439
 6  17.73439802920292  0.55723712211221 -0.26618243284328
 6  18.78888925842584  1.29008722572257  0.69365979897990
 6  20.27619628882888  1.35491582508251  0.07867263046305
 6  20.27270862466247  2.18610690789079 -1.21629262196220
 6  21.22879381018102  1.84706764306431  1.06208157155716
 1 -4.19256074057406  3.59399492089209  1.65585017191719
 1 -10.04907530023002  3.98959979497950 -0.72853824532453
 1 -10.31147443684368 -2.66284562536254 -0.91062771497150
 1 -2.63113957085709 -1.06325463936394  1.80846153735373
 1 -2.26991059625963  1.86282986558656  1.41923257365737
 1 -2.02964742224222  1.10736118901890  3.81813552705270
 1 -3.50432549254925  2.17114117161716  3.55311747714771
 1 -3.75215865856586  0.52764744874487  3.75240765356536
 1 -1.99438192309231 -1.69463942434243 -0.10225413461346
 1 -2.16464813731373  0.04392164256426 -0.79439947954796
 1 -0.09363288068807  0.48766338023802  1.22417281638164
 1 -0.20682848484848 -1.18637315251525  1.16547050225023
 1 -6.13178195359536  6.86610525462546  0.60443615281528
 1 -5.71411840124012  6.14391775487549  2.09891618871887
 1 -4.38465242124212  5.77312847924792  0.62668584418442
 1 -9.30213226572657  5.85388153625362 -0.77806803500350
 1 -8.97809902580258  8.20951169006901  0.49896951875187
 1 -7.96173563936394  7.11229762926293  1.71956034153415
 1 -12.12870697579758  3.15827615361536 -2.31452445714571
 1 -13.28811848104810  2.03106699789979 -1.55337652915292
 1 -12.28649038013801  3.07839649434943 -0.51752299629963
 1 -12.60689546794680 -1.78133757885789 -1.14006896179618
 1 -13.39751847074707 -0.22796953375338 -1.78287381488149
 1 -13.11545789838984 -1.73067775397540 -3.47370725522552
 1 -11.74402796699670 -0.52355689328933 -3.94780827652765
 1 -11.37693397269727 -2.16741160826083 -3.16309492949295
 1 -8.74768437143714 -4.75883662656266 -1.81110437453745
 1 -7.85810517531753 -5.42016202040204 -0.49292890589059
 1 -9.97393727862786 -4.98106312761276 -0.53950577317732
 1 -3.48329902580258 -3.27966121682168 -0.19213448494850
 1 -1.42912107860786 -4.55819225892589  3.28177109240924
 1 -2.80267987658766 -5.43557517511751  3.68380121902190
 1 -1.41450956245625 -6.30173944714471  2.35971992489249
 1  2.58517782188219 -1.65316715261526 -1.35112907790779
 1  2.67552503010301  0.08628290789079 -1.94416756895690
 1  4.11306221182118 -0.75181739693969  0.62201541754175
 1  4.26867583108311  0.75705441584158 -2.82830119981998
 1  5.20377578927893  2.07913817271727 -1.89142561076108
 1  6.00633794139414  0.77561866936694 -2.95684441544154
 1  6.55339740264026  1.37639163916392  0.33171581438144
 1  6.40177429682968 -0.39668770617062  0.80050976767677
 1  7.52688007270727 -1.08695793099310 -1.24233555715572
 1  7.80387282318232  0.55159836793679 -1.73848677227723
 1  9.19569162076207  0.87776566156616  0.35093272547255
 1  8.88535702440244 -0.57314282048205  0.84651251495150
 1  10.37230478187819  0.16075861356136 -1.48400328982898
 1  9.33525851135114 -2.12975095159516 -2.15573149794980
 1  11.19274182988299 -2.41195797969797 -1.65413965786579
 1  9.72973585958596 -2.80894283628363 -0.43586302600260
 1  11.27177485838584  0.69415164536454  0.58750023752375
 1  11.38368142154216 -1.28915487678768  0.71261188278828
 1  12.87171048994900 -1.63333149434943 -0.88284595219522
 1  12.83558731123112 -0.00642995199520 -1.50814417571757
 1  13.72180361706171  0.73499605560556  0.70627797079708
 1  14.12505525862586 -0.88967857255726  1.18634515101510
 1  15.51372466096610  0.40034951995199 -1.52932729072907
 1  15.72093953685369 -2.38678897099710 -0.12187364126413
 1  15.05402845354535 -2.10325270087009 -1.66983439853985
 1  16.71915154455446 -1.75928145304530 -1.21040250975098
 1  16.26244144484448  1.34964279797980  0.83613015731573
 1  16.57628207540754 -0.36462563766377  1.48649141034103
 1  18.24913585228523 -0.43419996739674 -0.72678601900190
 1  17.42638970347035  1.18290560946095 -1.06206978277828
 1  18.46703749634964  2.36286044374437  0.93214121942194
 1  18.78608576887689  0.71187536853685  1.49595959625963
 1  20.41706661936194  0.29037518571857 -0.52377531353135
 1  19.91158526512651  3.22932649454946 -1.00134372777278
 1  21.35743999609961  2.31055770857086 -1.32461382468247
 1  19.97961186558656  1.49496130693069 -2.03967093609361
 1  21.09611558675867  1.53874198329833  2.18470808800880
 1  22.38967067336733  1.64168539823982  0.87728269456946
 1  21.20238996889689  3.11255133843384  1.02275271577158
=======
12 -7.11137171017102  0.63571231933193  0.17009469686969
 6 -4.76857147514751 -1.91037221562156  0.51834836753675
 6 -4.84423435233523  2.86578502580258  1.14939130403040
 6 -9.39459419491949  3.09124461996200 -0.36779963966397
 6 -9.53784409810981 -1.72721823282328 -0.80561699079908
 7 -5.11323474807481  0.46952677077708  0.77280769906991
 6 -4.30886059215922 -0.59295911791179  0.89436745994599
 6 -2.87381638703870 -0.31369079477948  1.21058141234123
 6 -2.98426186458646  1.07762043034303  1.67250798149815
 6 -4.38996599149915  1.47067781658166  1.14501153105311
 6 -2.84413949604961  1.17852014011401  3.13552496139614
 6 -1.89835329632963 -0.57948320972097 -0.04253029472947
 6 -0.47143456605661 -0.56515086228623  0.48343247254725
 6  0.41921305850585 -0.74565807870787 -0.63250863136314
 8  0.14744598469847 -1.10089549714971 -1.74660099179918
 8  1.76408821932193 -0.58214561096110 -0.17258404730473
 7 -7.16208665656566  2.61874746454645  0.30784948044804
 6 -6.00440971997200  3.37078805460546  0.83831736533653
 6 -6.44886213931393  4.73835812521252  0.74442512971297
 6 -7.76725943294329  4.87546817831783  0.31600999229923
 6 -8.10656492809281  3.48664786008601 -0.01354880858086
 6 -5.59009696639664  5.85690815671567  1.14307906840684
 6 -8.60518831643164  6.04752578627863 -0.03275629022902
 6 -8.62994688598860  7.19004512311231  0.67400365016502
 7 -9.15060733333333  0.72015487658766 -0.34941897559756
 6 -9.93984024372437  1.76168612171217 -0.56315263936394
 6 -11.19596869346935  1.39231757085709 -1.14843656315632
 6 -11.24899730363036  0.03841920602060 -1.26656537053705
 6 -9.93662934363436 -0.40523249754975 -0.79896491259126
 6 -12.32695151885189  2.36716728772877 -1.28371514631463
 6 -12.42122666896690 -0.79860727082708 -1.64818562706271
 6 -12.37289477787779 -1.28406081728173 -3.16215133373337
 7 -7.22592206050605 -1.35484509810981 -0.13600827782778
 6 -8.24239447924792 -2.16226139823982 -0.51292624782478
 6 -7.74292043764376 -3.50741900940094 -0.43989126642664
 6 -6.47621150525053 -3.42847718471847 -0.08911064296430
 6 -6.06318891529153 -2.10937921922192  0.05628843304330
 6 -8.59119658705871 -4.65970881328133 -0.84210268866887
 6 -5.34231870217022 -4.25162904640464  0.15598847144714
 8 -5.16024486238624 -5.51504598799880  0.15132216291629
 6 -4.14371795119512 -3.25612140194019  0.47918778407841
 6 -3.47627825872587 -3.64623984528453  1.88983935683568
 8 -3.65116671727173 -3.10468720492049  2.88105078617862
 8 -2.63532472617262 -4.74470919331933  1.57817639853985
 6 -1.99565015291529 -5.19880410951095  2.83059799529953
 6  2.77744025572557 -0.73107090169017 -1.19427062746275
 6  4.07296938593859 -0.43372154845485 -0.57695784478448
 6  5.00803428782878  0.41082734813481 -0.99733950665066
 6  4.95253367636764  1.19896254555456 -2.27118128342834
 6  6.35909024182418  0.35582743294329 -0.28546503170317
 6  7.57735527342734  0.04009366246625 -1.16482343284328
 6  8.95412728532853 -0.03822895329533 -0.36382819561956
 6  10.24608523302330 -0.58243531523152 -1.00573154365437
 6  10.23405010521052 -2.05084602070207 -1.14624808980898
 6  11.42769564646465 -0.27392117291729  0.03288415701570
 6  12.82230713841384 -0.46072012311231 -0.61342136503650
 6  14.00009947834783 -0.14755595839584  0.23638070557056
 6  15.37703382828283 -0.26521025012501 -0.39874811461146
 6  15.67819948884888 -1.73008064186419 -0.70645026272627
 6  16.51079518541854  0.31921628162816  0.56346085328533
 6  17.85406999639964  0.34282568096810 -0.07933374797480
 6  18.79875024452445  1.27921613861386  0.76008644164416
 6  20.21489015821582  1.35219555305531  0.23336810001000
 6  20.30694204800480  2.22155045224522 -1.14515550825083
 6  21.11185211601160  1.99641257755776  1.28501386478648
 1 -3.91767325182518  3.73235875727573  1.28762334923492
 1 -10.21796218891889  3.83609444444444 -0.42904829632963
 1 -10.27849113851385 -2.50324966576658 -0.99142579477948
 1 -2.60622707960796 -1.26534484838484  2.07940863206321
 1 -2.24598820402040  1.64602818541854  1.28303895429543
 1 -1.70831528902890  1.17486793969397  3.39654336783678
 1 -3.06425148514852  2.38792284978498  3.46917908330833
 1 -3.62500594329433  0.68849353335333  3.62664507730773
 1 -2.19149163406341 -1.37997795819582 -0.58135204440444
 1 -2.21793346584658  0.21934918531853 -0.56409644924492
 1 -0.28905242264226  0.31916653055306  1.22123252235224
 1 -0.43626142814281 -1.41484599979998  1.40162411761176
 1 -5.84794356975698  6.88542718681868  0.65078078727873
 1 -5.73839082848285  6.36499986308631  2.29649594669467
 1 -4.61392534853485  5.46317748414841  0.98632180778078
 1 -9.01979403190319  5.98182433053305 -1.02837306550655
 1 -9.42687390329033  7.94412515141514  0.42015163696370
 1 -7.91136060186019  7.38793519301930  1.54188257375738
 1 -12.19413351845185  3.09187951395140 -2.19093209790979
 1 -13.43088275747575  1.68629252045205 -1.44961615311531
 1 -12.61692342344234  2.96181483618362 -0.38748999299930
 1 -12.54298907730773 -1.74968441354135 -0.87930288518852
 1 -13.20732945184518 -0.24384112091209 -1.46770229772977
 1 -13.19501585418542 -1.71619630583058 -3.48992887738774
 1 -12.31574513871387 -0.31366590419042 -3.69541303700370
 1 -11.48330460976098 -1.87193206030603 -3.43911253125312
 1 -9.14448405140514 -4.32329307220722 -1.86122938703870
 1 -8.01346071087109 -5.66193619781978 -0.76052566556656
 1 -9.63502338723872 -4.87121214251425 -0.28792061466147
 1 -3.39695039093909 -3.33730698139814 -0.38810408190819
 1 -1.57649581608161 -4.41988842854285  3.46736965226523
 1 -2.73312292089209 -5.92559417701770  3.36940977987799
 1 -1.29492760426043 -6.06835610881088  2.42482643554355
 1  3.01244054815482 -1.70848268416842 -1.68811277627763
 1  2.69808728632863 -0.00669639003900 -2.01373452565257
 1  4.16594750035004 -1.12061427662766  0.22270548654866
 1  3.95684464796480  0.95425413581358 -2.59558792849285
 1  5.17351276297630  2.20435069396940 -2.11567803600360
 1  5.47483479107911  0.67990909840984 -2.86830556155616
 1  6.54274633753375  1.20055405540554  0.00413305610561
 1  6.25267938733873 -0.44164220162016  0.51571128782878
 1  7.30566795149515 -1.01702093729373 -1.59832115571557
 1  7.55420785668567  0.61930513861386 -2.05759868346835
 1  9.15858791039104  1.09257714271427 -0.02163453125312
 1  8.66332482118212 -0.64316982318232  0.39990785448545
 1  10.33816136753675  0.01484402210221 -1.86658154765477
 1  9.39920490599060 -2.34367234373437 -1.89542546734673
 1  11.12202475817582 -2.50231701560156 -1.48369261316132
 1  10.12491537753775 -2.37388933093309 -0.25297473717372
 1  11.38988666956696  0.76757898809881  0.21881336883688
 1  11.48144119751975 -0.91730769206921  0.99505012661266
 1  13.00756407530753 -1.60276843804381 -0.56598426602660
 1  12.73842759525952 -0.00207951695169 -1.79990335163516
 1  13.80475191189119  0.94767732373237  0.48284562756276
 1  14.09591234433443 -0.51331093579358  1.33150966746675
 1  15.18535182368237  0.19288877387739 -1.24772913091309
 1  15.82604004690469 -2.24311460356036  0.29734828092809
 1  14.80816386708671 -2.31011338693869 -1.29294670977098
 1  16.66517614701470 -1.59989551445144 -1.29815128462846
 1  16.35387058775877  1.51253908760876  0.81014755905591
 1  16.55869031623162 -0.23490266536654  1.51251401260126
 1  18.26750768946895 -0.77685423282328 -0.06911025142514
 1  17.93894095859586  0.79982730163016 -1.05527910371037
 1  18.37824861746175  2.26097025472547  0.86772477777778
 1  18.96403356365637  0.88744292529253  1.84283428372837
 1  20.68876378907891  0.31069721792179  0.08899596359636
 1  20.28210231683168  3.26929049094909 -0.97004059745975
 1  21.35836008810881  1.90274692749275 -1.41026238953895
 1  19.52684658905891  1.87344915571557 -1.80573754275428
 1  20.81414738993900  1.46257436653665  2.22042165936594
 1  22.34684639093909  1.65346657635764  1.02388735503550
 1  21.19133886378638  3.12328241154115  1.39032947344734
>>>>>>> 8e03b5b5abfc0030b3aa597dc0de36371bfbd096

