%nproc=4
%Mem=2GB
# td=(NStates=1) CAM-B3LYP/6-31G(d,p) 

TD

0 1
<<<<<<< HEAD
12 -7.20140071307131  0.62667141524152  0.01453914131413
 6 -4.82144676267627 -1.94018519691969  0.46688322102210
 6 -4.75944587348735  2.77991643894389  1.15587195209521
 6 -9.45778051355135  3.12805830133013 -0.41470433013301
 6 -9.47413772747275 -1.75406091709171 -0.95964239333933
 7 -5.16220964556456  0.59969978807881  0.72712313061306
 6 -4.39743945004501 -0.64554437643764  0.77813583678368
 6 -2.92704170957096 -0.39805923162316  1.16973732793279
 6 -2.98708214661466  1.08301096939694  1.65167589828983
 6 -4.31527852275227  1.58961971077108  1.19059608950895
 6 -2.95167024912491  1.22934522262226  3.15338674757476
 6 -1.94947840884088 -0.59154441584158 -0.00337637933793
 6 -0.49633705630563 -0.39588393559356  0.48208233753375
 6  0.49394053125313 -0.65940945384538 -0.64842022252225
 8  0.25589682978298 -1.01289669726973 -1.78460479217922
 8  1.74431624212421 -0.40568796519652 -0.28146493539354
 7 -7.20400084798480  2.61500709050905  0.35962465796580
 6 -6.08242752175218  3.36497747354735  0.78248178177818
 6 -6.53186043914391  4.78051234063406  0.85069575677568
 6 -7.81311401840184  4.80098072957296  0.38898729002900
 6 -8.19687395899590  3.53868306360636  0.03437598389839
 6 -5.51117907460746  5.85810827672767  1.21154591509151
 6 -8.57323512111211  5.99865089878988  0.26239322472247
 6 -8.39524341564156  7.23985010361036  0.74446069586959
 7 -9.08506077867787  0.62852571367137 -0.59028306200620
 6 -9.79568582828283  1.82124207730773 -0.68980530463046
 6 -11.17115621222122  1.42815115421542 -1.09784150365036
 6 -11.15641804570457  0.04385975007501 -1.24179289328933
 6 -9.90333601430143 -0.38407038133813 -0.92368738483848
 6 -12.37977680138014  2.38418898989899 -1.30394716951695
 6 -12.30783532983298 -0.91079848994899 -1.70647145564556
 6 -12.21719920832083 -1.19201161236124 -3.18809392799280
 7 -7.11731119941994 -1.44302391599160 -0.23451812881288
 6 -8.27270751055106 -2.26429160126013 -0.56672162736274
 6 -7.81574772037204 -3.65792405990599 -0.51742902020202
 6 -6.48550243434343 -3.61697603460346 -0.09091082298230
 6 -6.09765236163616 -2.28311659295930 -0.01949914571457
 6 -8.63419088648865 -4.88073091549155 -0.67307578597860
 6 -5.27465193549355 -4.32025590909091  0.20263313591359
 8 -5.06150498839884 -5.54458894229423  0.25348237893789
 6 -4.10537411681168 -3.26183197299730  0.52947281258126
 6 -3.55836646754676 -3.60104532583258  1.94144451735174
 8 -3.81246284688469 -3.17922465866587  3.05166784788479
 8 -2.63591478517852 -4.52341706410641  1.75099368026803
 6 -2.02391297919792 -5.01059528862886  2.99828476397640
 6  2.75215772747275 -0.60144793939394 -1.24122532293229
 6  4.11977406640664 -0.50500867716772 -0.59083923292329
 6  5.10481396579658  0.43020928632863 -0.95409518221822
 6  5.00322874587459  1.28731138043804 -2.04025819111911
 6  6.39779411221122  0.44133598379838 -0.24435092029203
 6  7.53728126602660 -0.06506685358536 -0.99048599909991
 6  8.83497537013701 -0.05721085148515 -0.27731954475448
 6  10.16527715221522 -0.55495256695670 -0.83567453795380
 6  10.06653335353535 -1.95494643074307 -1.31722518751875
 6  11.40804368126813 -0.40493427422742  0.03197406600660
 6  12.81801670937094 -0.68154220532053 -0.60466048894890
 6  13.93120258865887 -0.27945914871487  0.32390945844584
 6  15.27126325122512 -0.20398412751275 -0.45207344714471
 6  15.71071274017402 -1.65642327612761 -1.01039065676568
 6  16.43259736563656  0.37051141114111  0.50358486568657
 6  17.79394398379838  0.51089248764876 -0.17840365496550
 6  18.78773914341434  1.23839205620562  0.71654208720872
 6  20.23354202340234  1.31416174967497  0.24097886108611
 6  20.36393774757476  2.07468576577658 -1.00607159985999
 6  21.15324625542554  1.95840877717772  1.25473083648365
 1 -3.93053453795380  3.49894541594159  1.36210079697970
 1 -10.06105649834983  3.89822065706571 -0.62433782528253
 1 -10.21406469586959 -2.65963530433043 -1.13544019621962
 1 -2.61939839673967 -1.08329664356436  2.04836552775277
 1 -2.15816942214221  1.70429401200120  1.21873252365236
 1 -1.96074053155315  0.72448290119012  3.54657837133713
 1 -3.01296635663566  2.28336239373937  3.45423758915892
 1 -3.76167961066107  0.50517520152015  3.55621803460346
 1 -1.93574605950595 -1.63467342774277 -0.44876878607861
 1 -2.21997366986699  0.23784103450345 -0.75653569316932
 1 -0.20958447584758  0.58145275917592  0.64129452855286
 1 -0.18212601460146 -0.98963347854786  1.42929688488849
 1 -5.72285106050605  6.74902354645465  0.47887359655966
 1 -5.69485647504750  6.16568993209321  2.28285458255826
 1 -4.51394535053505  5.43771493789379  0.99155233083308
 1 -9.38397044954496  5.93522967106711 -0.56736696489649
 1 -9.17386860276028  7.85780651955196  0.46965658745875
 1 -7.66030549634964  7.46210260976098  1.58674706020602
 1 -12.47492159725973  2.90634096009601 -2.12109511421142
 1 -13.49719938913891  1.94704859605961 -1.31871306280628
 1 -12.55330706180618  3.24640329502950 -0.82997424142414
 1 -12.46453123152315 -1.88057750285028 -1.03150810571057
 1 -13.11104982388239 -0.37992472927293 -1.62173770127013
 1 -13.03237959055906 -1.84692937913791 -3.35895578007801
 1 -12.16200976517652 -0.28809334693469 -3.73494699039904
 1 -11.20357663696370 -1.59416428352835 -3.43203182318232
 1 -9.15865546854685 -4.88872961586159 -1.56247951205121
 1 -8.02906227102710 -5.83058306250625 -0.42421203420342
 1 -9.40500038493849 -4.79999502080208  0.01842001940194
 1 -3.12015271117112 -3.35449870057006 -0.10611588308831
 1 -1.52516068256826 -4.13698013771377  3.34820773607361
 1 -3.00097970657066 -5.25544716231623  3.56669950885088
 1 -1.16615472697270 -5.60770004320432  2.74048800170017
 1  2.48001730583058 -1.60156199209921 -1.51010497549755
 1  2.73325080268027 -0.02826854725473 -2.08688184038404
 1  4.28672957855786 -0.89340155535554  0.43495671167117
 1  4.02532149564956  1.36698540894089 -2.84742311201120
 1  5.32671808350835  2.26003626252625 -1.75015148334834
 1  5.58836614421442  1.20508161566157 -2.88348707970797
 1  6.48795085798580  1.47038103810381  0.19334197699770
 1  6.32846696609661  0.02552451505150  0.82517223392339
 1  7.38360574527453 -1.14168340354035 -1.15884720832083
 1  7.51357379327933  0.09794300240024 -2.17823074667467
 1  8.94163621522152  1.03063094809481  0.09642727492749
 1  8.87902639133913 -0.44891039723972  0.84875273897390
 1  10.33690124152415  0.03768630633063 -1.73709859935994
 1  9.23353833933393 -2.17105508200820 -1.81210713551355
 1  11.07034959065907 -2.20366715061506 -1.85307955185519
 1  10.06208909490949 -2.58129007100710 -0.50973041274127
 1  11.58414609550955  0.64654688488849  0.21599308680868
 1  11.22473552695270 -0.99481544284428  1.09302992459246
 1  13.04666798569857 -1.75726388758876 -0.94087175477548
 1  12.89310306280628  0.12232292329233 -1.45443880518052
 1  13.89217065376538  0.83886644264426  0.56162350535054
 1  14.12930568366837 -1.04889449414941  1.00913743024302
 1  15.24544783328333  0.32956244124412 -1.47145150315031
 1  16.04060150305030 -2.37533782588259 -0.22483393729373
 1  14.65322837353735 -2.03521589718972 -1.57124453955396
 1  16.46012564196420 -1.39316484138414 -1.87115858535854
 1  16.09500470117012  1.31094892859286  0.68576512081208
 1  16.19529397659766 -0.15546472157216  1.31422418361836
 1  18.11956289498950 -0.49569611701170 -0.56880022042204
 1  17.66043310781078  1.09034635353535 -1.28154172997300
 1  18.50671146374637  2.15661981968197  1.07082508780878
 1  18.88056521682168  0.62182636363636  1.65589558985899
 1  20.48896380908091  0.24765091329133  0.22224928892889
 1  19.71076518311831  3.07754131603160 -0.90237383078308
 1  21.41578583068307  2.13983063586359 -1.14361572487249
 1  20.03756766116612  1.45223703450345 -2.04082105110511
 1  21.15021099629963  1.32533064216422  2.17068668586859
 1  22.25692739903990  1.89195042474247  0.78312327862786
 1  21.00558028792879  2.93870395369537  1.68178861936194
=======
12 -7.13042361536154  0.53684243234323  0.01657934533453
 6 -4.84162878087809 -1.92658383678368  0.40591712441244
 6 -4.73193312221222  2.82722116941694  1.18286465136514
 6 -9.36438117361736  3.05877137263726 -0.38152101180118
 6 -9.46805711941194 -1.74282979397940 -0.83959038813881
 7 -5.09677310191019  0.37547736583658  0.78229864816482
 6 -4.27511721782178 -0.67691751375138  0.78499652285229
 6 -2.89790879627963 -0.36035546124612  1.17103745794579
 6 -2.96095953435344  1.17790045834583  1.53268399909991
 6 -4.39782677757776  1.54558530733073  1.05479250915092
 6 -2.90665574767477  1.32232452055206  3.05460686958696
 6 -1.77945140614061 -0.56365162656266  0.10781473977398
 6 -0.35646306890689 -0.39874422162216  0.49564369366937
 6  0.41044218141814 -0.72217573047305 -0.67360274077408
 8  0.27745898599860 -1.16866227382738 -1.80812714441444
 8  1.75688749924993 -0.61533893029303 -0.17237402630263
 7 -7.09750019791979  2.65248083788379  0.31672036753675
 6 -6.03659293829383  3.29912088788879  0.77790132373237
 6 -6.43317057015702  4.79863415281528  0.87734842204220
 6 -7.73238594559456  4.88266889838984  0.42159055035504
 6 -8.11707597919792  3.47212640794079  0.15915846214621
 6 -5.51388934563456  5.85841830773077  1.11676643714371
 6 -8.54128192579258  6.05331636533653  0.26226321172117
 6 -8.46410030133013  7.18154427302730  0.93139938973897
 7 -9.07330960356036  0.59730259135914 -0.56669070277028
 6 -9.78514477417742  1.74598455155516 -0.80512683678368
 6 -11.18212730933093  1.50986932603260 -1.13822554205421
 6 -11.23106551045104  0.07949331343134 -1.24864357835784
 6 -9.83810949164917 -0.35138711301130 -0.82089710581058
 6 -12.08684750845084  2.54105467646765 -1.45140191499150
 6 -12.37143168946895 -0.78283569366937 -1.73094390289029
 6 -12.30996848524853 -1.12832524372437 -3.27986310491049
 7 -7.23711317961796 -1.39653926752675 -0.09371404840484
 6 -8.29070931073107 -2.26524169626963 -0.48541349654965
 6 -7.77530367596760 -3.65480374787479 -0.47583486078608
 6 -6.51616550065007 -3.56591092809281 -0.13007473937394
 6 -6.18614121052105 -2.17913619491949  0.11509431363136
 6 -8.58046551395139 -4.94731757415742 -0.69661814021402
 6 -5.35464993529353 -4.38525240874087  0.22704557715772
 8 -5.24100293819382 -5.56128061146115  0.34474150485048
 6 -4.10777435683568 -3.32854864466447  0.42875274057406
 6 -3.55457608850885 -3.66159138043804  1.77639801270127
 8 -3.73419502010201 -3.03336007220722  2.81273395449545
 8 -2.82279347304730 -4.72874759715972  1.79105768666867
 6 -2.35595618351835 -5.10842507160716  3.11088602410241
 6  2.81105361706171 -0.76524431903190 -1.09683088348835
 6  4.17295938493849 -0.52924110041004 -0.50215036403640
 6  5.02633611801180  0.30775704110411 -0.90969074177418
 6  4.89815823882388  1.30126277557756 -2.15132929822982
 6  6.36680101290129  0.43810566076608 -0.25896238143814
 6  7.62452999089909 -0.06039638653865 -0.99139609010901
 6  8.79674154675468 -0.15090022042204 -0.25278709150915
 6  10.17811843634363 -0.45045211691169 -1.02501347184718
 6  10.11808850905090 -1.99463039913991 -1.36328979397940
 6  11.38517139403940 -0.14241802260226 -0.09987911931193
 6  12.79458436613661 -0.43613766486649 -0.73244326722672
 6  13.94967443584358 -0.03077428022802  0.20384745224522
 6  15.37768389328933 -0.19704343344334 -0.44237247704770
 6  15.63864553345334 -1.61284891869187 -0.91321093879388
 6  16.43007711361136  0.43961832183218  0.49421392859286
 6  17.82896748614861  0.55175657405741 -0.24373018761876
 6  18.71967233673367  1.39318753575358  0.75258569156916
 6  20.20092876207621  1.24509484298430  0.28047281048105
 6  20.34763611741174  1.88898719591959 -1.06728772147215
 6  21.08370930173017  1.90653358965897  1.37721308470847
 1 -3.97157864236424  3.51510703210321  1.55823040994099
 1 -10.18356874957496  3.91266210121012 -0.15688107960796
 1 -10.15317860726073 -2.51754109490949 -1.29072572477248
 1 -2.74960141704170 -0.88021633553355  2.01978266946695
 1 -2.16223982918292  1.82155573817382  1.20722137253725
 1 -1.89418387588759  0.85320577347735  3.35857957145715
 1 -2.65515057505751  2.38920297779778  3.43438560396040
 1 -3.75515895859586  0.79914459845985  3.61921433423342
 1 -1.83626611151115 -1.55574553495350 -0.37291120032003
 1 -2.12279395189519  0.06559380978098 -0.73603364296430
 1 -0.20277379477948  0.64789940384038  0.78383878297830
 1 -0.00720852285229 -0.90087460266027  1.62129608480848
 1 -5.86481525692569  6.74563320742074  0.52872858205821
 1 -5.48474546394639  6.28203156625663  2.16974327142714
 1 -4.41049500550055  5.59665083148315  0.90546372197220
 1 -9.34158621112111  6.05801194929493 -0.64130435863586
 1 -8.86094731063106  8.24603534243424  0.47500712251225
 1 -8.02048151395140  7.36767316681668  1.73347173267327
 1 -11.78554265936594  2.84436476247625 -2.48212121682168
 1 -13.08679834903490  2.09153304450445 -1.54000519201920
 1 -12.30808253935394  3.40298895359536 -0.80710195419542
 1 -12.28979375777578 -1.68879832493249 -1.18877383228323
 1 -13.25777449634963 -0.39935667246725 -1.42360788828883
 1 -13.00002635523552 -2.02504719091909 -3.51655153965397
 1 -12.35310887508751 -0.16963150075008 -3.98655215091509
 1 -11.31333761306131 -1.80222508960896 -3.41964058405841
 1 -8.73192279527953 -5.12180292319232 -1.93354661876188
 1 -8.09970933573357 -5.87746775097510 -0.38160777377738
 1 -9.69176906180618 -4.89392441374137 -0.15971779437944
 1 -3.34591528742874 -3.48866211691169 -0.38931420292029
 1 -1.73432159865987 -4.42724916461646  3.58682159745975
 1 -3.19452906150615 -5.44778639623962  3.69971281018102
 1 -1.67385549704970 -5.92045131833183  3.14884883778378
 1  2.41680098419842 -1.71619345524552 -1.69075304030403
 1  2.75734321192119  0.04051833143314 -1.91933508570857
 1  4.24252515811581 -1.31153336853685  0.34669788578858
 1  3.97785674917492  1.39360807120712 -2.74288265796580
 1  5.18667407910791  2.33847410631063 -1.69899636783678
 1  5.63617092469247  0.93825493299330 -2.78951768276828
 1  6.59610167306731  1.36594059405941  0.06743938673867
 1  6.26336045544554 -0.17132516991699  0.70090980768077
 1  7.13416080078008 -1.21074030923092 -1.32321364496450
 1  7.61971440734073  0.42774598269827 -2.03989691329133
 1  9.08109016061606  0.80681856685669  0.41535916811681
 1  8.86595508420842 -0.88666417261726  0.54687255095510
 1  10.28592614401440  0.27270980868087 -1.80352524202420
 1  9.31531651715171 -2.16697467396740 -2.05206113091309
 1  11.00044259996000 -2.49709649354935 -1.81744598849885
 1  9.85963884988499 -2.49659160116012 -0.46920636033603
 1  11.35586326722672  0.84337656785679  0.10962244974497
 1  11.38406145954596 -0.67505346664666  0.86957757935794
 1  12.76957027592759 -1.56976513771377 -0.86898456605661
 1  12.82040579307931 -0.02764207320732 -1.82657601890189
 1  13.75607704440444  1.15709826582658  0.46522386538654
 1  14.04973772687269 -0.68277788248825  1.03106962346235
 1  15.40933422192219  0.51122060706071 -1.13650800880088
 1  15.54674211711171 -2.25139543164316  0.03103164926493
 1  14.81477452815282 -1.70794316991699 -1.57634504960496
 1  16.68946857625763 -1.69461498639864 -1.25631710121012
 1  15.98872407310731  1.54858269196920  0.70144668896890
 1  16.45142959015902 -0.14081325642564  1.55151791299130
 1  18.14394533323332 -0.42007855525553 -0.46369971037104
 1  17.50559762426243  1.03368068696870 -1.15677925372537
 1  18.48503929652965  2.50407456515652  0.96088409370937
 1  18.70647780808081  0.92272645364536  1.71069106940694
 1  20.70557547024703  0.10449659785979  0.28610567456746
 1  19.86534064066407  2.97237079897990 -0.91082467586759
 1  21.47332158425843  1.99681633443344 -1.26341770507051
 1  19.96858076247625  1.70325213601360 -1.97527449644965
 1  20.95866184138414  1.57935604470447  2.41019063626363
 1  22.15447715401540  2.08572980268027  1.10081504780478
 1  20.86652638253825  3.06212629592959  1.49564000450045
>>>>>>> 8e03b5b5abfc0030b3aa597dc0de36371bfbd096

