%nproc=4
%Mem=2GB
# td=(NStates=1) CAM-B3LYP/6-31G(d,p) 

TD

0 1
<<<<<<< HEAD
12 -7.16385695869587  0.61871061916192  0.07013470087009
 6 -4.82427704570457 -1.91840301870187  0.55417194989499
 6 -4.83297322622262  2.83687213451345  1.11032739763976
 6 -9.49818455395540  3.00076557205721 -0.38636149584958
 6 -9.42038235193519 -1.73893940494049 -0.93970039913991
 7 -5.07170059465947  0.49705952405241  0.71908232653265
 6 -4.34196390249025 -0.68291811381138  0.79365738893889
 6 -2.82337134253425 -0.31896132183218  1.23086344054405
 6 -3.02030546894689  1.18173084138414  1.65547627832783
 6 -4.43863085798580  1.54009475827583  1.15029205910591
 6 -2.95149023112311  1.39336162426243  3.22758416731673
 6 -1.89165262626263 -0.60395565696570  0.13824778307831
 6 -0.46102352495250 -0.42134648184818  0.63694782408241
 6  0.54852598979898 -0.67566107900790 -0.58410379087909
 8  0.25443668376838 -0.88700410801080 -1.75012134383438
 8  1.79683149364937 -0.38699609600960 -0.22189897879788
 7 -7.20722117001700  2.59383497329733  0.45267396289629
 6 -6.09410868986899  3.33250422622262  0.76028956255626
 6 -6.41936919001900  4.80458474787479  0.76728741594159
 6 -7.79828253525353  4.80187081858186  0.36210460176018
 6 -8.16503077467747  3.45032422772277  0.12830537683768
 6 -5.53981193789379  5.93463592949295  1.05222998349835
 6 -8.64935273287329  5.93386442014201  0.03966095149515
 6 -8.54250814211421  7.13322944154415  0.74510075987599
 7 -9.14214648724873  0.70692355345535 -0.56862089578958
 6 -9.97185344504450  1.74851480458046 -0.63380970507051
 6 -11.21889098569857  1.41002934203420 -1.05254697419742
 6 -11.28236063996400  0.00469583368337 -1.27898661266127
 6 -9.91622730343034 -0.39755172947295 -0.87649266536654
 6 -12.32311113481348  2.42383295429543 -1.35857263206321
 6 -12.38437298359836 -0.91429883998400 -1.77438824732473
 6 -12.18445593399340 -1.03070548174817 -3.30870598919892
 7 -7.16003547184719 -1.35615522912291 -0.13456813381338
 6 -8.15887612741274 -2.22224739683968 -0.63183813901390
 6 -7.70308645424542 -3.55841410891089 -0.50243752105211
 6 -6.37832171627163 -3.63352768976898 -0.14399613151315
 6 -6.11112370877088 -2.18212649394940  0.13218602280228
 6 -8.59864733213321 -4.79607244964496 -0.93592207060706
 6 -5.28458292859286 -4.36189007250725  0.29415228782878
 8 -5.04926376427643 -5.61314579797980  0.21566859755976
 6 -4.16239981938194 -3.27649343914391  0.60685055035504
 6 -3.34323495439544 -3.71702692399240  1.95270564346435
 8 -3.52803440404040 -3.12907964416442  2.99186186728673
 8 -2.63205439913991 -4.76744146654665  1.77617619851985
 6 -1.98090867876788 -5.28445267436744  3.00564550005001
 6  2.79226173787379 -0.57545534013401 -1.28918011841184
 6  4.19358144714471 -0.31941011731173 -0.63930407940794
 6  5.08305178957896  0.55829209460946 -1.05646541924192
 6  5.05156357935794  1.23791644094409 -2.30044420972097
 6  6.39252358515852  0.56269812001200 -0.28657514271427
 6  7.62681021892189 -0.17141748864886 -0.84645159565957
 6  8.86588846144615 -0.14888001840184  0.03432161936194
 6  10.11228185268527 -0.59626669836984 -0.78648961946195
 6  10.12232893309331 -2.10235117121712 -1.15205867086709
 6  11.34619749664967 -0.29005278607861  0.04694556315632
 6  12.73498840654065 -0.55088914001400 -0.78421844474447
 6  13.87233670207021 -0.03316451925192  0.09253632113211
 6  15.34386051095110 -0.15127885698570 -0.54972321212121
 6  15.58452012091209 -1.62995062886289 -0.97554717241724
 6  16.36130023592359  0.35737009700970  0.35826033323332
 6  17.75887047644764  0.34019541794179 -0.12218803340334
 6  18.75830620012001  1.15343356035604  0.75339577257726
 6  20.19488815801580  1.20522085558556  0.27817258045805
 6  20.23373472727273  2.10645894309431 -0.96598759145915
 6  21.04405533633363  1.70320325662566  1.25989135253525
 1 -4.04553603810381  3.57983350475048  1.06648123502350
 1 -10.03195358805881  4.02695353035304 -0.58023341484148
 1 -10.05121841124112 -2.46916625742574 -1.22627928012801
 1 -2.84044050095009 -0.78094640854085  1.98297898909891
 1 -2.28074167936794  1.66852043464346  1.12071272167217
 1 -1.88401285878588  1.16533698659866  3.54795850935094
 1 -3.04494955495550  2.57326138363836  3.47223938933893
 1 -3.66254969766977  0.59437412141214  3.59664207700770
 1 -1.95466795169517 -1.57118707910791 -0.29039294849485
 1 -2.14744641714171 -0.03822657225723 -0.67182722232223
 1 -0.19450296769677  0.64883949784979  1.02469286838684
 1 -0.31290909290929 -1.13833834903490  1.48834278947895
 1 -6.04145292069207  7.01958060216022  0.72427813701370
 1 -5.43286027542754  6.10108347144715  2.09830612771277
 1 -4.55876983298330  5.66574774117412  0.64121729732973
 1 -9.19712176467647  5.73481963006301 -0.74301452965297
 1 -9.30031124702470  7.88156889578958  0.58012763456346
 1 -8.01982144794479  7.22784918441844  1.45585397089709
 1 -11.99609371447145  2.91725205120512 -2.17403040774077
 1 -13.34457412661266  2.07715160636064 -1.25193638513851
 1 -12.41878360946095  3.05876453115312 -0.39266051005100
 1 -12.60428520692069 -2.00413985908591 -1.38205316021602
 1 -13.22747146604660 -0.22883962076208 -1.58371389888989
 1 -13.00130648324832 -1.53118780498050 -3.71435131963196
 1 -12.28584214841484 -0.02164670227023 -3.61164466016602
 1 -11.24170044934494 -1.48803367046705 -3.47829644964496
 1 -8.77484708770877 -4.92223296619662 -1.99884314841484
 1 -8.05586495129513 -5.75390539473947 -0.58809842284228
 1 -9.44761464636464 -4.73813883518352 -0.44958678127813
 1 -3.43026372227223 -3.21846509720972 -0.05609088058806
 1 -1.23369153565356 -4.40922736243624  3.41273418871887
 1 -2.63914352295230 -5.46678829642964  3.78553139203920
 1 -1.34857296879688 -6.08358763196320  2.83216716961696
 1  2.89691899599960 -1.48864069997000 -1.49488345334533
 1  2.49355683328333  0.24301858145815 -1.92717586978698
 1  3.97967887348735 -0.76391860706071  0.35285850185019
 1  3.95420438393839  1.53489219961996 -2.63108147784778
 1  5.45709112081208  2.32337259615962 -2.15209167736774
 1  5.67308461606161  1.01418252575258 -3.05445417641764
 1  6.56443850675067  1.67608160816082 -0.19846720392039
 1  6.20847496689669 -0.05812384978498  0.78084780148015
 1  7.50417780248025 -1.17088632383238 -1.10548187178718
 1  7.74043647954795  0.28612182028203 -1.90200312391239
 1  9.36472852445245  0.79476736173617  0.35927355955595
 1  8.63845233393339 -0.74149965616562  0.95912377607761
 1  10.05470302170217 -0.06537399969997 -1.70387527702770
 1  9.25136012151215 -2.11070904740474 -1.78366429122912
 1  10.98866142184218 -2.30340712461246 -1.61344558845885
 1  9.91812469846985 -2.53433537553755 -0.13632307200720
 1  11.44396207710771  0.77132936313631  0.21702318981898
 1  11.13070612401240 -0.75734169546955  1.03217383898390
 1  12.93581690059006 -1.59905806700670 -1.06428409600960
 1  12.51054480698070  0.19560025102510 -1.66201956325633
 1  13.49346078277828  0.86772932893289  0.41911925492549
 1  13.77525027812781 -0.60696030073007  1.06720323682368
 1  15.50070335883588  0.37990747574757 -1.58107246524652
 1  15.64756219911991 -2.25299559165917 -0.07407886178618
 1  14.56783983468347 -1.97978035363536 -1.68064547964797
 1  16.52616224562457 -1.76593211811181 -1.63552502200220
 1  16.12112731343134  1.46822465616562  0.57313385768577
 1  16.61638608580858 -0.12770194529453  1.13865662686269
 1  18.19897083578358 -0.83112966036604 -0.33012635303530
 1  17.61573863836384  0.94959227812781 -1.13079665546555
 1  18.30723151575157  2.22119627732773  0.69051705700570
 1  18.66301346164617  0.80040422142214  1.87231723202320
 1  20.23998891159116  0.08551469966997 -0.20391332733273
 1  19.89077318391839  3.31200476237624 -0.87695128852885
 1  21.14773902600260  2.26429308210821 -1.48801016431643
 1  19.73639754415442  1.74216602740274 -1.84510147914791
 1  20.75552152735273  1.07257536663666  2.08287790499050
 1  22.10578228452845  1.76569779947995  1.07329229552955
 1  20.49216894679468  2.57975805910591  1.50294073457346
=======
12 -7.12057263026303  0.58280702880288  0.14428211561156
 6 -4.92438705670567 -1.96980815921592  0.65052158485849
 6 -4.79457938683868  2.81443989128913  1.18019438433843
 6 -9.27046178167817  2.94861035653565 -0.30808366806681
 6 -9.51732204590459 -1.76164167516752 -0.73357978707871
 7 -5.10261368596860  0.39480929902990  0.77350776907691
 6 -4.33011271737174 -0.77907772977298  0.85551357455746
 6 -2.81487049244924 -0.47743716941694  1.20055040924092
 6 -3.06139957835784  1.06116878517852  1.59331006170617
 6 -4.35355235013501  1.44380512931293  1.08161519141914
 6 -2.84900998309831  1.39646193429343  3.06703811271127
 6 -1.89305276627663 -0.70115537693769  0.11398535683568
 6 -0.48601602420242 -0.48566291349135  0.52013614291429
 6  0.50186132333233 -0.72598611151115 -0.56191157165717
 8  0.21229246934693 -1.30639604720472 -1.59400573227323
 8  1.78747055755576 -0.25175257165717 -0.24184097299730
 7 -7.02065251315132  2.64735032483248  0.30208890439044
 6 -6.01879115811581  3.33565454125413  0.72957649124913
 6 -6.31299855295530  4.77110139953995  0.65868655585559
 6 -7.60390309730973  4.79207983948395  0.27998638993899
 6 -8.07980225182518  3.44363355865587  0.03254580088009
 6 -5.37547550425043  5.83219568546855  1.06544130463046
 6 -8.48973677127713  6.03219425312531  0.06869385478548
 6 -8.40477436873687  7.14235035363536  0.83601985178518
 7 -9.04800707330733  0.66935979707971 -0.55638967266727
 6 -9.78977523722372  1.78486843994399 -0.68900522462246
 6 -11.13423251985198  1.49530786988699 -1.19313103260326
 6 -11.27379978387839  0.19089445354535 -1.24223293729373
 6 -9.89935561626162 -0.37602957725773 -0.94617963406341
 6 -12.16434525822582  2.55776634763476 -1.43287006180618
 6 -12.42189673597360 -0.66923433353335 -1.77644845334533
 6 -12.21467895629563 -1.09976238743874 -3.32793791239124
 7 -7.30661012931293 -1.39099871347135 -0.04396907390739
 6 -8.37416765656566 -2.21387655975598 -0.44541949714972
 6 -7.87276342194219 -3.58474674217422 -0.42870014731473
 6 -6.52373625772577 -3.62542687968797 -0.11210294219422
 6 -6.20039263566357 -2.19075735703570  0.24654745894589
 6 -8.76222368976898 -4.77765060746075 -0.90665914431443
 6 -5.33758822912291 -4.43482736623662  0.15809868246825
 8 -5.19399823772377 -5.61875635903590  0.18811584228423
 6 -4.20797437683768 -3.37904369416942  0.63663352865287
 6 -3.59290992189219 -3.74829005030503  1.94073444634463
 8 -3.69488108870887 -3.09529626582658  2.97576025712571
 8 -2.91996319001900 -4.89775449784978  1.75587416831683
 6 -2.27212780068007 -5.46060028912891  2.93297823332333
 6  2.80897340904090 -0.55673346794679 -1.25184638503850
 6  4.09073116211621 -0.29121729802980 -0.53078322732273
 6  5.09819330373037  0.45047131253125 -1.07025679837984
 6  5.19337776077608  1.25079772907291 -2.32980714601460
 6  6.35226955975598  0.47405925612561 -0.22057854305431
 6  7.61187872577258 -0.04932527942794 -0.89277622812281
 6  8.87681955455546 -0.02446757715772 -0.09349116191619
 6  10.11916254075408 -0.52872994469447 -0.80114108460846
 6  10.08291499169917 -1.93269420552055 -1.26432989798980
 6  11.42855573247325 -0.17369114991499  0.02807367596760
 6  12.73160806850685 -0.42693674477448 -0.61590161306131
 6  13.96282575097510 -0.04842604540454  0.21936900440044
 6  15.26554267916792 -0.09818354745475 -0.45296353615362
 6  15.62324399329933 -1.51874950875088 -0.91329094679468
 6  16.33597770367037  0.50540490049005  0.34072858005801
 6  17.82590718011801  0.63716511491149 -0.17301311591159
 6  18.74310467996800  1.24472268926893  0.80814124712471
 6  20.16797546674668  1.29084941844184  0.12060682388239
 6  20.39319067286729  2.13574187138714 -1.08624961766177
 6  21.29281021182118  1.71033396969697  1.18815417881788
 1 -4.18290977547755  3.53600912231223  1.49927451435144
 1 -9.94164455715572  3.71594242924292 -0.80615600710071
 1 -10.24693798319832 -2.48772811361136 -0.99487613981398
 1 -2.71647810471047 -1.19707802170217  2.14190488168817
 1 -2.26988059325933  1.48336191879188  0.94612526292629
 1 -1.81928638613861  1.33802425532553  3.54384809830983
 1 -3.22026708670867  2.52322638013801  3.15570773617362
 1 -3.67201064376438  0.87268195219522  3.77964037683768
 1 -1.95827831273127 -1.76116607700770 -0.23256716591659
 1 -2.35623729622962 -0.16857960756076 -0.89795983558356
 1 -0.37548106550655  0.60589520342034  0.93591399049905
 1 -0.45698350035004 -1.18615313051305  1.49021297649765
 1 -5.66166494189419  6.66500514461446  0.48288399759976
 1 -5.63894088348835  6.04516787988799  2.20660695779578
 1 -4.31969592559256  5.51040220662066  0.87148032363236
 1 -9.28764081658166  5.73426957505751 -0.55887611581158
 1 -9.08744996089609  7.99616035493549  0.71296091789179
 1 -7.76893635943594  7.06388278777878  1.53553193869387
 1 -11.62575668076808  2.99509983598360 -2.31222422712271
 1 -13.21609127832783  2.26750064126413 -1.82592378387839
 1 -12.08804053515352  3.30840949564957 -0.75345658965897
 1 -12.70088486688669 -1.66625607070707 -1.16223117801780
 1 -13.41333005190519 -0.01568830563056 -1.70299582708271
 1 -13.44699105170517 -1.47229191539154 -3.74260414491449
 1 -11.91689525372537 -0.32819735733573 -3.86760025572557
 1 -11.59283556285629 -1.72585745284528 -3.31635025502550
 1 -9.02995259825983 -4.58309905280528 -2.03761702580258
 1 -8.16657602240224 -5.65883588778878 -0.74350396339634
 1 -9.64333421832183 -4.84719974127413 -0.34302612521252
 1 -3.55628632453245 -3.43997724842484 -0.13877914941494
 1 -1.68580674717472 -4.68683512321232  3.33567648294829
 1 -3.05873548214822 -5.72629424702470  3.59049188808881
 1 -1.69612772427243 -6.24915418861886  2.77470142304230
 1  2.68544784888489 -1.60089192509251 -1.61394535953595
 1  2.61011848944895  0.08643292289229 -2.05868902110211
 1  4.15064597019702 -0.77659987518752  0.54425764176418
 1  4.23003196669667  1.34284299469947 -2.84405277497750
 1  5.45393080478048  2.24677493639364 -2.25814228242824
 1  5.88320562816282  0.66816792429243 -3.20430916191619
 1  6.60771283418342  1.58891289128913 -0.06595395259526
 1  5.99078319771977 -0.15237327472747  0.63134285098510
 1  7.19076646134613 -0.95642487768777 -1.28770009360936
 1  7.72108454435444  0.83095630373037 -1.69084200780078
 1  9.00573262486249  1.19209709470947  0.12885051725173
 1  8.78261675037504 -0.54854036023602  0.91416928062806
 1  10.43178072947295  0.06468900660066 -1.71187607710771
 1  9.16526151165117 -2.02515049154915 -1.83714963976398
 1  10.82399495519552 -2.24474125802580 -1.78791303520352
 1  9.94697758375838 -2.64854679667967 -0.40578001770177
 1  11.32081976287629  0.74486671687169  0.74596608410841
 1  11.35998905230523 -1.06015197649765  0.69426004760476
 1  12.71483480238024 -1.46813497469747 -0.93714138173817
 1  12.65370912341234  0.06011670267027 -1.64370773207321
 1  13.71259269596960  0.99394195019502  0.58733607660766
 1  13.86172892599260 -0.53759336403640  1.09868638513851
 1  14.97862115061506  0.75118460346035 -1.23352771077108
 1  15.55938338123812 -2.03456374847485  0.09607815391539
 1  15.06823987468747 -2.04285666126613 -1.57363477857786
 1  16.60684031343134 -1.63695922082208 -1.32773424292429
 1  16.17491269196920  1.49000683438344  0.79852639693969
 1  16.53683813101310 -0.03557273237324  1.31730449164916
 1  18.15356629532953 -0.29292583998400 -0.35289863026303
 1  17.74183124762476  1.16738405730573 -1.36132970877088
 1  18.33249404200420  2.03696785448545  1.15009301460146
 1  18.76934409470947  0.55167934893489  1.58734873517352
 1  20.48237315001500  0.13806995519552 -0.18905184118412
 1  20.11799590619062  3.15955951785178 -0.76925051845185
 1  21.38592284438444  2.22081873467347 -1.39177054035404
 1  19.73875778017802  1.81175298609861 -1.77058402740274
 1  21.49082505770577  0.83364147324733  2.14909452665267
 1  22.23062476877688  1.50822205190519  0.60743570987099
 1  21.19652938283829  2.72146222952295  1.59656009650965
>>>>>>> 8e03b5b5abfc0030b3aa597dc0de36371bfbd096

