%nproc=4
%Mem=3GB
# td=(NStates=1) iop(3/107=0140000000,3/108=0140000000) CAM-B3LYP/6-31G(d,p) 

TD

0 1
12 -7.19139383108311  0.63648203170317  0.19336570657066
 6 -4.82219103560356 -1.96106333693369  0.55208061046105
 6 -4.83529956055606  2.82103082098210  1.24821492669267
 6 -9.33463022752275  3.06046359935994 -0.42054452975298
 6 -9.50604670267027 -1.69761152685269 -0.83975077997800
 7 -5.16543357455746  0.41500759135914  0.86346417041704
 6 -4.32047429472947 -0.69280042324232  0.90492838753875
 6 -2.98807502810281 -0.39093749174917  1.34959062816282
 6 -3.14405763266327  1.08679738133813  1.66770304960496
 6 -4.39174940964096  1.49620427152715  1.22183657755776
 6 -3.15060124092409  1.16716953625363  3.24664997959796
 6 -1.95638136783678 -0.53013900310031  0.11386519681968
 6 -0.45109081828183 -0.46311955995600  0.51088447074707
 6  0.54473639683968 -0.69112573447345 -0.67513730383038
 8  0.24882509930993 -0.84408818651865 -1.88623601670167
 8  1.77147574597460 -0.54115405380538 -0.27303269086909
 7 -7.06891453485349  2.62113532343234  0.28304922902290
 6 -6.05444558835884  3.35317908530853  0.76583245934593
 6 -6.48833374177418  4.82733959755976  0.83482174087409
 6 -7.79353413871387  4.91471327652765  0.33661978837884
 6 -8.14010353785379  3.49247618641864  0.00626862546255
 6 -5.48866089999000  5.80680015371537  1.13374352955296
 6 -8.54121412941294  6.06576684628463  0.01623223572357
 6 -8.46759516951695  7.29312846254625  0.54370843014301
 7 -9.02733177427743  0.59135613001300 -0.51663823772377
 6 -9.82086957325732  1.77087041134113 -0.67117993149315
 6 -11.08982293499350  1.44936438093809 -1.13554841454145
 6 -11.20687017421742  0.10229777557756 -1.20872090039004
 6 -9.96415401900190 -0.38661885528553 -0.81110331163116
 6 -12.10946188388839  2.50098533993399 -1.34878433113311
 6 -12.29576336923692 -0.75542166596660 -1.78063739433943
 6 -12.11443335223522 -1.23735392769277 -3.25414606580658
 7 -7.26273923632363 -1.36984181988199 -0.01889456455646
 6 -8.26480080638064 -2.21997054255426 -0.48506008590859
 6 -7.78828086788679 -3.61697224862486 -0.45907620742074
 6 -6.43566135663566 -3.47532051415142 -0.19827190889089
 6 -6.21137486918692 -2.13921187698770  0.15023685908591
 6 -8.76010835033503 -4.80869696809681 -0.72180556365637
 6 -5.31720718361836 -4.28516207960796  0.16887186128613
 8 -5.14578557085709 -5.50383724072407  0.09330527912791
 6 -4.13678818141814 -3.31335878327833  0.54190251185119
 6 -3.56490066686669 -3.73444138683868  1.84176014451445
 8 -3.85819860326033 -3.30411776967697  3.02183554175418
 8 -2.59934528732873 -4.65064368286829  1.58868790629063
 6 -2.18060701770177 -5.29899510541054  2.85499289968997
 6  2.80398671907191 -0.54149243814381 -1.31276479367937
 6  4.11721260646065 -0.33067833573357 -0.59749231203120
 6  5.08273376467647  0.52197872587259 -0.92096497349735
 6  5.07826155175518  1.38679635493549 -2.15554968996900
 6  6.40989726842684  0.41537215321532 -0.18640916531653
 6  7.60789224182418 -0.10713926192619 -1.06288661736174
 6  8.89761747334733 -0.11406322242224 -0.15181128352835
 6  10.19132459305931 -0.53341500470047 -0.84577029702970
 6  10.13015629222922 -1.96553443334333 -1.52075904190419
 6  11.40452511631163 -0.32471736283628  0.05083712121212
 6  12.70104784028403 -0.59353938743874 -0.60905841094109
 6  13.98096936873687 -0.22162787708771  0.28526493809381
 6  15.32162815381538 -0.31328041164116 -0.48620427292729
 6  15.69032530353035 -1.78292668096810 -0.79590141644164
 6  16.42042903560356  0.32158867616762  0.45005974067407
 6  17.83522110981098  0.44046777637764 -0.09433596059606
 6  18.79557997659766  1.24705278377838  0.75984924162416
 6  20.26650945534553  1.36987642014201  0.18402510851085
 6  20.29545239103911  2.09830713581358 -1.09135383128313
 6  21.17865293229323  1.97019871977198  1.20489442944294
 1 -4.09823018651865  3.55274852625263  1.49145524132413
 1 -10.06665878917892  3.88672094659466 -0.37245177137714
 1 -10.29286371047105 -2.39605514061406 -1.04601242064206
 1 -2.84536182338234 -1.01939214191419  2.25215170587059
 1 -2.34292775907591  1.54152621372137  1.36481013001300
 1 -2.34835792219222  0.69828893529353  3.82505284268427
 1 -3.36651376047605  2.19528875167517  3.55248327052705
 1 -3.93697649814982  0.57106226052605  3.92391407660766
 1 -2.17631275027503 -1.55355602640264 -0.43187119421942
 1 -2.01528789778978  0.32411003080308 -0.58617535213521
 1 -0.15459088778878  0.52497208450845  0.74877874087409
 1 -0.17778619891989 -1.12637340394039  1.18508196649665
 1 -5.56591076877688  6.77185469746975  0.53375320662066
 1 -5.49519099039904  6.10052293369337  2.24814682718272
 1 -4.36023086768677  5.68786305430543  0.89749048164816
 1 -9.33078333813381  5.60627400940094 -0.64099545224522
 1 -9.09582864656466  8.24727444844484  0.10638041374137
 1 -7.75825375747575  7.43221005740574  1.10800976127613
 1 -11.70143061606161  3.13169231633163 -2.17798362986299
 1 -13.06294359205921  2.01929067146715 -1.55686141434143
 1 -12.26098713141314  3.18135546964696 -0.43095353485348
 1 -12.48051001590159 -1.68656957975798 -1.26665016591659
 1 -13.26046834593459 -0.26895960646065 -1.52247800220022
 1 -13.08169336853685 -1.67179084118412 -3.57276823492349
 1 -12.03774418011801 -0.46431490279028 -4.01238021642164
 1 -11.21352619201920 -1.94133516071607 -3.28002628082808
 1 -9.38120273887389 -4.82033853465347 -1.81194725772577
 1 -8.21470585578558 -5.71715766906691 -0.77225718081808
 1 -9.48368254725473 -4.90529897829783  0.05727345864586
 1 -3.42827034553455 -3.29116572217222 -0.07380511861186
 1 -1.45323871147115 -4.57059927332733  3.38540025762576
 1 -3.01969840714071 -5.61143066796680  3.34579561726173
 1 -1.43079359985999 -6.09565034983498  2.64066742784278
 1  2.80142819761976 -1.54308093089309 -1.63569501820182
 1  2.54949139043904 -0.00620253545354 -2.23104416191619
 1  4.26204669136914 -1.07996641044104  0.16689809000900
 1  4.18041335283528  1.55362090479048 -2.65155564126413
 1  5.35355228742874  2.34944536843684 -1.84607204560456
 1  5.88189775827583  1.06288747964796 -2.81746800370037
 1  6.67730591449145  1.44761474207421  0.11223083698370
 1  6.19842771487149 -0.29245658235824  0.63510970647065
 1  7.32553467626763 -1.14520519351935 -1.41524628182818
 1  7.56231879037904  0.46605570857086 -2.00573139603960
 1  8.97876392069207  0.92760225772577  0.21261368946895
 1  8.88761188198820 -0.86066441914191  0.77661378477848
 1  10.34590922272227  0.33101924972497 -1.54987014501450
 1  9.17616722582258 -1.82761104460446 -2.16479486138614
 1  10.92218135873587 -2.08243164246425 -2.00731608970897
 1  10.11223342044205 -2.70068418311831 -0.70891828552855
 1  11.32054369596960  0.62917935133513  0.53392116291629
 1  11.46733432893289 -0.99642093969397  0.96025234533453
 1  12.88227618011801 -1.63561098039804 -0.97210948244824
 1  12.84031986188619  0.17355229122912 -1.52169650335034
 1  13.72244366466647  0.71742710601060  0.41150597929793
 1  14.00177848844885 -0.63556993589359  1.33446582058206
 1  15.30115051645165  0.41069446644664 -1.30704197299730
 1  15.74276807360736 -2.41576091729173  0.10964282878288
 1  14.89767141154115 -2.40625514551455 -1.24660603410341
 1  16.49805808540854 -1.87538843584358 -1.43508002130213
 1  16.13273654715471  1.31042937663766  0.79011492779278
 1  16.51002508030803 -0.03777006180618  1.40441893659366
 1  18.25771250895090 -0.73215972997300 -0.23264345994599
 1  17.81460877047705  0.90698959305931 -0.91038678227823
 1  18.38422747964796  2.24696596459646  1.13044499129913
 1  19.16351231373137  0.38274311381138  1.60962420792079
 1  20.61919175147515  0.41547254485449 -0.00400450825083
 1  20.03269008750875  3.13935471197120 -0.90467265196520
 1  21.25250905170517  1.84834597669767 -1.66163414461446
 1  19.63188158575858  1.80789107930793 -1.86740512491249
 1  21.02997685118512  1.22891853275328  1.95362903170317
 1  22.28256614941494  1.97240771147115  0.80825747934793
 1  20.71725180368037  2.95721183838384  1.57140427712771

