%nproc=4
%Mem=2GB
# td=(NStates=1) CAM-B3LYP/6-31G(d,p) 

TD

0 1
12 -7.10369094209421  0.65243399149915  0.09218690609061
 6 -4.87431204920492 -1.90400157855786  0.49540607330733
 6 -4.92430235913591  2.80691913921392  1.21044740964096
 6 -9.46310104560456  3.06953244874487 -0.43400626032603
 6 -9.55941625532553 -1.76763227422742 -0.95246167526753
 7 -5.07517094169417  0.43919373747375  0.73574399269927
 6 -4.31580128622862 -0.65575539753975  0.95148317151715
 6 -2.94048305370537 -0.39823924962496  1.39095945014501
 6 -3.09927336573657  1.08138080638064  1.80099082978298
 6 -4.35908290319032  1.54003475227523  1.16361339123912
 6 -2.91509659175918  1.30361264936494  3.35743715261526
 6 -1.91367482848285 -0.57086234763476  0.18375233353335
 6 -0.46633405600560 -0.37430177737774  0.59165329462946
 6  0.56598773597360 -0.69673318621862 -0.57554293479348
 8  0.26465770587059 -1.19317472507251 -1.65308163986399
 8  1.84137594809481 -0.33953134953495 -0.21467825672567
 7 -7.11822227012701  2.58782437223722  0.31510020552055
 6 -6.10691997099710  3.32349332513251  0.87816134973497
 6 -6.52644989808981  4.78739302870287  0.82940362756276
 6 -7.71342404940494  4.80993162466247  0.28286667796780
 6 -8.17132140374038  3.50155935123512 -0.07436489018902
 6 -5.57861581828183  5.72418488438844  1.28467322782278
 6 -8.50728852645264  6.01952298599860  0.07299428482848
 6 -8.45753964526453  7.20202632123212  0.70990724052405
 7 -9.14080635323532  0.65224808590859 -0.58341237493749
 6 -9.79871613131313  1.73810376347635 -0.68456478057806
 6 -11.16390548714871  1.43807214631463 -1.13441516101610
 6 -11.30453285718572  0.05350071417142 -1.31029974397440
 6 -9.99145482618262 -0.36976895119512 -0.91321633773377
 6 -12.21943076677668  2.38229880088009 -1.35536231103110
 6 -12.38381292759276 -0.84354176427643 -1.87288809730973
 6 -12.24343183158316 -1.07909032023202 -3.44063918251825
 7 -7.20744021232123 -1.30680029362936 -0.20695537253725
 6 -8.27415765556556 -2.17068224032403 -0.53408836403640
 6 -7.70450659625963 -3.54328259575958 -0.63962123942394
 6 -6.48044192829283 -3.49887422442244 -0.23808554045405
 6 -6.18156075247525 -2.14681296259626  0.02497530173017
 6 -8.52963043044304 -4.80708355075508 -0.97605608400840
 6 -5.24136860716072 -4.35531941544154  0.16691956455646
 8 -5.04731356925693 -5.54591907530753  0.08807583828383
 6 -4.14976855625563 -3.30222601240124  0.63202306760676
 6 -3.45102573347335 -3.60076529782978  1.92052242514251
 8 -3.78805040564056 -3.04293102930293  2.95757843894389
 8 -2.63237443114311 -4.67188191059106  1.78230681158116
 6 -2.14833542144214 -5.25493972307231  3.07791272677268
 6  2.82889540124012 -0.62983077767777 -1.11952315271527
 6  4.17358944794479 -0.53041121742174 -0.39934008300830
 6  5.14458794319432  0.29863612901290 -0.92620239293929
 6  5.03381180418042  1.12393504280428 -2.11867603290329
 6  6.39075340814081  0.46565841604160 -0.13096958215822
 6  7.61189872777278 -0.00180052695270 -0.85669261976198
 6  8.92611448404841  0.00561543114311 -0.05826763956396
 6  10.18960958545854 -0.59476654835484 -0.83563453395340
 6  9.98714541474147 -2.10968190429043 -1.18425189018902
 6  11.36970984788479 -0.32681646244624  0.08319918851885
 6  12.68513342104210 -0.70582463356336 -0.52254227712771
 6  13.96286575497550 -0.19399060186019  0.24559162666267
 6  15.23128925382538 -0.24027775687569 -0.51608984878488
 6  15.70761243014301 -1.54482211601160 -0.93092270997100
 6  16.35126923282328  0.51986634663466  0.24925943314331
 6  17.84066865626562  0.55879727812781 -0.38531434603460
 6  18.75135550505050  1.20578879587959  0.57933836683668
 6  20.17256592579258  1.36415674917492  0.11136589978998
 6  20.35371672547255  2.10348864606461 -1.28310930363036
 6  21.08333926472647  1.98075101140114  1.23227859125913
 1 -4.16874835933593  3.53220874227423  1.69138372527253
 1 -10.27171756445645  3.81495233023302 -0.61406679817982
 1 -10.29201249064906 -2.61748108890889 -0.91091774397440
 1 -2.73309976687669 -1.01706001990199  2.28030872207221
 1 -2.05504911011101  1.59529311191119  1.27727837823782
 1 -1.83831828932893  0.95278573147315  3.57336104960496
 1 -3.06853191319132  2.50360441794179  3.47787995339534
 1 -3.65830927362736  0.63410809480948  3.92287470027003
 1 -1.87172965786579 -1.58932889328933 -0.24228813801380
 1 -2.22837450995099  0.18005525592559 -0.62410244984498
 1 -0.47734125152515  0.53336795069507  0.96100649974997
 1 -0.09601740374037 -0.98991350655066  1.41526548174817
 1 -5.70909968536854  6.76551519561956  1.07572328152815
 1 -5.26946393579358  5.67697106020602  2.50872716981698
 1 -4.41978593459346  5.73210437683768  0.89070224582458
 1 -9.20757280978098  5.76037218531853 -0.72398262646265
 1 -9.07282849874987  8.05282602150215  0.50921054285429
 1 -7.51670113591359  7.25857225672567  1.14920330583058
 1 -12.01553565866587  2.97306763276328 -2.22883588828883
 1 -13.04347401660166  1.91552544374437 -1.82129332083208
 1 -12.49594132523252  3.00446910161016 -0.50320156415642
 1 -12.41419619801980 -1.65012445754575 -1.29605456035604
 1 -13.29674839373937 -0.32155889268927 -1.86098162566257
 1 -12.98587494009401 -1.71822650885088 -3.66357624212421
 1 -12.44814837903790 -0.01313585118512 -4.09034252995300
 1 -11.32778905820582 -1.54215908300830 -3.51735035503550
 1 -8.90414001700170 -4.69666040894089 -2.00744400850085
 1 -7.82349171397140 -5.70436044024402 -0.82132174517452
 1 -9.35556544144415 -5.06837185848585 -0.46826864946495
 1 -3.43787448334833 -3.35693894459446 -0.13103837533753
 1 -1.49127729422942 -4.33784022372237  3.51803471877188
 1 -3.15406501510151 -5.71971358895890  3.60508334723472
 1 -1.62118022952295 -6.16492576577658  2.71569552245224
 1  2.60311961606161 -1.58574040994099 -1.61919588458846
 1  2.78610608820882 -0.01803752415241 -2.08797194939494
 1  4.23792469806981 -0.88124033923392  0.45399861586159
 1  3.87544650815081  1.22652136253625 -2.35474384408441
 1  5.65358076977698  2.13364362326233 -1.91038750695070
 1  5.68696600420042  0.81432253975398 -2.88424715571557
 1  6.55262732563256  1.41893589358936  0.14731737453745
 1  6.29010312971297 -0.15767380478048  0.74010372707271
 1  7.33776116081608 -0.90013924912491 -1.28136946054605
 1  7.53536597249725  0.69444265236524 -1.82640556415642
 1  9.19504155575557  0.95216310131013  0.17119475167517
 1  8.78041653035304 -0.42287779397940  1.00298816251625
 1  10.32593014441444 -0.29191665396540 -1.86867175667567
 1  9.15945093059306 -2.54577255375538 -1.75215113991399
 1  10.84276683238324 -2.56247303120312 -1.57941218511851
 1  9.89699258525853 -2.80558250025003 -0.18216765646565
 1  11.24388206910691  0.75572780298030  0.20901238873887
 1  11.34337739113911 -0.89508546984698  1.01988260986099
 1  12.76817013591359 -1.74555271647165 -0.73973164076408
 1  12.55553930643064 -0.21178048704870 -1.49001236253625
 1  13.80309174587459  0.99176173217322  0.74914225722572
 1  13.88799155225523 -0.87006661136114  0.99739625612561
 1  15.08959224772477  0.31725121012101 -1.51893625162516
 1  16.01721916481648 -2.20366065816582 -0.08561001490149
 1  15.21798484918492 -2.14242661826183 -1.65410282538254
 1  16.78858848824883 -1.37699322422242 -1.43841531103110
 1  16.07070227092709  1.61615944964496  0.52234877917792
 1  16.59898434563456 -0.17567674277428  1.20712347354736
 1  18.13158409710971 -0.56988353575358 -0.43925726612661
 1  18.01594865936594  0.95205252415241 -1.37543111891189
 1  18.25649644224422  2.14574873257326  0.88527653295330
 1  18.71637879817982  0.52729691069107  1.40987098739874
 1  20.59298421112111  0.38331447964796  0.06146321032103
 1  20.27624173077308  3.30008357025703 -1.07829142254225
 1  21.39478373047305  1.92737939073907 -1.54885624892489
 1  19.67798170257026  1.65451726252625 -2.14780174917492
 1  20.84398037323732  1.33056116521652  2.11821143834383
 1  21.97094880118012  1.79571080078008  0.87256222252225
 1  20.45047477737774  2.85303538683868  1.46417685818582

