%nproc=4
%Mem=2GB
# td=(NStates=1) CAM-B3LYP/6-31G(d,p) 

TD

0 1
12 -7.14875544854485  0.65989473757376  0.08227591499150
 6 -4.86819143714371 -2.02733391179118  0.45112164486449
 6 -4.74718464736474  2.81434988228823  0.98961532643264
 6 -9.36549128462846  3.10466596209621 -0.34557741744174
 6 -9.50332064576458 -1.70619613061306 -0.96715314441444
 7 -5.03436686128613  0.42979279737974  0.83250366866687
 6 -4.31981168726873 -0.77101692369237  0.72380040324032
 6 -2.93705271067107 -0.42610203590359  1.22765311951195
 6 -3.01169460786079  1.09952262056206  1.73691442214221
 6 -4.36939393429343  1.49813056185619  1.16441347124712
 6 -2.98390347244724  1.15027731583158  3.19223063196320
 6 -1.84710817181718 -0.61939720112011  0.07351130943094
 6 -0.41569899249925 -0.38687303450345  0.56549067836784
 6  0.55759689688969 -0.53241675457546 -0.52356773727373
 8  0.17673891399140 -0.88573398099810 -1.65526185788579
 8  1.76116792729273 -0.35058245464546 -0.12079886878688
 7 -7.13357380528053  2.65115070487049  0.33428212371237
 6 -6.04130340934093  3.35359633543354  0.75855938953895
 6 -6.38408566166617  4.78930321972197  0.75156584378438
 6 -7.62179488648865  4.85810644214421  0.35962435373537
 6 -8.12361663326333  3.47841703700370  0.15953850015001
 6 -5.65565352205221  5.94151661756176  1.25294005450545
 6 -8.57187498509851  6.00212124582458  0.22891987738774
 6 -8.38036192749275  7.24456057465747  0.74385063486349
 7 -9.11168344094409  0.62460532163216 -0.51057509120912
 6 -9.84724098379838  1.77352730583058 -0.65758208230823
 6 -11.14564366096610  1.37188552765277 -1.24740646014601
 6 -11.17593999789979  0.07664302840284 -1.36882559655966
 6 -9.83690937163716 -0.38448042234223 -0.92079709580958
 6 -12.13970279397940  2.37314788578858 -1.57911468626863
 6 -12.28040258655866 -0.83713112321232 -1.89223003150315
 6 -12.18745623402340 -1.18439085028503 -3.37153227182718
 7 -7.23506297459746 -1.39390900450045 -0.22507718471847
 6 -8.24720496029603 -2.23060823292329 -0.48274322952295
 6 -7.85903204880488 -3.60015828332833 -0.39796707400740
 6 -6.51250513461346 -3.50032436943694 -0.06968870077008
 6 -6.20530312671267 -2.25110339163916  0.08787159135914
 6 -8.78936640404040 -4.85312815521552 -0.79725820422042
 6 -5.32752722302230 -4.34530841434143  0.17801067366737
 8 -5.22312115001500 -5.55888037143714  0.22630966166617
 6 -4.16396997639764 -3.34525031483148  0.53174303960396
 6 -3.55717634853485 -3.67574279557956  1.88783915681568
 8 -3.82033363396340 -3.18799553575358  2.95751843294329
 8 -2.68927012071207 -4.72918764116412  1.76324490539054
 6 -2.11292188008801 -5.08835306440644  3.04530946644664
 6  2.80227273897390 -0.57689548414841 -1.23792499289929
 6  3.99392148114811 -0.45322349864986 -0.44344449344935
 6  5.08819230363036  0.38924518991899 -0.83821359405941
 6  4.95079350235024  1.39874252355235 -2.00367453275328
 6  6.40824515731573  0.45869771997200 -0.12092857805781
 6  7.63057059495950  0.00359001210121 -0.94053100360036
 6  9.04037591019102 -0.04143927432743 -0.15337715051505
 6  10.23818444294429 -0.67823489518952 -0.84020499099910
 6  9.99054575477548 -2.14136507260726 -1.13146661166117
 6  11.44517739463946 -0.37806158695870  0.07191806040604
 6  12.71580648834883 -0.69363341444144 -0.71045106800680
 6  13.92927239563956 -0.33823502630263  0.16733380088009
 6  15.44201032593259 -0.26482021112111 -0.51453969376938
 6  15.67489915881588 -1.73235086888689 -0.85217483518352
 6  16.50848495439544  0.31741610161016  0.33077758495850
 6  17.83933852325232  0.49928132653265 -0.23770958555856
 6  18.71614198369837  1.21536975397540  0.72462289528953
 6  20.16074474367437  1.47010734423442  0.06915167836784
 6  20.13510486428643  2.27434573177318 -1.25536652935294
 6  21.11922285308531  2.10739367566757  1.21174653805381
 1 -3.98035952045204  3.53555907730773  1.10664525142514
 1 -10.24027442014201  3.83912474747475 -0.29529492099210
 1 -10.14307759715972 -2.35213455425543 -1.39176582878288
 1 -2.66025248214821 -0.92357067096710  2.13847453865387
 1 -2.24938854405441  1.71576515911591  1.35162581298130
 1 -1.88275273277328  1.09215966886689  3.54426814031403
 1 -3.40153521352135  2.17419147664766  3.68688085348535
 1 -3.48049149184919  0.26824150815082  3.62571498429843
 1 -1.63581606650665 -1.72974293469347 -0.40217412661266
 1 -2.10958263076308 -0.00077282688269 -0.79679971957196
 1 -0.26252977037704  0.53078769266927  1.23789418851885
 1 -0.21256905890589 -1.18756327152715  1.33094704990499
 1 -5.83706248164816  6.76577522162216  0.60823653285329
 1 -5.85539252865286  6.20897426052605  2.27297359445945
 1 -4.53978793479348  5.94819598599860  1.21969514511451
 1 -9.41841389388939  5.97013316141614 -0.54742497069707
 1 -8.93812502840284  8.19610034893489  0.54906452825283
 1 -7.59057852365236  7.26576297579758  1.38503688918892
 1 -12.18046215131513  2.81938226422642 -2.69917292199220
 1 -13.21052072127213  1.92493638483848 -1.62186337783778
 1 -12.40753248434843  3.38471712641264 -0.91686293029303
 1 -12.29461423982398 -1.75816526162616 -1.47922287718772
 1 -13.27554627352735 -0.42297903470347 -1.68078360586059
 1 -13.02813916651665 -1.66781146734673 -3.71231111561156
 1 -11.77693125732573 -0.19865440304030 -3.84373786948695
 1 -11.34097037633764 -1.93485835293529 -3.40476909690969
 1 -9.09725932893289 -4.78604934783478 -1.85036830093009
 1 -8.29850921572157 -5.74221422562256 -0.64331394439444
 1 -9.76120600550055 -4.66879190049005 -0.21442326492649
 1 -3.47749844574457 -3.57547079777978 -0.09751502300230
 1 -1.50130829732973 -4.39782622232223  3.26984990029003
 1 -2.74578418701870 -5.45040665826583  3.81178401730173
 1 -1.51567967946795 -6.09286856005601  2.74194814771477
 1  2.65886519061906 -1.64801663756376 -1.61884584958496
 1  2.66971444904490 -0.11757747814781 -2.23202635483548
 1  4.23325423102310 -0.76469868506851  0.35506872287229
 1  3.85055401890189  1.36530524092409 -2.54139250895089
 1  4.93655906760676  2.39643990289029 -1.50714718291829
 1  5.84238154575458  1.42883399089909 -2.82472120312031
 1  6.74467653055305  1.52895689568957  0.18205084788479
 1  6.28437255665567 -0.16704474187419  0.87369708640864
 1  7.48082546724673 -0.93290252545255 -1.40790211381138
 1  7.85045748164817  0.72769597769777 -1.75389831343134
 1  9.10067211881188  0.95397328232823  0.34424205640564
 1  8.81662015071507 -0.79903540974097  0.57673553725373
 1  10.29409696109611 -0.13651111341134 -1.71793668316832
 1  9.13590857635763 -2.30409838633863 -1.76740266506651
 1  10.91728428412841 -2.30740752465247 -1.50041428532853
 1  9.61710459645965 -2.59293123512351 -0.00297973767377
 1  11.44388206910691  0.60864309450945  0.28717020452045
 1  11.60350340374037 -1.12738870017002  0.96320694229423
 1  12.72601592049205 -1.67878603980398 -1.19180684828483
 1  13.01876562906291 -0.10291960096010 -1.60786414771477
 1  13.83222465916592  0.50503305930593  0.93274061706171
 1  14.28407116021602 -1.14280388508851  0.90762727922792
 1  15.37547083558356  0.40712019701970 -1.33947830583058
 1  15.82325976887689 -2.41813210531053  0.03621216731673
 1  15.12521557225723 -1.99842221782178 -1.77391480658066
 1  16.57474710411041 -1.84375990089009 -1.24397586708671
 1  16.12659786048605  1.40067790149015  0.70100664496450
 1  16.57298174537454 -0.34388356345635  1.18784154535453
 1  18.29116005470547 -0.31767831523152 -0.47174051445144
 1  17.52440950545055  1.23751107000700 -1.19754333013301
 1  18.24709550215022  2.18782293999400  0.90026803210321
 1  18.80589775007501  0.62821700270027  1.64988498879888
 1  20.30217513021302  0.38078422662266 -0.26017895389539
 1  19.82007611421142  3.28056161806181 -1.35203879727973
 1  21.27539179127913  2.32092874567457 -1.65747711101110
 1  19.68524242864287  1.84901671247125 -2.08499546854685
 1  21.32394837003701  1.19699780888089  2.08351796899690
 1  22.12047375367537  2.30104133383338  0.54173914021402
 1  20.88762849274928  3.13395347864786  1.65535597609761

