%nproc=4
%Mem=2GB
# td=(NStates=1) CAM-B3LYP/6-31G(d,p) 

TD

0 1
12 -7.10427100010001  0.65210395849585 -0.04880719331933
 6 -4.88397301530153 -2.01898307670767  0.51733826652665
 6 -4.82915284418442  2.80650909820982  1.26833319821982
 6 -9.35838057355735  3.11744724022402 -0.45057791749175
 6 -9.45841615531553 -1.74483999499950 -0.72814924402440
 7 -5.02007543214321  0.36928674677468  0.66716713501350
 6 -4.29312901900190 -0.68656847884788  0.78593661686169
 6 -2.90918992439244 -0.45973539923992  1.22410276447645
 6 -3.01188462686269  1.07045971427143  1.63776450715071
 6 -4.36229322422242  1.48803955275528  1.07294432433243
 6 -2.95318040014001  1.26198848694870  3.18049945884588
 6 -1.91489495049505 -0.56227148854886  0.05931989028903
 6 -0.43530095269527 -0.39014336153615  0.48893302260226
 6  0.51118225542554 -0.70194370727073 -0.66166154665467
 8  0.33115435553555 -1.06787219481948 -1.72291862356236
 8  1.72206401690169 -0.37063445984598 -0.23962075097510
 7 -7.03007345524553  2.56562215201520  0.23223191869187
 6 -6.00427970697070  3.36686766256626  0.74482801640164
 6 -6.43728098119812  4.72767705710571  0.81514220142014
 6 -7.69509221622162  4.80104073557356  0.34560295159516
 6 -8.08167243884388  3.49557875317532 -0.00861831553155
 6 -5.51779973667367  5.85162762866287  1.25462022252225
 6 -8.51139893749375  5.98339937363736  0.24938192359236
 6 -8.35466935823582  7.24837095569557  0.90379662946295
 7 -9.01099337193719  0.72743560466047 -0.60876491019102
 6 -9.82268852855285  1.85710566366637 -0.73348967306731
 6 -11.21665076167617  1.52934127322732 -1.14113583308331
 6 -11.24014641854185  0.09353471757176 -1.21540025402540
 6 -9.80635631633163 -0.34989696399640 -0.83541855795580
 6 -12.21635045874587  2.49438000900090 -1.44971174597460
 6 -12.39321386768677 -0.68739614971497 -1.66331714021402
 6 -12.32949043744375 -1.13924633583358 -3.10156527512751
 7 -7.25407487578758 -1.36443605720572 -0.06628130513051
 6 -8.28840908070807 -2.20740591269127 -0.31193614881488
 6 -7.97379352495250 -3.69290755825583 -0.41186846414641
 6 -6.59651353545355 -3.53353769076908 -0.08500023192319
 6 -6.25702829922992 -2.13763204450445  0.07896070027003
 6 -8.72092956035604 -4.83571641404140 -0.85920439883988
 6 -5.32940741104110 -4.37058094159416  0.20075294789479
 8 -5.29358819671967 -5.60850533393339  0.27842487318732
 6 -4.22186576597660 -3.37162295209521  0.55415528082808
 6 -3.64661529242924 -3.67184240554055  1.94606497939794
 8 -3.85577717831783 -3.18760549674967  3.04542722382238
 8 -2.84990618431843 -4.76524124652465  1.75217379827983
 6 -2.23767435533553 -5.29585381448145  3.02270720622062
 6  2.71115362706271 -0.64688248284828 -1.21020222062206
 6  4.15620770977098 -0.34421259755976 -0.64423457245725
 6  5.10123360776078  0.34092035743574 -1.20456022872287
 6  5.11056947994799  1.07708035733573 -2.52512667796780
 6  6.35756008880888  0.33709555975598 -0.35041152635264
 6  7.68309584748475 -0.27480782768277 -1.08071502200220
 6  8.88770064266427 -0.21151628202820 -0.27061887468747
 6  10.22538316281628 -0.65537260896090 -0.91936290679068
 6  10.13862056225623 -2.13123405950595 -1.32417588258826
 6  11.38996187308731 -0.38476225702570  0.00571143974397
 6  12.78798370607061 -0.46709076017602 -0.71830185308531
 6  13.91193066146615 -0.02209341214121  0.14851191869187
 6  15.38613473837384 -0.17193092219222 -0.48393663346335
 6  15.70492216111611 -1.61725935973597 -0.84636425412541
 6  16.41957606350635  0.52556691669167  0.41646615381538
 6  17.87253184258426  0.66396779517952 -0.11081689628963
 6  18.78768913841384  1.31318953595360  0.82493292629263
 6  20.25150381958196  1.42772310581058  0.35114987818782
 6  20.49571092489249  2.10495879307931 -0.97394838753875
 6  21.17147807860786  2.18217115341534  1.45205056845685
 1 -4.13826531103110  3.51240676207621  1.63519810671067
 1 -9.98723911661166  4.02456329132913 -0.66349174067407
 1 -10.37928121752175 -2.51747108790879 -0.73999065126513
 1 -2.49982643954395 -1.13243155705571  1.93127381858186
 1 -2.22289589478948  1.56754033663366  0.92958360876088
 1 -2.00672513001300  1.08757921082108  3.44524823832383
 1 -3.36889194919492  2.25465952345235  3.54557672307231
 1 -3.63496693939394  0.37265194919492  3.68342075487549
 1 -2.08272075697570 -1.57349731013101 -0.46238014721472
 1 -2.05742741524152  0.21445869626963 -0.68067810741074
 1 -0.16670018741874  0.42439705360536  0.90355075417542
 1 -0.24944274627463 -1.25697021222122  1.30636459165917
 1 -5.69456823222322  6.80573921802180  0.78337404660466
 1 -5.77452444184418  6.08324168726873  2.34993129022902
 1 -4.48828278427843  5.76228739513951  0.94674785038504
 1 -9.41809386188619  6.02030817891789 -0.42311253945395
 1 -8.96079729562956  8.18760949984998  0.71650127192719
 1 -7.62353181898190  7.30356675617562  1.66647503300330
 1 -11.90748485358536  3.15699602560256 -2.22944594929493
 1 -13.26420608980898  2.01919581078108 -1.78654984648465
 1 -12.47946967806781  3.10660931563156 -0.73301454545455
 1 -12.59687446584659 -1.57881732683268 -1.18005296019602
 1 -13.39987870677068 -0.18844558135814 -1.71263679117912
 1 -13.17854420702070 -1.82856754295429 -3.46399628412841
 1 -12.22881644584458 -0.24393893149315 -3.75239873557356
 1 -11.37316359565957 -1.60583545064506 -3.10953957395740
 1 -9.22253185618562 -4.79320006290629 -1.89262252635263
 1 -8.03855322012201 -5.67290729492949 -0.61921153415341
 1 -9.55499538443844 -5.03871889318932 -0.10824264686469
 1 -3.34321501740174 -3.66765001570157 -0.19545481698170
 1 -1.57581574807481 -4.49446588628863  3.37330024532453
 1 -3.24011361996200 -5.37634925252525  3.69974281318132
 1 -1.58977708920892 -6.09452872607261  2.61486543944394
 1  2.65351465556556 -1.74564640054005 -1.61442540754075
 1  2.57585506310631  0.05939021862186 -2.08890204240424
 1  4.21660256585659 -0.63305552075208  0.40690390639064
 1  4.10798976247625  0.94489319971997 -2.93181155085509
 1  5.29658507020702  2.03634389328933 -2.22992946114611
 1  5.85880318791879  0.74926603410341 -3.32699143014301
 1  6.47645970887089  1.56468046804680 -0.33991134833483
 1  6.26243036243624  0.04059602220222  0.70570028672867
 1  7.57027441214121 -1.41485072027203 -1.08657998159816
 1  7.77906034193419 -0.06200299219922 -2.11839476307631
 1  8.91485353695369  0.76323420842084  0.04567219941994
 1  8.92810129882988 -0.71497700390039  0.68214607830783
 1  10.32926047744775 -0.05184264656466 -1.90092498199820
 1  9.53852883838384 -2.23094107060706 -2.10140606540654
 1  11.09840239593959 -2.39125590949095 -1.67283152705271
 1  10.05207809380938 -2.53277521952195 -0.46607604730473
 1  11.29206688758876  0.55996822702270  0.49500098759876
 1  11.29815286868687 -1.21268723002300  0.76044666626663
 1  12.73989730863086 -1.44747290849085 -1.11398906650665
 1  12.81098485098510  0.16861755275528 -1.44117747904790
 1  13.69226066276628  0.91435399139914  0.54429177217722
 1  14.03426617971797 -0.31169077377738  1.17666418291829
 1  15.59554284278428  0.46298578357836 -1.44208856685669
 1  15.78548599149915 -2.15150544264426  0.16569511561156
 1  15.11434448514852 -2.07200957655766 -1.73506092119212
 1  16.80400002940294 -1.50259578447845 -1.13300476997700
 1  16.12514771547155  1.59580741444144  0.66232277657766
 1  16.33321776897689  0.08578940384038  1.28052081328133
 1  18.15099603830383 -0.41396794419442 -0.34353769416942
 1  17.94492155665567  1.12535985488549 -1.17453102890289
 1  18.43490428302830  2.28400255795580  1.06939494479448
 1  18.80841800210021  0.72879706070607  1.75452545284528
 1  20.54530944364436  0.29090523872387  0.26996406040604
 1  20.46048015461546  3.20373393529353 -0.76921051445145
 1  21.67257150925093  2.02004865766577 -1.53349471277128
 1  19.57174107850785  1.56282809360936 -1.53755072407241
 1  20.89856583178318  1.85645375447545  2.38593821102110
 1  22.08228993529353  2.41606283598360  0.98885385168517
 1  20.91523125302530  3.10519060236024  1.63419385988599

