%nproc=4
%Mem=2GB
# td=(NStates=1) CAM-B3LYP/6-31G(d,p) 

TD

0 1
<<<<<<< HEAD
12 -7.19024959795980  0.66144489258926  0.13095078247825
 6 -4.86167078507851 -1.89522070047005  0.43676020872087
 6 -4.87788771767177  2.90922937023702  1.27250361526153
 6 -9.51269600510051  3.10486598209821 -0.38922178187819
 6 -9.47449776347635 -1.68625413641364 -1.01444787388739
 7 -5.12428585318532  0.49583940204020  0.74584500280028
 6 -4.37218692479248 -0.65579540154015  0.78302632583258
 6 -2.89465847124712 -0.38662808850885  1.21421177537754
 6 -3.03988742714271  1.11069373767377  1.67596832753275
 6 -4.43990098499850  1.55470621942194  1.16591362126213
 6 -2.91965704780478  1.28697098519852  3.15039644854485
 6 -1.92415587658766 -0.69937519891989  0.09401335963596
 6 -0.44188161076108 -0.49266361356136  0.54109823912391
 6  0.53602473967397 -0.69462297519752 -0.57234261476148
 8  0.20099133923392 -1.06889229682968 -1.66266259795980
 8  1.85346715721572 -0.46159355575558 -0.16386317521752
 7 -7.28885933383338  2.62150774057406  0.37584628012801
 6 -6.20153943294329  3.30216119191919  0.91636517011701
 6 -6.49538679177918  4.74758904830483  0.89001968916892
 6 -7.80346305330533  4.84444507600760  0.32420081138114
 6 -8.18758302990299  3.43933312861286  0.07903044934493
 6 -5.51029898659866  5.80851331723172  1.36854161466147
 6 -8.56620441804180  6.06677771147115  0.02681966736674
 6 -8.54369826112611  7.25701181978198  0.78651490129013
 7 -9.17646991959196  0.70079294039404 -0.55527956165617
 6 -9.97963422312231  1.78332828592859 -0.77066339043904
 6 -11.26549564616462  1.40920926002600 -1.11657337683768
 6 -11.24660706460646  0.03497886198620 -1.31243995799580
 6 -9.93889957065707 -0.38944091839184 -0.93319833593359
 6 -12.37305612931293  2.32672324332433 -1.59230600540054
 6 -12.31106565286529 -0.71646905700570 -1.93660446894689
 6 -12.19113660206021 -0.98876128732873 -3.49862498109811
 7 -7.26365583388339 -1.42771238483848 -0.03971864886489
 6 -8.18658889868987 -2.10435560766077 -0.60368532373237
 6 -7.75736188178818 -3.55442370987099 -0.57121439873987
 6 -6.49072295639564 -3.56205054205421 -0.10830256215622
 6 -6.14714731113111 -2.13762204350435  0.21582438663866
 6 -8.59245671307131 -4.85610845324532 -0.89356783518352
 6 -5.25177964826483 -4.30683456695670  0.15629850245024
 8 -5.26303514141414 -5.56631111451145  0.26562359305931
 6 -4.13540712011201 -3.25044083388339  0.47782764806481
 6 -3.60067069796980 -3.63571879317932  1.93228360126013
 8 -3.90054165476548 -3.14732146834683  2.92775545664566
 8 -2.83762495619562 -4.71685640804080  1.82438101900190
 6 -2.21736232413241 -5.19205343444344  3.03301823732373
 6  2.86912942464246 -0.74697249184918 -1.13372457285729
 6  4.26383847284728 -0.51043922022202 -0.50490063906391
 6  5.20486397079708  0.23081934733473 -0.89150892359236
 6  5.08901732473247  1.15609825912591 -2.07791195649565
 6  6.51550588338834  0.27375922612261 -0.09721620682068
 6  7.70281781968197 -0.48827917481748 -0.73858080858086
 6  8.95881775437544 -0.23705883628363 -0.06885869866987
 6  10.22996362086208 -0.66439351105110 -0.74828579907991
 6  10.18613531373137 -2.14423535963596 -1.19735320032003
 6  11.52921579847985 -0.32976675747575  0.06306717531753
 6  12.75647055475548 -0.47192124322432 -0.66145616851685
 6  14.02813228162816 -0.07400860366037  0.26845391289129
 6  15.37136326122612 -0.12790651975198 -0.53034127392739
 6  15.65340700960096 -1.47099473327333 -1.06022564026403
 6  16.40872497839784  0.54802916291629  0.33920842804280
 6  17.80017460686069  0.65643704210421 -0.29240505510551
 6  18.84637500700070  1.42429064606461  0.51589202220222
 6  20.33962263146314  1.32560289378938  0.11114587778778
 6  20.51058241204121  2.03397169436944 -1.25190618331833
 6  21.10650158095810  1.98037097339734  1.14686004940494
 1 -4.16239772427243  3.65461098249825  1.48291287818782
 1 -10.02733312601260  3.93201403640364 -0.33830922242224
 1 -10.31476476587659 -2.52627196799680 -1.41018767096710
 1 -2.88474493139314 -1.11193950785079  1.99219991119112
 1 -2.05256886208621  1.61788537113711  1.35659631003100
 1 -1.80059451695170  1.23474392729273  3.67016072957296
 1 -3.25441050105011  2.28736279377938  3.31985415081508
 1 -3.42478592129213  0.62180686468647  3.75164757755776
 1 -2.01417390229023 -1.67213717411741 -0.35152906210621
 1 -2.07574924742474 -0.18613136273627 -0.81386142574257
 1 -0.33045656305631  0.39847446134613  0.68556895599560
 1 -0.28599640164016 -0.94486900210021  1.46571052625263
 1 -5.92043081848185  6.88437708180818  0.89521523072307
 1 -5.86268325772577  6.07667103020302  2.52226852395240
 1 -4.37925188118812  5.66496766316632  1.08688186378638
 1 -9.29230128262826  6.06883303140314 -0.80435066326633
 1 -9.30280149604960  8.08896963586359  0.51354097589759
 1 -7.79845931173117  7.57743414291429  1.56873525902590
 1 -12.09951405650565  3.05792611861186 -2.23980698539854
 1 -13.31531120032003  1.67883177437744 -1.67107829932993
 1 -12.70383211431143  3.01184983968397 -0.75151639563956
 1 -12.15432021042104 -1.79489893499350 -1.48250320522052
 1 -13.21957067596760 -0.11786852365237 -1.71372690019002
 1 -13.19593594619462 -1.56558124432443 -3.75646553105311
 1 -12.21139470367037 -0.00189472707271 -4.15624912061206
 1 -11.06404268356836 -1.38658352545255 -3.90086870687069
 1 -9.12970257325733 -4.75770651355136 -1.83191645574557
 1 -7.98150751555155 -5.87181718591859 -0.85577519051905
 1 -9.26788667356736 -5.02042706400640  0.13267144454445
 1 -3.38820951685169 -3.48582183288329 -0.16985225672567
 1 -1.77725589208921 -4.26235267496750  3.61564447974798
 1 -2.96419602820282 -5.72285390299030  3.70524336323632
 1 -1.27727583908391 -5.78479775297530  2.74226817971797
 1  2.90076938103810 -1.92049388528853 -1.41473543854385
 1  2.58121559915992 -0.17472319271927 -2.06962011421142
 1  4.00052095769577 -0.86476869206921  0.55699891589159
 1  4.02190115361536  1.49313802420242 -2.24769313901390
 1  5.71051646334633  2.04302456135614 -1.75173164136414
 1  5.39535684328433  0.91975308280828 -3.04866359735974
 1  6.79733179607961  1.34193819381938  0.22274491729173
 1  6.35335945534553 -0.26942497989799  0.85528524522452
 1  7.29601698639864 -1.51248048324832 -0.78314963856386
 1  7.71364380028003 -0.25327211911191 -1.90538346194620
 1  9.08364041564156  0.79232711771177  0.09279691189119
 1  9.01681016971697 -0.84437994419442  0.87491535523552
 1  10.34147169856986 -0.13797125942594 -1.68778366786679
 1  9.44577956345634 -1.96960493699370 -2.01393731853185
 1  11.13963651935194 -2.48952573647365 -1.53582782668267
 1  9.88092097809781 -2.67530947294729 -0.35591503120312
 1  11.43356103700370  0.80716294649465  0.34692618011801
 1  11.72414546794680 -0.97232319361936  0.84367498909891
 1  12.93146646554655 -1.47801596279628 -0.96980464806481
 1  13.04542829532953  0.00392108310831 -1.52512587388739
 1  13.75283672037204  1.01235379137914  0.76521386438644
 1  14.09014176727673 -0.84652425712571  1.16175269176918
 1  15.35626891539154  0.69879936493649 -1.49038339633963
 1  15.40583802670267 -1.94136442854285 -0.08237969186919
 1  15.08094114481448 -1.79905228082808 -1.80320773587359
 1  16.82293192259226 -1.50393591849185 -1.14381585108511
 1  16.15428062876288  1.40967880158016  0.96146269056906
 1  16.62877732493249 -0.20033920902090  1.20791355255526
 1  18.28351929062906 -0.20107665506551 -0.69777311771177
 1  17.53347041154116  1.20182750165017 -1.21389496529653
 1  18.63158395099510  2.50655481318132  0.66536454175418
 1  18.78152531283128  0.85111929292929  1.49338933923392
 1  20.65339025172517  0.39707585578558 -0.05301823782378
 1  20.19691379797980  3.11108467036704 -1.21234482788279
 1  21.49056330843084  2.12268892169217 -1.65877724102410
 1  19.88591249564957  1.62893470427043 -2.01320828982898
 1  20.99748572377238  1.63086119521952  2.26312592979298
 1  22.29393109940994  1.90551178087809  1.00446541284128
 1  20.78046777667767  3.07191727502750  1.36301674217422
=======
12 -7.14566513951395  0.61956070417042  0.14304199159916
 6 -4.87160177817782 -1.96362754115412  0.50590712341234
 6 -4.69568949784979  2.78628707600760  1.10382674757476
 6 -9.31197593309331  3.11253674917492 -0.48327118681868
 6 -9.58872918661866 -1.73807931893189 -0.83394982408241
 7 -5.12883630823082  0.42821263936394  0.71977239553955
 6 -4.40632033813381 -0.68373819581958  0.76601462466247
 6 -2.92337134253425 -0.47109653535354  1.12202255645565
 6 -2.95696913531353  1.03152582088209  1.46159689038904
 6 -4.39362635753575  1.49765051385139  1.10146717661766
 6 -2.84687977007701  1.32866515461546  3.04470587948795
 6 -1.83922738373837 -0.70336559795980  0.08793275157516
 6 -0.51377880048005 -0.48220256745675  0.59879400870087
 6  0.53508464566457 -0.66747025992599 -0.45423080358036
 8  0.26048728882888 -1.04659006660666 -1.65004133583358
 8  1.87694950545054 -0.43626102250225 -0.08191498039804
 7 -7.06347679557956  2.65330091989199  0.22540123562356
 6 -5.99043832283228  3.36292726852685  0.63797733133313
 6 -6.33640089318932  4.69968425782578  0.68207889508951
 6 -7.63362606960696  4.84600523202320  0.28708710001000
 6 -8.04130840244025  3.50496969226923 -0.03713116681668
 6 -5.42730068676868  5.84185665156516  1.15520028052805
 6 -8.38337613521352  6.08927996169617  0.04344132953295
 6 -8.33589748104811  7.31449756835684  0.76056230603060
 7 -9.09440171277128  0.68565142624262 -0.48462249594960
 6 -9.86495275497550  1.82358231133113 -0.64165048914891
 6 -11.17019611621162  1.49760809990999 -1.14667638713871
 6 -11.28423082698270  0.14870023412341 -1.11953066706671
 6 -9.85810149084909 -0.38842081638164 -0.81338635473547
 6 -12.41438026172617  2.49569014001400 -1.38861563636364
 6 -12.41228577487749 -0.66806421652165 -1.48532934143414
 6 -12.50806829522952 -1.09564197539754 -2.99933505210521
 7 -7.26995646394639 -1.40171978557856 -0.16758143514351
 6 -8.37654789458946 -2.21195636773677 -0.55475043024302
 6 -7.93781992759276 -3.62531079857986 -0.48060533783378
 6 -6.55018890299030 -3.50267460446045 -0.20516224812481
 6 -6.19435203160316 -2.11734001530153  0.12408521272127
 6 -8.75013248064806 -4.83825666806681 -0.86662514091409
 6 -5.39856432673267 -4.35063894739474  0.02617549014901
 8 -5.22388122602260 -5.55530001340134  0.12637966866687
 6 -4.21710528992899 -3.34566035583558  0.45878574387439
 6 -3.47584821572157 -3.73088831013101  1.80586095899590
 8 -3.67008860946095 -3.25720245644564  2.87546022712271
 8 -2.67173836753675 -4.78747346974697  1.62808138903890
 6 -2.16328691659166 -5.29488371747175  2.90335527102710
 6  2.81164367606761 -0.71307910251025 -1.02086328672867
 6  4.09051114011401 -0.46356453275328 -0.46080622962296
 6  5.12764624902490  0.24060032543254 -0.82800257295730
 6  5.06913533653365  0.99829247854786 -2.05794996029603
 6  6.50028436123612  0.43020487068707 -0.18919540474047
 6  7.63640117801780 -0.21978232513251 -0.91395834633463
 6  9.07172904550455  0.00284515411541 -0.21331314411441
 6  10.18241886638664 -0.62237930963096 -0.83068403890389
 6  9.95986268646865 -2.16753768986899 -1.33732719771977
 6  11.41446432333233 -0.42850663146315 -0.05976510791079
 6  12.73252816051605 -0.54006805790579 -0.62513253615362
 6  13.97758722712271 -0.24419562236224  0.24707177467747
 6  15.38197432233223 -0.32125585468547 -0.45232347214721
 6  15.84769643854385 -1.71472910671067 -0.82890250795080
 6  16.37461156705671  0.40691505150515  0.40728523572357
 6  17.79927451685169  0.59166056445645 -0.23118893349335
 6  18.69363973347335  1.48512672967297  0.73826425942594
 6  20.15126379557956  1.60319065256526  0.28198296149615
 6  20.16823817761776  2.21140943814381 -1.11895288798880
 6  21.02593352415242  2.29268220452045  1.22851821522152
 1 -4.01175265976598  3.57510303170317  1.47713230013001
 1 -10.00415080778078  4.05582641764176 -0.73844923642364
 1 -10.23283657305731 -2.55577491829183 -0.95412206440644
 1 -2.70944740164016 -0.99112742664266  2.02131282248225
 1 -2.18901250645065  1.62234581718172  0.94468511891189
 1 -1.76995145264526  0.81812226512651  3.26918063156316
 1 -2.98392345234523  2.31505556305631  3.27739990539054
 1 -3.41286472917292  0.58646333033303  3.64304671747175
 1 -1.81293377827783 -1.77378733913391 -0.26166007520752
 1 -2.05424709720972  0.11121837223722 -0.78688872847285
 1 -0.38119163656366  0.59534414831483  0.99686008510851
 1 -0.21917971997200 -1.32219673487349  1.48318227342734
 1 -5.85130390579058  6.99253789788979  0.94440014921492
 1 -5.52374936433643  5.66680004310431  2.42941923902390
 1 -4.17152110811081  5.71676284268427  0.97774094969497
 1 -9.16316836933694  6.22955910401040 -0.78150837903790
 1 -9.07501871777178  8.10401114001400  0.33030265206521
 1 -7.73417288308831  7.45436183568357  1.65249363486349
 1 -11.93430753585359  2.99677000300030 -2.10060306500650
 1 -13.33784345354535  2.04053794499450 -1.48198939043904
 1 -12.57664939603960  3.22803145784578 -0.52305354935494
 1 -12.67500227862786 -1.57503694879488 -0.86359131403140
 1 -13.25265398429843  0.00791405460546 -1.08107363486349
 1 -13.33652000460046 -1.97946263246325 -3.19148903340334
 1 -12.73875743994400 -0.33297783538354 -3.72956645234523
 1 -11.45331161046105 -1.52699756685669 -3.21903052305231
 1 -9.29758936193620 -4.48080882378238 -1.97318058215822
 1 -8.08488785358536 -5.90732073627363 -0.69240885388539
 1 -9.58813869876988 -4.82719774107411 -0.20197201980198
 1 -3.59419011491149 -3.43702695339534 -0.38190346184618
 1 -1.59647781428143 -4.55549198889889  3.43387630293029
 1 -3.09602921152115 -5.62136375397540  3.51053389228923
 1 -1.39832794429443 -6.01787106030603  2.65151910481048
 1  2.76196550065006 -1.76328816471647 -1.51947591259126
 1  2.58619609720972 -0.22212793319332 -1.97424057625763
 1  4.18443934953495 -0.99883209840984  0.55755897189719
 1  4.04305326882688  1.32603131353135 -2.46658502820282
 1  5.57030244194419  2.21018127702770 -2.01480794899490
 1  5.56846415401540  0.74554566206621 -3.07545627662766
 1  6.49072113501350  1.57938193819382  0.06702934573457
 1  6.59508362776278 -0.01268930633063  0.84932464916492
 1  7.35797318201820 -1.39827906310631 -1.14672599619962
 1  7.49209164506451  0.15282849094909 -2.12409533313331
 1  9.35243729532953  1.04277216221622 -0.10454282208221
 1  8.83707219591959 -0.38887439363936  0.94753261696170
 1  10.40967851925192  0.00757329502950 -1.85092998249825
 1  9.05841082658266 -2.24919289578958 -1.75923184798480
 1  10.86329888558856 -2.41380816471647 -1.68994323822382
 1  9.84605749174917 -2.95095703770377 -0.34435387508751
 1  11.33488116901690  0.66111834203420  0.49429091659166
 1  11.30805385878588 -0.96499246054605  0.98820944254425
 1  12.83516683558356 -1.63363152435244 -0.99849751735174
 1  12.64195794829483  0.00168085908591 -1.62839620092009
 1  13.71320275697570  0.85933848984899  0.36984432743274
 1  13.92111486458646 -0.75920552525252  1.19487600410041
 1  15.49549283778378  0.14048353335334 -1.51792615061506
 1  16.00823826672667 -2.40562085418542  0.20818936503650
 1  15.04375742644264 -2.11815419101910 -1.52321973707371
 1  16.79875950535054 -1.72894841974197 -1.34335580508051
 1  15.94619982068207  1.28268610231023  0.58312485678568
 1  16.48930337753775  0.01403222812281  1.48044080528053
 1  18.37097803650365 -0.30853740114011 -0.51277461786179
 1  17.68927599209921  1.15978329722972 -1.08553212901290
 1  18.15031582418242  2.42634679237924  0.82881088638864
 1  18.62435959625963  0.94765894689469  1.87887788808881
 1  20.55907081978198  0.67308345654565 -0.04151708770877
 1  19.97231133773377  3.24018758065807 -1.15602919631963
 1  21.27348160026003  2.48035468826883 -1.32749411271127
 1  19.59842374677468  1.80033184398440 -1.79582655165517
 1  21.01852782798280  1.88245635473547  2.23250286748675
 1  22.02304401070107  2.27994922462246  1.27931289758976
 1  20.60196992689269  3.26033611691169  1.50758119861986
>>>>>>> 8e03b5b5abfc0030b3aa597dc0de36371bfbd096

