%nproc=4
%Mem=3GB
# td=(NStates=1) iop(3/107=0140000000,3/108=0140000000) CAM-B3LYP/6-31G(d,p) 

TD

0 1
12 -7.13206789848985  0.53134151765176  0.04440081008101
 6 -4.82722153865387 -1.97318454905491  0.44475987838784
 6 -4.78884491509151  2.81665038293829  1.24034413961396
 6 -9.47186395089509  3.11382893589359 -0.46730920622062
 6 -9.57939403740374 -1.71043280898090 -0.97977478237824
 7 -5.05448247944794  0.44035012561256  0.83872169616962
 6 -4.30544279157916 -0.74445558875888  0.85889378407841
 6 -2.83294951555155 -0.38625702370237  1.21341701080108
 6 -2.91426465336534  1.13976267786779  1.75668194749475
 6 -4.35990622532253  1.50599525062506  1.26173056695670
 6 -3.03053923472347  1.15478829812981  3.27459277387739
 6 -1.88378410811081 -0.53901989118912 -0.00231642134213
 6 -0.42696840604060 -0.21870511851185  0.44840822312231
 6  0.45676759996000 -0.60225684758476 -0.66758654875488
 8  0.09822003880388 -0.94886866456646 -1.72296969006901
 8  1.71318991739174 -0.36885682408241 -0.25836122372237
 7 -7.08373601700170  2.59894310421042  0.34718564266427
 6 -6.10293043684368  3.33434720212021  0.77930380648065
 6 -6.29595450385038  4.70074693829383  0.66478473717372
 6 -7.62377716301630  4.77671947714772  0.14793091949195
 6 -8.14550407790779  3.47033397219722  0.00279827842784
 6 -5.39572160606061  5.86523599729973  0.98860901610161
 6 -8.29616962496249  6.02728299789979  0.13242385488549
 6 -8.17612602260226  7.20751990169017  0.85482954225423
 7 -9.18577761886189  0.68305529992999 -0.44962153605361
 6 -9.89678716501650  1.86014933923392 -0.68075088858886
 6 -11.23276722942294  1.48937838233823 -1.10769562926293
 6 -11.33717320452045  0.08989653545355 -1.16046607490749
 6 -9.99425702930293 -0.35662585598560 -0.95778798009801
 6 -12.45647658535854  2.41909715111511 -1.09657911061106
 6 -12.46100989388939 -0.76661278507851 -1.60533986458646
 6 -12.30648255715572 -1.22318251055105 -3.04447509870987
 7 -7.26389935233523 -1.40116495219522 -0.23815649074907
 6 -8.27506183248325 -2.21804034953495 -0.62224380428043
 6 -7.82571461126113 -3.66825737713771 -0.58840914071407
 6 -6.46274406490649 -3.60210319241924 -0.14912699439944
 6 -6.15294902660266 -2.19677763356336  0.00951278667867
 6 -8.73273561306131 -4.88962506090609 -0.78100148324832
 6 -5.29337480038004 -4.38129169256926  0.20705567966797
 8 -5.12988398069807 -5.64423128012801  0.39984593319332
 6 -4.11878638123812 -3.29885733313331  0.67863618521852
 6 -3.52798697549755 -3.61346928962896  1.88741470997100
 8 -3.83142592599260 -3.06843420132013  2.89518287648765
 8 -2.69795514831483 -4.71258987748775  1.78916795429543
 6 -2.12720167716772 -5.03999920582058  3.08667606800680
 6  2.79980630103010 -0.56410469936994 -1.26102962016202
 6  4.08427931313131 -0.29691495939594 -0.56162872567257
 6  5.03428892019202  0.42971949995000 -1.07177005400540
 6  4.98591231683168  1.18428610391039 -2.34910904590459
 6  6.48496477517752  0.45402601860186 -0.36407693209321
 6  7.64265571817182 -0.25574412241224 -1.05949627832783
 6  8.82726043764376 -0.05317713381338 -0.33107921032103
 6  10.20843630423042 -0.57620928412841 -0.97544326432643
 6  10.01076435303530 -1.98912679257926 -1.56721368736874
 6  11.38882354615462 -0.33249814091409 -0.09479744224422
 6  12.75198293379338 -0.59174920842084 -0.69220672577258
 6  14.00589186098610 -0.27798351265127  0.14270068166817
 6  15.34386037703770 -0.26417550115012 -0.50719637213721
 6  15.68889516051605 -1.57103549184918 -1.15013683998400
 6  16.37533452615262  0.22410892819282  0.43174790949095
 6  17.81193878157816  0.56098982858286 -0.15460198719872
 6  18.75316573517351  1.30714879337934  0.85463872057206
 6  20.25247805220522  1.28536796929693  0.44866157215722
 6  20.43489633543354  2.32869017411741 -0.67804250015001
 6  21.23510857785778  1.73657535743574  1.64195813581358
 1 -4.08716908040804  3.52159541094109  1.72113820962096
 1 -10.16874899819982  4.02687496199620 -0.38726325252525
 1 -10.25014943904390 -2.54052958805881 -1.38547636703670
 1 -2.55559284648465 -1.06333653635364  1.87382387308731
 1 -2.25001846814681  1.63448550965097  1.18398204720472
 1 -2.18977206360636  0.60973007940794  3.63299363676368
 1 -3.28873598269827  2.06460568336834  3.79398742094209
 1 -3.86031883238324  0.43845900020002  3.73406509170917
 1 -1.95832095109511 -1.51334200500050 -0.38901690879088
 1 -2.20244661366137  0.26721434123412 -0.81269800440044
 1 -0.31298672737274  0.61731131843184  0.95111897489749
 1 -0.46800522082208 -1.14076484308431  1.26745020332033
 1 -5.57534171187119  6.58772628462846  0.11573140444044
 1 -5.47483895519552  6.18448132953295  1.95811782428243
 1 -4.24822966756676  5.59890415841584  0.87322805540554
 1 -9.00997125692569  6.03651703370337 -0.81505285798580
 1 -8.94044310801080  8.12228194919492  0.71657143284328
 1 -7.58981691379138  7.22170900730073  1.77061602190219
 1 -12.22080255325533  3.00810995809581 -2.04851068256826
 1 -13.33194049174917  1.86949569196920 -1.17361308950895
 1 -12.54017505020502  3.26765409950995 -0.30165060456046
 1 -12.35209717461746 -1.61573249604961 -0.78825232613261
 1 -13.45322762186219 -0.19509221972197 -1.58990474487449
 1 -13.01344654385439 -1.79085274737474 -3.33742470057006
 1 -12.41733213891389 -0.44908337963796 -3.80763974237424
 1 -11.57514235363536 -1.70176120332033 -3.27387566576658
 1 -9.39474409300930 -4.93261976277628 -1.74780084308431
 1 -8.19689407460746 -5.71781773507351 -0.63324327942794
 1 -9.51496567556756 -4.88204665306531 -0.22639490819082
 1 -3.36706422492249 -3.63713031863186 -0.04869260736074
 1 -1.66190957855786 -4.31897411081108  3.47402912051205
 1 -2.88835527282728 -5.66817634253425  3.61424246194620
 1 -1.39584010451045 -5.89718050285028  2.74449781088109
 1  2.71942999779978 -1.53745036783678 -1.54035548424842
 1  2.64078051935193  0.02851093589359 -2.03820487798780
 1  4.03029351605161 -0.62032044584458  0.50341174137414
 1  4.00453576507651  1.42814835753575 -2.63445393109311
 1  5.38873580578058  2.21781220512051 -2.29739717811781
 1  5.67443701220122  0.63197438833883 -3.00199645654565
 1  6.63594177807781  1.64632461306131 -0.18744913101310
 1  6.43308118021802  0.08261092439244  0.63464966046605
 1  7.27772989578958 -1.22139281228123 -1.28109286648665
 1  7.75245780428043  0.38386748974898 -1.87882870577058
 1  9.01892793709371  0.91384088158816  0.02329475757576
 1  8.68518163896390 -0.47971632433243  0.69999612301230
 1  10.47564219601960  0.14479062686269 -1.93502866086609
 1  9.15284489358936 -2.06770505400540 -2.33157153905391
 1  10.82658179877988 -2.06666006530653 -2.28220357845785
 1  9.72464466156616 -2.52342645734573 -0.48997639133913
 1  11.27206884848485  0.82852928632863  0.08925669646965
 1  11.59667726322632 -0.82772407000700  0.83117943804380
 1  12.69458741124112 -1.48315573487349 -1.18460073157316
 1  13.03682951285128 -0.01802686668667 -1.75128946264626
 1  13.83347476777678  0.63695905920592  0.98318314701470
 1  13.94666297689769 -1.06695307420742  0.99090146414641
 1  15.54359476087609  0.37983138013801 -1.42453372217222
 1  15.77883167996800 -2.41674101530153 -0.51951008650865
 1  14.94453609800980 -1.91752627262726 -2.00847222072207
 1  16.77720600020002 -1.40304120112011 -1.57780429372937
 1  16.15922919641964  1.12382071577158  1.08658457475748
 1  16.76161023882388 -0.57808409320932  1.10432892759276
 1  18.44121085878588 -0.33022953695370 -0.41706190179018
 1  17.60123743334334  1.25760465456546 -1.08607435103510
 1  18.29647870477048  2.32530379837984  1.09592153895390
 1  18.68872483498350  0.58519335883588  1.88360160566057
 1  20.59438927122712  0.25657665526553  0.13357925012501
 1  20.04296111461146  3.22345312181218 -0.50235241994199
 1  21.46253005380538  2.29584072617262 -1.33829181038104
 1  19.78658705630563  2.10572086228623 -1.58421680608061
 1  21.19707356085608  1.28182382328233  2.69233290209021
 1  22.27886577937793  1.68918938963896  1.30951760536054
 1  20.96993707220722  2.94340045724572  1.97395453215322

