%nproc=4
%Mem=3GB
# td=(NStates=1) iop(3/107=0140000000,3/108=0140000000) CAM-B3LYP/6-31G(d,p) 

TD

0 1
12 -7.13717840954095  0.58097648114811  0.15850222022202
 6 -4.88886770327033 -2.01739897049705  0.47826322872287
 6 -4.69685571617162  2.86302502040204  1.15929603480348
 6 -9.40246701120112  3.15856340934093 -0.42934540984098
 6 -9.50372647064706 -1.59346111181118 -0.96331313621362
 7 -5.12246927812781  0.41580767136714  0.81826965096510
 6 -4.32622486978698 -0.78723986718672  0.82920081478148
 6 -2.94355057565757 -0.43268166616662  1.20784645374537
 6 -2.91393462036204  1.03154185578558  1.64823110241024
 6 -4.32075230993099  1.50198484958496  1.03615800970097
 6 -3.03268944974497  1.15763858315832  3.22343765836584
 6 -1.93157888758876 -0.66137212641264  0.08145195549555
 6 -0.48267397659766 -0.50763401140114  0.48345172747275
 6  0.52309423262326 -0.81522814471447 -0.66347613771377
 8  0.23192340914091 -1.15830960866087 -1.79894728782878
 8  1.74975357375738 -0.44055399379938 -0.30453584118412
 7 -7.04006164956496  2.60406361626163  0.34988591269127
 6 -5.96502664646465  3.37394116151615  0.80040591669167
 6 -6.36908181658166  4.74785164876488  0.74378263696370
 6 -7.67437222252225  4.86035784098410  0.43644977137714
 6 -8.14267379487949  3.42834977377738  0.06565456405641
 6 -5.49193122702270  5.95357483118312  1.23678383358336
 6 -8.47355736373637  6.05321559115912  0.16885749824983
 6 -8.42226063606361  7.21317046674667  0.69178323762376
 7 -9.12065110621062  0.71257825222522 -0.68351492539254
 6 -9.84018150445044  1.87885120942094 -0.66057887138714
 6 -11.21126507920792  1.53046249074907 -1.13320818051805
 6 -11.26434592179218  0.17426497229723 -1.22129215751575
 6 -9.92543014661466 -0.30887108050805 -0.95240744204420
 6 -12.25260619831983  2.56897213861386 -1.17074652735274
 6 -12.34084787768777 -0.67464358815882 -1.68821815241524
 6 -12.25043695259526 -0.99914010631063 -3.21015166636664
 7 -7.19726268866887 -1.41286612231223 -0.25946862196220
 6 -8.23532785908591 -2.24550309580958 -0.58378995889589
 6 -7.79198123792379 -3.57550810221022 -0.53714401420142
 6 -6.52431022152215 -3.55134811691169 -0.13495557725773
 6 -6.16844057575758 -2.18453640944094  0.00965280068007
 6 -8.63504584408441 -4.78123422182218 -0.82344572767277
 6 -5.41500696359636 -4.35073863726373  0.21131610571057
 8 -5.27850884318432 -5.60631748874887  0.07752370097010
 6 -4.19129363196320 -3.32698014541454  0.67890621222122
 6 -3.59770394719472 -3.62160010271027  1.93827979647965
 8 -3.83881666506651 -3.08898625652565  3.03893725192519
 8 -2.86397174997500 -4.74585320382038  1.92134117161716
 6 -2.29108806580658 -5.14793999989999  3.13231063146315
 6  2.79711603200320 -0.73444173307331 -1.26873039023902
 6  4.06598748394839 -0.50171543944394 -0.60830339313931
 6  5.19223471477148  0.31647817581758 -0.98810168716872
 6  5.20147387298730  1.10320799609961 -2.21150528552855
 6  6.50131641034103  0.34747536353635 -0.20649117351735
 6  7.66418787138714 -0.19417796579658 -1.03403373207321
 6  8.95342305390539 -0.31012282838284 -0.09427552995300
 6  10.21468692929293 -0.73595525872587 -0.91433715371537
 6  10.21129440604060 -2.19305718561856 -1.38878584458446
 6  11.37336200000000 -0.32490738183818 -0.18112607510751
 6  12.73108084358436 -0.44316434993499 -0.75928343344334
 6  14.00271154295429 -0.19834554885489  0.22814922652265
 6  15.33442943394340 -0.29542862646265 -0.42165781828183
 6  15.73076934793479 -1.75479386768677 -0.80501232753275
 6  16.43896088878888  0.38374489178918  0.45488022272227
 6  17.88273586128613  0.64897862746275 -0.18415494249425
 6  18.75743616221622  1.25164324282428  0.84808806550655
 6  20.18035083948395  1.54484391689169  0.14903160916092
 6  20.04366721252125  2.55486279137914 -0.97237193309331
 6  21.12454752175217  2.01417311721172  1.28336227622762
 1 -4.07164752825283  3.65631888328833  1.42100819661966
 1 -10.05217734103410  3.94762703720372 -0.39751427762776
 1 -10.20363478757876 -2.33646918201820 -1.40745856525653
 1 -2.55602288948895 -1.18014821752175  2.04870136083608
 1 -1.96726019231923  1.56573863496350  1.10757440644064
 1 -1.96591967836784  0.87039614601460  3.62133247064707
 1 -3.12623973307331  2.19292851565156  3.70137816001600
 1 -3.62360516101610  0.54811996629663  3.59031071627163
 1 -2.14623974297430 -1.59767043784378 -0.37312531963196
 1 -2.34047041604160  0.01222884268427 -0.85726246084608
 1 -0.17390281898190  0.44994458175818  1.06726058905891
 1 -0.44888330863086 -1.33519428602860  1.07570102840284
 1 -5.54210838853885  6.85758327032703  0.76467629892989
 1 -5.90270174147415  6.17637051845185  2.46391840434043
 1 -4.34529937453745  5.60127439543954  1.23752448504850
 1 -9.49298955875588  5.89881326332633 -0.40610196289629
 1 -8.98445750945094  8.06509623062306  0.33051282698270
 1 -7.57937586968697  7.53085992239224  1.37134609490949
 1 -12.19402987598760  3.29370851795179 -1.94049988148815
 1 -13.11692899059906  2.14084282668267 -1.30647637583758
 1 -12.46560759345935  2.98350568466847 -0.18862930243024
 1 -12.48853081798180 -1.55699662246225 -0.97297079797980
 1 -13.32554485358536 -0.09764247474747 -1.44430018441844
 1 -13.24754995419542 -1.43558722082208 -3.57607856595659
 1 -12.11975238093809 -0.02115058635864 -3.74337331573157
 1 -11.49164400380038 -1.87549857705771 -3.48136641484148
 1 -9.09679429802980 -4.86440294109411 -1.84877094009401
 1 -7.97003138833883 -5.77771372467247 -0.51645160026003
 1 -9.50634481348135 -4.71415986438644 -0.35172744144414
 1 -3.50662818131813 -3.45588219381938 -0.26416415451545
 1 -1.78676206380638 -4.33743595699570  3.47570928852885
 1 -2.99619605690569 -5.37979750465047  3.96211724942494
 1 -1.71497201770177 -5.99490027482748  2.95504886598660
 1  2.64311236603660 -1.85561218401840 -1.50100154885489
 1  2.69122556385639  0.12733081788179 -2.06373743124312
 1  4.19408989568957 -0.95168358215822  0.32262366256626
 1  4.15507081858186  1.43740928362836 -2.70873135883588
 1  5.81859879207921  2.20592101600160 -2.16265370377038
 1  5.55775534403440  0.49768095899590 -3.14782103900390
 1  6.67665584948495  1.47074705530553  0.08840845474548
 1  6.39748762086209 -0.20242757945795  0.58269446494649
 1  7.62801492429243 -1.17315798879888 -1.46300105730573
 1  7.80969352785278  0.58367747074707 -1.83319414231423
 1  9.04593063736374  0.70631012851285  0.45676810491049
 1  8.70539366016602 -0.99251760446045  0.67897402080208
 1  10.17001163296330 -0.17665151735173 -1.79078423642364
 1  9.34025363446345 -2.27393567706771 -2.07492587448745
 1  11.08348748934893 -2.49008240754075 -1.86017137523752
 1  9.88436063316332 -2.88871298599860 -0.60833822752275
 1  11.23139478107811  0.72878931233123  0.07240501130113
 1  11.42050964646465 -0.80608190579058  0.65026134623462
 1  12.89990794329433 -1.51223864316432 -1.27613988548855
 1  12.78031386128613  0.26285122112211 -1.51529586328633
 1  13.97214863516352  0.99452481578158  0.68022285098510
 1  13.94917322792279 -0.94981136003600  0.96399877387739
 1  15.18581898329833  0.46719011601160 -1.35383665246525
 1  16.06283007980798 -2.27917725892589  0.14622648714872
 1  14.93465510991099 -1.99221374137414 -1.52990436393639
 1  16.55770405000500 -1.65100599759976 -1.38507502080208
 1  16.01542481598160  1.44712304600460  0.79083499979998
 1  16.41098517631763 -0.13901018581858  1.45759425412541
 1  18.29484622232223 -0.37918443244324 -0.02464265986599
 1  17.79541685128513  1.20113900800080 -1.08623436703670
 1  18.34742379927993  2.11020228822882  1.33440538733873
 1  18.98619458195820  0.46391123062306  1.79371261676168
 1  20.64544437673768  0.63706470407041 -0.25904001180118
 1  19.56804362286229  3.44985576207621 -0.53934611931193
 1  21.13761756255625  2.66016715881588 -1.14727270847085
 1  19.45757415501550  2.25808609880988 -1.76172455685569
 1  21.43888774227423  1.38441408230823  2.23035670447045
 1  22.27504539733973  2.07320779147915  0.80348700230023
 1  20.89230930943095  3.19506562376238  1.63388052475248

