%nproc=4
%Mem=3GB
# td=(NStates=1) iop(3/107=0140000000,3/108=0140000000) CAM-B3LYP/6-31G(d,p) 

TD

0 1
12 -7.13156784848485  0.62091047454745  0.11201757175718
 6 -4.89038785528553 -1.99290652125213  0.56645204760476
 6 -4.75318134873487  2.74666338423842  1.18555866106611
 6 -9.40852761726173  3.14578213121312 -0.51513398869887
 6 -9.58088418641864 -1.76614838053805 -0.92715952085209
 7 -5.01788882008201  0.40265635623562  0.74158198219822
 6 -4.38235048234824 -0.69951109430943  0.89277717241724
 6 -2.90506672727273 -0.42867126512651  1.30462613171317
 6 -3.01035426232623  1.03068176977698  1.74795107440744
 6 -4.31696193089309  1.49420407150715  1.23565795969597
 6 -2.76722290309031  1.18129094839484  3.30632594719472
 6 -1.95895162486249 -0.61814780398040  0.06010982128213
 6 -0.50841655085509 -0.53887713571357  0.62451583388339
 6  0.53112503570357 -0.75502212411241 -0.57260705080508
 8  0.18648886568657 -1.06025980368037 -1.66417381048105
 8  1.74809340774077 -0.33895383378338 -0.18664405200520
 7 -7.05788343174317  2.64830804070407  0.36325724982498
 6 -6.06724686848685  3.36704047144715  0.83254913101310
 6 -6.35260016841684  4.75464232783278  0.85388364706471
 6 -7.71450623592359  4.83984578977898  0.38065419181918
 6 -8.18671819931993  3.49942688148815  0.06079407800780
 6 -5.52128416231623  5.83243271697170  1.44867502270227
 6 -8.45473548154815  6.03740401000100  0.19645025752575
 6 -8.34963337333733  7.29750890059006  0.76481054035404
 7 -9.11619066016602  0.68907590199020 -0.69510608450845
 6 -9.80141762806281  1.84637796209621 -0.84617743124312
 6 -11.15833978667867  1.49364880938094 -1.36949180888089
 6 -11.23694318151815  0.16693423922392 -1.47092712101210
 6 -9.87872547614761 -0.33762395579558 -1.06178838013801
 6 -12.29792072977298  2.52086732813281 -1.50219967266727
 6 -12.30503429632963 -0.58719484328433 -1.87306663726373
 6 -12.16780868976898 -1.15752594489449 -3.33519417061706
 7 -7.19324228662866 -1.38037287298730 -0.29001167626763
 6 -8.27901222752275 -2.28139668516852 -0.47474905480548
 6 -7.90613265306531 -3.62518306970697 -0.31337163696370
 6 -6.57455524602460 -3.58189117121712  0.05800371867187
 6 -6.22575630733073 -2.22668062386239  0.09235107050705
 6 -8.64361670117012 -4.83007910631063 -0.64681806490649
 6 -5.40856631953195 -4.47485104850485  0.21945691979198
 8 -5.28750974327433 -5.66696355335534  0.05254120272027
 6 -4.18058256085609 -3.35781322872287  0.63944226582658
 6 -3.58001217801780 -3.66769471217122  1.90529649814982
 8 -3.62197498089809 -2.98456581448145  2.94895825402540
 8 -2.90201555435544 -4.83516213471347  1.79518855635564
 6 -2.31344030103010 -5.33546875277528  2.93273067346735
 6  2.82082840324032 -0.50018830773077 -1.14716823402340
 6  4.13363424862486 -0.27730299819982 -0.48052061486149
 6  5.24995048634864  0.42826935493549 -0.97932080908091
 6  5.19504322992299  1.15597327262726 -2.31169530453045
 6  6.45360163886389  0.43930454645465 -0.15483600800080
 6  7.60267171977198 -0.17412596059606 -0.93795412411241
 6  8.89001671327133 -0.20499231533153 -0.06596269866987
 6  10.24874033463346 -0.61010267346735 -0.91164688468847
 6  10.06452972957296 -1.92185006490649 -1.37684465046505
 6  11.44412907670767 -0.32315720682068  0.03117515501550
 6  12.74881261676168 -0.44111414491449 -0.70716822192219
 6  13.93958523032303  0.00248453415342  0.14965137673767
 6  15.35839183018302 -0.12444152775278 -0.41993764626463
 6  15.49429570057006 -1.58719710801080 -0.86481830813081
 6  16.44441143384338  0.27609412671267  0.52972770747075
 6  17.79145673337334  0.59465319491949 -0.26642316931693
 6  18.75200561916191  1.36890496899690  0.60441369806981
 6  20.25537834223422  1.31599103160316  0.15812251825183
 6  20.39837268306831  1.97118442354235 -1.17612230813081
 6  21.17887295429543  1.99181088098810  1.25278921892189
 1 -4.25852621612161  3.59584283568357  1.60061615741574
 1 -9.97044916821682  3.85232750725072 -0.41664619081908
 1 -10.42699712381238 -2.61868740384038 -1.11978979837984
 1 -2.64250153735374 -1.04378458115812  2.13237972867287
 1 -2.14564803110311  1.69128118921892  1.37720136913691
 1 -1.90183326972697  0.91936104250425  3.65859619701970
 1 -2.80436754585459  2.30934015681568  3.54582260446045
 1 -3.49278207870787  0.53230838513851  3.82318400360036
 1 -2.19987510651065 -1.43151382218222 -0.54527253435344
 1 -2.06540290929093  0.26657427722772 -0.65465219981998
 1 -0.28911434013401  0.36292587988799  1.11446530953095
 1 -0.24851327162716 -1.28915968256826  1.57765122342234
 1 -5.43049722742274  6.90045755775577  1.11040087138714
 1 -5.95209668096810  6.01030391179118  2.45537755025503
 1 -4.42616746134614  5.59466373437344  1.52254298689869
 1 -9.49333959375937  5.91005438743874 -0.48661001370137
 1 -9.05854491819182  8.14574429542954  0.43911368706871
 1 -7.61709964206421  7.40379721612161  1.58468742904290
 1 -12.04971544454445  3.29523867096710 -2.31969780128013
 1 -13.32764006170617  2.06906564896490 -1.69769549774977
 1 -12.53650468316832  3.06574390849085 -0.68789922942294
 1 -12.81462342724272 -1.49668059085909 -1.26991049194920
 1 -13.27432973207321  0.05876316581658 -2.18220397479748
 1 -13.06852205140514 -1.59759342144214 -3.58946990509051
 1 -12.00945135083508 -0.37682615391539 -3.99778875727573
 1 -11.50006484588459 -1.99873090029003 -3.38465674387439
 1 -8.78638325692569 -4.91092759355936 -1.66856291929193
 1 -8.20168455365537 -5.71561751505151 -0.60160011511151
 1 -9.56874105310531 -4.99727817621762 -0.06572884158416
 1 -3.55974349284928 -3.17729433503350 -0.32476021412141
 1 -1.63500688828883 -4.63718593199320  3.52174389198920
 1 -3.22926936423642 -5.62681220612061  3.52220325802580
 1 -2.04600512101210 -6.32218300310031  2.52957631873187
 1  2.89836789158916 -1.55206182898290 -1.66003745244524
 1  2.69570601190119  0.16766485128513 -2.00319137663766
 1  4.16222670937094 -0.72937135093509  0.51026242644264
 1  4.07126243774377  1.12008755145515 -2.84443492919292
 1  5.39224615681568  2.22486291019102 -2.00905834423442
 1  5.93970353885389  0.77685887678768 -2.98716497339734
 1  6.64200238413841  1.54580456105611  0.34674428832883
 1  6.24548242034203 -0.18066540324032  0.71232742824282
 1  7.39261138393839 -1.11359203220322 -1.23796855405541
 1  7.75893845234523  0.49212831583158 -1.86693751665166
 1  9.32923896819682  0.68438793629363  0.24261668976898
 1  8.73385650645065 -0.84237258995900  0.82509863326333
 1  10.48836346814682  0.20000614841484 -1.78040319831983
 1  9.26162577167717 -2.08877716121612 -2.07614599649965
 1  10.91970111071107 -2.20922432173217 -1.94406976507651
 1  10.01359355645564 -2.75657977267727 -0.59619701340134
 1  11.32096373797380  0.65414184758476  0.45330310111011
 1  11.59424702020202 -1.11947324492449  0.78414473457346
 1  12.73907185968597 -1.72708012731273 -0.83516578807881
 1  12.58590442034203 -0.10780584458446 -1.74016835053505
 1  14.07020844114411  1.04934029732973  0.50690551925193
 1  13.74012232283228 -0.65133151205121  1.06218859285929
 1  15.34935533693369  0.46100949794980 -1.43271454025403
 1  14.91814561136114 -2.36055539673967 -0.00320845634564
 1  14.81786343074307 -1.75543006300630 -1.76948832233223
 1  16.43596187578758 -1.91681257825783 -1.16956346964697
 1  16.19284255775577  1.20630896459646  1.16703261956196
 1  16.56875095289529 -0.52672895769577  1.47875637033703
 1  18.23520025772577 -0.31441795579558 -0.47253744934493
 1  17.70705801540154  1.12568146224623 -1.20550629422942
 1  18.42766182308231  2.45506677467747  0.81936388318832
 1  18.75497145964597  0.81023586308631  1.57775102060206
 1  20.56022585488549  0.27228822642264  0.02520841304130
 1  19.82922974147415  3.02769354585459 -1.02675486018602
 1  21.48419222002200  1.93215435753575 -1.68508648984898
 1  19.69055745334533  1.57074736493649 -2.04052243664366
 1  21.11421527502750  1.10328596949695  2.18115178397840
 1  22.04103199599960  2.22446291699170  0.77601425502550
 1  20.92958303680368  2.97778389558956  1.59484662136214

