%nproc=4
%Mem=2GB
# td=(NStates=1) CAM-B3LYP/6-31G(d,p) 

TD

0 1
12 -7.10619119211921  0.60399914801480  0.21298898629863
 6 -4.81822644064406 -1.90033121152115  0.50441697439744
 6 -4.83114304320432  2.82961140844084  1.13585995089509
 6 -9.40934567006701  3.12402789828983 -0.39106196589659
 6 -9.51523183688369 -1.71319683068307 -0.95771220032003
 7 -5.16453987858786  0.50424024212421  0.68069848814881
 6 -4.34179388548855 -0.74743456545655  0.80479850305031
 6 -2.95362436783678 -0.39918934463446  1.27870822502250
 6 -3.05957939633963  1.09182185048505  1.62749348004800
 6 -4.41293828872887  1.48590933973397  1.11223825372537
 6 -2.92322740484048  1.41878416651665  3.03388479737974
 6 -1.87600106110611 -0.67972323372337  0.21327528582858
 6 -0.45926334893489 -0.29360370757076  0.59902403170317
 6  0.46314745194519 -0.65364887778778 -0.60159554005401
 8  0.20035127522752 -0.98763417101710 -1.71842817451745
 8  1.72135394589459 -0.38752614901490 -0.12453924282428
 7 -7.09449989788979  2.61233682348235  0.35428412391239
 6 -6.07150642964297  3.43586456225623  0.73489702330233
 6 -6.40118737183718  4.77663195259526  0.77750843804380
 6 -7.69089179617962  4.87018765026503  0.35557394869487
 6 -8.12558683028303  3.46519571487149  0.03184573087309
 6 -5.45634359105911  5.92940540644064  1.14307906840684
 6 -8.59937773537354  5.97885891959196  0.16577356275628
 6 -8.51924581588159  7.06211232983298  0.89593584338434
 7 -9.10607287988799  0.62058491959196 -0.65415944964496
 6 -9.84470072977298  1.75070502360236 -0.69834615871587
 6 -11.10892998959896  1.45405374447445 -1.20529224872487
 6 -11.20963336723672  0.07486285038504 -1.28148686268627
 6 -9.91074675537554 -0.36796877117712 -1.04874989108911
 6 -12.27310613431343  2.45586615761576 -1.49061583638364
 6 -12.36603114941494 -0.73313072317232 -1.80627143564356
 6 -12.17372486088609 -1.09203161436144 -3.30395551415142
 7 -7.25995546384639 -1.39770938453845 -0.10311498849885
 6 -8.28352859265927 -2.27197236933693 -0.57145210041004
 6 -7.87860400600060 -3.64490275777578 -0.57162443974397
 6 -6.45735962006201 -3.59250358735874 -0.12977470937094
 6 -6.12356495289529 -2.18955723702370  0.09007181138114
 6 -8.75861332873287 -4.88999184158416 -0.68363684208421
 6 -5.33691816211621 -4.39899378287829  0.20465333793379
 8 -5.20314915281528 -5.58333281668167  0.10415744644464
 6 -4.19549312871287 -3.39699548934893  0.59138900420042
 6 -3.60685131603160 -3.71026624792479  1.99300967386739
 8 -3.78328992959296 -2.99631636783678  2.92814549564956
 8 -2.81008220192019 -4.80403512591259  1.92047062796280
 6 -2.18400898879888 -5.27314154325432  3.16971190669067
 6  2.76020853255325 -0.74080187478748 -1.10481168156816
 6  4.15586767576758 -0.43471164746475 -0.51977212621262
 6  5.10387387178718  0.36021228662866 -0.95681545424542
 6  5.05635405840584  1.19801245054505 -2.13309747504750
 6  6.42754708750875  0.47582943314331 -0.25069155435544
 6  7.68137567546755 -0.22184253115312 -0.92540949144915
 6  8.97315918851885 -0.09331446184618 -0.08633044584458
 6  10.26079670417042 -0.49650672237224 -0.90700167066707
 6  10.20400710091009 -1.98186912301230 -1.29000246524652
 6  11.49200207710771 -0.34805858665867  0.07413828242824
 6  12.76697160486049 -0.61727577867787 -0.65828585148515
 6  13.92961242964296 -0.18982018481848  0.27543461096110
 6  15.30791691659166 -0.13953768286829 -0.57010525032503
 6  15.59563123202320 -1.51615924972497 -1.16627624532453
 6  16.43178728462846  0.21202556255626  0.45520002720272
 6  17.80667525692569  0.51556295469547 -0.21034684928493
 6  18.77812818231823  1.31234945194519  0.64657509050905
 6  20.28108677787779  1.43923425692569  0.14823958715872
 6  20.31325267906791  2.43411170837084 -1.09536052875288
 6  21.17934886568657  1.79540247654765  1.34434979837984
 1 -4.16495798029803  3.52376789818982  1.61584617151715
 1 -10.16969736243624  3.93794462946295 -0.48092348384838
 1 -10.28469175857586 -2.45930527132713 -1.23476012821282
 1 -2.69538599549955 -0.81947026092609  2.22349304050405
 1 -2.28680228542854  1.56438002060206  0.85223587398740
 1 -1.86201065856586  1.13928438133813  3.56416012951295
 1 -3.23013807380738  2.53583764126413  3.21112327772777
 1 -3.69902334503450  0.75191987598760  3.35883829662966
 1 -1.94919740464046 -1.66412637303730 -0.14578848804880
 1 -1.99132080458046  0.09981723212321 -0.66810685028503
 1 -0.27090060746075  0.79243385728573  0.77496789588959
 1 -0.15264306630663 -1.10201471667167  1.44156811201120
 1 -5.60682945834583  6.85958460256026  0.81280698989899
 1 -5.40439742914291  6.07405076817682  2.18922521962196
 1 -4.40868482448245  5.71540270667067  0.86411958755876
 1 -9.26779883238324  6.02300844894489 -0.79222945114511
 1 -9.29728094399440  7.76439717861786  0.78938856065607
 1 -7.83555302110211  7.01728812831283  1.80794918041804
 1 -11.93263736883688  3.12701302730273 -2.27092009670967
 1 -13.19883955315531  1.78380227142714 -2.01567275877588
 1 -12.69987171827183  2.97380603530353 -0.75439668366837
 1 -12.37597237563756 -1.70178962406241 -1.07202215711571
 1 -13.16070478937894 -0.04110084688469 -1.71218674617462
 1 -12.87692404500450 -1.81434612081208 -3.82157204170417
 1 -12.19201276547655 -0.23392793039304 -3.83923741944194
 1 -11.17565384468447 -1.64513938103810 -3.25893451345135
 1 -9.82610221322132 -4.67947869076908 -1.59198246234623
 1 -8.09478884368437 -5.74198420262026 -1.22284189718972
 1 -9.22144202910291 -5.02481750305031  0.54719289668967
 1 -3.40975167106711 -3.27135038573857 -0.23762903440344
 1 -1.34347251375137 -4.80808724842484  3.48093100840084
 1 -3.14689429802980 -5.28073969156916  3.79460229912991
 1 -1.95734384588459 -6.25783505670567  2.68439239213921
 1  2.70500980508051 -1.84741657755776 -1.59259322432243
 1  2.55165264286429 -0.26267198759876 -2.08292144434443
 1  4.21619252485249 -0.77424964016402  0.57778099409941
 1  3.97659662316232  1.44842355275528 -2.48916728642864
 1  5.65575098679868  2.21994225312531 -1.89290575877588
 1  5.59664697229723  0.71878298579858 -2.96828555955596
 1  6.82785484838484  1.42607660766077  0.12053469626963
 1  6.32557667706771 -0.16934497189719  0.59939965666567
 1  7.45318270297030 -1.20278951415142 -1.30966228982898
 1  8.07402983888389  0.21609481758176 -2.05199812341234
 1  9.12143419501950  1.00863874887489 -0.05713808160816
 1  8.77670615931593 -0.64561006720672  0.86717458115812
 1  10.37256480788079  0.18949148684868 -1.71060595009501
 1  9.29224420992099 -2.21119909640964 -1.97393331813181
 1  11.13891644734474 -2.20865764966497 -2.13008725262526
 1  10.04307719371937 -2.58397033903390 -0.44491393109311
 1  11.44514219511951  0.53439566976698  0.62326381388139
 1  11.44749780318032 -1.23746970827083  0.86157677927793
 1  13.21942526142614 -1.62320048124812 -0.94522218981898
 1  12.80094384688469 -0.13650295929593 -1.62658601990199
 1  13.60364180088009  0.74075663166317  0.52867021002100
 1  14.24814756785679 -0.81685128982898  1.32785930243024
 1  15.19765305380538  0.65502498749875 -1.34128848684868
 1  15.36256369926993 -2.46344663676368 -0.36631808570857
 1  14.89858290899090 -1.84863723932393 -1.86291370647065
 1  16.63295292469247 -1.76422194709471 -1.77329879937994
 1  16.05791099179918  1.12482031573157  0.99418596289629
 1  16.53544799199920 -0.76699587468747  1.19818257945795
 1  18.12026296499650 -0.52759930733073 -0.44410775117512
 1  17.64417148164816  0.86514383328333 -1.04222779857986
 1  18.57402819541954  2.44030818851885  0.97525553085309
 1  18.77915507580758  0.80961514251425  1.78720872117212
 1  20.68851376407641  0.43237938613861 -0.25137807380738
 1  19.89441354795479  3.43536709860986 -0.83092668606861
 1  21.34841909400940  2.45520217301730 -1.49798116141614
 1  19.68870277467747  2.24067587838784 -2.15833280228023
 1  21.09325530073007  1.17823593269327  2.08122773997400
 1  22.19713141944194  1.79855108480848  0.96182114841484
 1  21.04605433533353  2.72849293259326  1.89944038453845

