%nproc=4
%Mem=3GB
# td=(NStates=1) iop(3/107=0140000000,3/108=0140000000) CAM-B3LYP/6-31G(d,p) 

TD

0 1
12 -7.19823451515152  0.67712609610961  0.09951632163216
 6 -4.86551536803680 -1.87640487108711  0.57485288768877
 6 -4.84054008460846  2.83688240614061  1.22765287048705
 6 -9.39598636313631  3.08412596559656 -0.43306578187819
 6 -9.54108020602060 -1.70096186188619 -0.86654345924592
 7 -5.09739677087709  0.48028411901190  0.80147797179718
 6 -4.29315156245625 -0.72834397759776  0.84037193189319
 6 -2.85096131673167 -0.38193659165917  1.30819648874887
 6 -2.98506173307331  1.15739444104410  1.71778805810581
 6 -4.39026926162616  1.53928857995800  1.14580897479748
 6 -2.95471165196520  1.42005482478248  3.22355767036704
 6 -1.91079680938094 -0.57500348954896  0.14556836713671
 6 -0.44458016721672 -0.45497874587459  0.56932031433143
 6  0.54196611981198 -0.65603222512251 -0.57177696779678
 8  0.22305252205221 -1.22093587128713 -1.61416880998100
 8  1.79032763116312 -0.34573451185119 -0.23289867746775
 7 -7.08139578297830  2.62125533543354  0.36859778387839
 6 -6.12578272207221  3.28976274367437  0.96100197629763
 6 -6.52791770017002  4.76064292789279  0.90460871957196
 6 -7.78755354065407  4.83845565076508  0.36002212861286
 6 -8.15885541304130  3.52025896469647 -0.00026202760276
 6 -5.59634166806681  5.85158463216322  1.35914606980698
 6 -8.70578058605861  5.87876814641464  0.16042665516552
 6 -8.52880129012901  7.02833198289829  0.82138619791979
 7 -9.09219826092609  0.62717971237124 -0.56083265716572
 6 -9.72595008130813  1.80095341964196 -0.83853666716672
 6 -11.13223717641764  1.48089753425342 -1.34344920462046
 6 -11.15515500270027  0.11018856465647 -1.37684771307131
 6 -9.93075067866787 -0.47773796719672 -0.99336153745375
 6 -12.20582151985199  2.50700594199420 -1.56026547924792
 6 -12.24609840274027 -0.70354647844784 -1.97476680728073
 6 -12.09346125502550 -1.14337452975298 -3.40523117431743
 7 -7.28479144154415 -1.41269610531053 -0.07331000610061
 6 -8.24513884018402 -2.25310385588559 -0.53026460636064
 6 -7.70286232603260 -3.56837738913891 -0.49541984178418
 6 -6.49708749924993 -3.58179116121612 -0.06199828152815
 6 -6.19623335503550 -2.20198815461546  0.23681551695170
 6 -8.47203954345435 -4.70658675707571 -0.82031541464146
 6 -5.30393585648565 -4.33109667306731  0.19167414151415
 8 -5.17975896819682 -5.57228408540854 -0.02640669206921
 6 -4.23067757035704 -3.27787523492349  0.62664098569857
 6 -3.51507568436844 -3.65197314001400  1.97227319581958
 8 -3.60712349574957 -3.03933129102910  2.97926128432843
 8 -2.91357671047105 -4.83379199769977  1.78035707320732
 6 -2.17060601760176 -5.23769897579758  3.04707210761076
 6  2.84561088148815 -0.60966925582558 -1.16851036823682
 6  4.14463534873487 -0.32673794169417 -0.55610817361736
 6  5.20525601690169  0.51072760076008 -0.98408128512851
 6  5.18321204680468  1.47149482478248 -2.13946808180818
 6  6.40540681938194  0.51649226522652 -0.16218674307431
 6  7.65429688228823 -0.14342289028903 -0.85552588128813
 6  8.93142085368537 -0.20983279937994  0.08748264586459
 6  10.12242770337034 -0.58017968116812 -0.91262698269827
 6  10.01263454005401 -2.04810269016902 -1.33019998599860
 6  11.40313497729773 -0.33213810491049 -0.00016797929793
 6  12.66834456995700 -0.54614464796480 -0.85664316941694
 6  13.87192846464646 -0.25036075037504  0.13415982758276
 6  15.22441843284328 -0.29963904750475 -0.48238389088909
 6  15.71829810081008 -1.74608299659966 -0.88842066836684
 6  16.36573356605660  0.37311382868287  0.28193292799280
 6  17.72977056475647  0.45609933953395 -0.27275380238024
 6  18.81389180778078  1.09496757525753  0.66876013271327
 6  20.19595239963996  1.31409084158416  0.16973367936794
 6  20.34221706750675  2.16257356245625 -1.20326502240224
 6  21.05555062206221  1.93014471437144  1.29140308030803
 1 -3.90899126262626  3.45164841624162  1.83455955175517
 1 -9.95962808610861  3.87483975847585 -0.70162468866887
 1 -10.20162458655866 -2.49919545464546 -1.15939375877588
 1 -2.55334262146215 -0.89871007370737  2.20001649234923
 1 -2.05822928922892  1.70283234433443  1.49958360736074
 1 -1.85847893429343  1.07655676207621  3.68472881028103
 1 -3.13645075417542  2.43743296609661  3.55219324152415
 1 -3.71033383388339  0.68666382068207  3.60021170637064
 1 -1.94395951495150 -1.64753542434243 -0.33271127822782
 1 -2.13101947094709  0.14175179497950 -0.63291002560256
 1 -0.13403883258326  0.60503009030903  1.07547141014101
 1  0.03028460816082 -1.18798956555656  1.44244770307031
 1 -5.83700787848785  6.68670618261826  0.68906873817382
 1 -5.60729220052005  6.15094797619762  2.44006601910191
 1 -4.60184502910291  5.59564383238324  1.05632636523652
 1 -9.26785704550455  5.85278866086609 -0.73585493819382
 1 -9.09307837153715  7.99562928392839  0.52645242094209
 1 -7.90944887698770  7.21841867826783  1.47176613691369
 1 -12.01057153015302  3.10522967006701 -2.26778260976098
 1 -13.14979227692769  2.04342308470847 -1.79165489368937
 1 -12.20123115581558  3.32472980708071 -0.75163560306031
 1 -12.10853281818182 -1.71809273207321 -1.37130063096310
 1 -13.24580687978798 -0.23792650315031 -1.66431218561856
 1 -12.92984818401840 -1.85976963906391 -3.65659661776178
 1 -12.19506991269127 -0.07403587488749 -4.02141111951195
 1 -11.08015285468547 -1.40853188038804 -3.46965524372437
 1 -8.82042666126613 -4.80086658745875 -1.82727879087909
 1 -7.93242762796280 -5.70189614291429 -0.72676263136314
 1 -9.38871305030503 -4.64194264266427 -0.13583585228523
 1 -3.57826534503450 -3.34583118871887 -0.30396813491349
 1 -1.53066645424543 -4.36913912731273  3.26449816741674
 1 -2.95245168246825 -5.46623614851485  3.81004204190419
 1 -1.57187770827083 -6.16144692949295  2.79936329742974
 1  2.72353040784078 -1.70194681748175 -1.53086453515352
 1  2.59089553085308 -0.01662357755776 -2.16268732623262
 1  4.16887737443744 -0.84502291609161  0.38710011021102
 1  4.17527283878388  1.59177472017202 -2.67514800050005
 1  5.15865279747975  2.51667209110911 -1.89791723012301
 1  5.80346991549155  0.97486867776778 -2.84196045294529
 1  6.74809299319932  1.60104008460846 -0.02771315741574
 1  6.31617949004901  0.05073773707371  0.72197839333933
 1  7.40953307610761 -1.13376404940494 -1.35559031623162
 1  7.86467902640264  0.51680078307831 -1.75762658555856
 1  8.98070411471147  0.65526502400240  0.59918234633463
 1  8.93910703150315 -0.90289864256426  0.86738286168617
 1  10.14338897069707  0.12176832463246 -1.67299245724572
 1  9.01173078217822 -2.25404368786879 -1.91784016591659
 1  10.78718785938594 -2.38191159045905 -1.96480183828383
 1  10.09711190829083 -2.70721483618362 -0.50452784648465
 1  11.64716635823582  0.63640007340734  0.41284905570557
 1  11.20445804130413 -0.98589988758876  0.80519683978398
 1  12.76694464696470 -1.52474989428943 -1.26797906940694
 1  12.61546737663766  0.09457439343934 -1.78536286998700
 1  13.76043746404640  0.77791315461546  0.62800762946295
 1  13.71775008560856 -0.84586096499650  1.16221859585959
 1  15.18025842724273  0.16657005400540 -1.62452372117212
 1  15.77621141794179 -2.33871321252125 -0.06946508200820
 1  14.90716236063606 -2.39845436543654 -1.53811518501850
 1  16.70892917251725 -1.93072396939694 -1.42357887118712
 1  16.13602687618762  1.37898623232323  0.96061197749775
 1  16.49533361116112 -0.19439572437244  1.35534402910291
 1  18.33837057475748 -0.57155366936694 -0.49540973657366
 1  17.74558186778678  1.19421831593159 -1.15070081368137
 1  18.47933699059906  2.15525679367937  1.15918786558656
 1  18.77408337083708  0.55720055955596  1.77766101160116
 1  20.51542137443744  0.22796379397940 -0.06346045384538
 1  19.80470728922893  3.30402117861786 -1.19641182588259
 1  21.43861766256626  2.37097823992399 -1.51149913111311
 1  19.86874527212721  1.57013730393039 -1.99229761416142
 1  21.08861271477148  1.31288692959296  2.23271694049405
 1  22.12152004480448  2.27478794949495  1.18916557015702
 1  20.45009508800880  2.88173429062906  1.75255239193919

