%nproc=4
%Mem=2GB
# td=(NStates=1) CAM-B3LYP/6-31G(d,p) 

TD

0 1
12 -7.14762533553355  0.63681242934293  0.00390807820782
 6 -4.86031064906491 -1.92700387878788  0.56741327402740
 6 -4.83310323922392  2.84651309860986  1.26259262416242
 6 -9.33223795929593  3.09815531103110 -0.55365822552255
 6 -9.54498481218122 -1.76486199719972 -0.94841127022702
 7 -5.06162958755876  0.51467128522852  0.73749416771677
 6 -4.36236594269427 -0.70874069606961  0.92820084328433
 6 -2.96759576497650 -0.44941436713671  1.30739109330933
 6 -2.97266070447045  1.07632030033003  1.74176490719072
 6 -4.37374436933693  1.53584433323332  1.22120915081508
 6 -2.97602268436844  1.28752104020402  3.29676108500850
 6 -1.89514297529753 -0.44849011041104  0.09264322262226
 6 -0.41587901050105 -0.44757910511051  0.53624775407541
 6  0.49523066026603 -0.69775328822882 -0.63633901440144
 8  0.14018525862586 -1.05179058665867 -1.66504283598360
 8  1.80633244374437 -0.40982837923792 -0.22607939683968
 7 -7.04033448134814  2.59826541634163  0.36685538103810
 6 -6.01321060006001  3.35694667046705  0.83990752435244
 6 -6.45574282738274  4.76072036143614  0.85543623082308
 6 -7.67016972397240  4.81776240774077  0.30975936723672
 6 -8.05784005560556  3.42420161546155  0.00359290559056
 6 -5.52687064376438  5.85850831673167  1.31537629812981
 6 -8.55415321292129  5.95049608330833  0.20584757015702
 6 -8.37912180348035  7.15155127372737  0.78882513231323
 7 -9.08786105870587  0.68188104920492 -0.61198523222322
 6 -9.80567682738274  1.80954090719072 -0.83455978007801
 6 -11.20930002660266  1.41364970407041 -1.18296001550155
 6 -11.25148755265526  0.07926329042904 -1.31120983498350
 6 -9.86150183088309 -0.41062303660366 -0.88529354545455
 6 -12.30062888658866  2.38772934393439 -1.40612738753875
 6 -12.41407595389539 -0.80806821692169 -1.75718652715272
 6 -12.16201368976898 -0.98760117131713 -3.34823994259426
 7 -7.17453692199220 -1.37848746234623 -0.01746642364236
 6 -8.28981922172217 -2.22266743884388 -0.54206916211621
 6 -7.81199734533453 -3.66238450595060 -0.48871614891489
 6 -6.49723360746075 -3.54610894789479 -0.10075180708071
 6 -6.26292888928893 -2.17556583788379  0.14360716491649
 6 -8.70951841924192 -4.85945878827883 -0.76897537593759
 6 -5.32632710301030 -4.28336221972197  0.23498637123712
 8 -5.13182202010201 -5.52825730913091  0.13906093679368
 6 -4.20064364376438 -3.29028481828183  0.59492935823582
 6 -3.61101173207321 -3.64280950225023  1.95638601150115
 8 -3.86323792439244 -3.05710244644464  2.97354003510351
 8 -2.80631182488249 -4.64907963036304  1.93923250415042
 6 -2.24044463236324 -5.12195642474247  3.11287622312231
 6  2.83920643234323 -0.79584737933793 -1.15651685208521
 6  4.25613770277028 -0.54933310961096 -0.55389553855386
 6  5.15517900230023  0.28267453285329 -1.02201197389739
 6  5.03969239223922  1.10041269056906 -2.29204336963696
 6  6.44320865366537  0.32061391159116 -0.36697318251825
 6  7.64462200010001 -0.21051139803980 -1.14957190769077
 6  8.94867674027403 -0.26475160556056 -0.26733854665467
 6  10.16087671217122 -0.62774984668467 -1.00558152865287
 6  10.26710341054105 -2.10161109720972 -1.50985445044504
 6  11.41472434933493 -0.32925670647065 -0.18943807520752
 6  12.81395630333033 -0.56128017911791 -0.84635465836584
 6  14.00338980738074 -0.13255445824582  0.16687375487549
 6  15.34757088198820 -0.25522925202520 -0.47091533133313
 6  15.69721139003900 -1.70766840064006 -0.91284090179018
 6  16.30059416531653  0.46486084608461  0.49702420962096
 6  17.71657624702470  0.63738513691369 -0.13734954955496
 6  18.78472884238424  1.23160137713771  0.85434586758676
 6  20.22893156235623  1.43161349484948  0.27170193339334
 6  20.25438679247925  2.45366366356636 -1.00010100280028
 6  21.04245517631763  2.02734567086709  1.39428479187919
 1 -3.93108459295930  3.45651117251725  1.48747333423342
 1 -9.85651604430443  3.96008684368437 -0.99579497099710
 1 -10.36866015541554 -2.60609995079508 -1.06514316651665
 1 -2.63859031593159 -1.06887520142014  2.01541223242324
 1 -2.03067667286729  1.74760834343434  1.35361601200120
 1 -2.16543100060006  0.78491894479448  3.79891360486049
 1 -2.85887094709471  2.48503256075608  3.67106927232723
 1 -3.98229167186719  1.04949963396340  3.95547796059606
 1 -2.04637712261226 -1.38748870927093 -0.42281619081908
 1 -2.17584925742574  0.17141439183918 -0.70675071467147
 1 -0.31159467686769  0.57248186208621  1.17124752385238
 1 -0.35367316931693 -1.24686920212021  1.20094404960496
 1 -5.80214899029903  6.62642128622862  0.71204691389139
 1 -5.30746773617362  6.10555391849185  2.44344064116412
 1 -4.66993094909491  5.62022318871887  0.87136031163116
 1 -9.30520257275728  5.82850899899990 -0.63625385358536
 1 -9.15398661456146  7.84091483038304  0.52106172797280
 1 -7.95844531033103  7.03268966846685  1.90393877937794
 1 -11.78375248034803  3.15909623562356 -1.97022002670267
 1 -13.31582125132513  2.00462435363536 -1.82741393289329
 1 -12.48693042414241  3.15969462416242 -0.55310655465547
 1 -12.74696947534754 -1.66836628172817 -1.10729568446845
 1 -13.25095381428143 -0.29712644944495 -1.54680020752075
 1 -13.01486783938394 -1.59996468266827 -3.57119700420042
 1 -12.45107867206721 -0.06835137273727 -3.84387788348835
 1 -11.31872815211521 -1.34583945104510 -3.64848346834683
 1 -8.75617522052205 -4.86257700060006 -1.88814207830783
 1 -8.32048141294129 -5.75269527372737 -0.30930054305431
 1 -9.82212209710971 -4.45338035933593 -0.30207202980298
 1 -3.48505920182018 -3.39061231193119 -0.24892016351635
 1 -1.43506167266727 -4.25463190289029  3.36554947024703
 1 -3.03739334793479 -5.43116473407341  3.81720455935594
 1 -1.88849696119612 -6.28592786598660  2.84044799769977
 1  2.63262256635664 -1.80386222212221 -1.47192115711571
 1  2.84120159775978 -0.18163388378838 -2.21032418461846
 1  4.57190809640964 -1.26029824502450  0.22720593659366
 1  4.07534649814982  0.95446415681568 -2.96788515821582
 1  4.92011742344234  2.35219547844785 -1.82015848404841
 1  6.00488779637964  0.98328943644364 -2.85445417641764
 1  6.90914297719772  1.37249124912491 -0.04552190939094
 1  6.50611473087309 -0.26210424782478  0.54951466816682
 1  7.47962534723472 -1.06400563576358 -1.69526084968497
 1  7.80279271517152  0.42157536563656 -2.09316223982398
 1  9.10007205880588  0.55386327132713  0.48404603680368
 1  8.77972646134613 -0.90951645784578  0.50166803050305
 1  10.31686923832383 -0.04480194249425 -1.83509839933993
 1  9.27704268976898 -2.13591156765677 -2.29044496929693
 1  11.11338389408941 -2.28541532543254 -2.05833007690769
 1  10.33009589558956 -2.92268421042104 -0.67509694939494
 1  11.40453813471347  0.62363459365937  0.15597708520852
 1  11.48962201560156 -1.04771073237324  0.61585220682068
 1  13.03044636353635 -1.61107926912691 -1.11461912951295
 1  12.78412216471647  0.00128081908191 -1.93151651295130
 1  13.93395483218322  0.95868842484248  0.60779812281228
 1  13.94925767886789 -0.62327193189319  1.11991850835083
 1  15.45650893939394  0.35007449244924 -1.45647000500050
 1  15.93537097999800 -2.31309160126013  0.15014356045605
 1  14.93917696839684 -2.27320969656966 -1.54397181228123
 1  16.64178380778078 -1.61585711061106 -1.42327379687969
 1  15.86794199489949  1.42952078577858  0.90584712901290
 1  16.39523397059706 -0.07608678377838  1.29008176937694
 1  18.21052199089909 -0.20037658505851 -0.60394373477348
 1  17.60382744724473  1.45376269516952 -0.95930950675067
 1  18.24727552015202  2.08494265196520  1.32799080438044
 1  19.05526268656866  0.47824200520052  1.88716871717172
 1  20.64700961366137  0.61267741594159  0.05578264226423
 1  19.88308241484148  3.41949551145114 -0.55892948634863
 1  21.42960721282128  2.24257090989099 -1.40881224452445
 1  19.50756466086609  2.05370718151815 -1.64663163216322
 1  20.89826580178018  1.44668277737774  2.38892851005101
 1  22.10320202650265  2.04745597529753  0.97401236753675
 1  21.15989571947195  3.03007309060906  1.61028146864686

