%nproc=4
%Mem=3GB
# td=(NStates=1) iop(3/107=0140000000,3/108=0140000000) CAM-B3LYP/6-31G(d,p) 

TD

0 1
12 -7.10832552425243  0.62680106360636  0.07098346834683
 6 -4.88995781228123 -1.99724695529553  0.52510791319132
 6 -4.74705073567357  2.89665838373837  1.07765787098710
 6 -9.28073483798380  3.18207576057606 -0.43961643694369
 6 -9.49479557755776 -1.71549331503150 -0.95051185608561
 7 -5.13991102230223  0.47762385298530  0.73720154415442
 6 -4.30235248254825 -0.71581272447245  0.80528842354235
 6 -2.98994521512151 -0.39995839383938  1.22845851495150
 6 -2.96509973687369  1.11575027662766  1.69900617991799
 6 -4.40822105680568  1.53850850195019  1.07662205610561
 6 -2.99487566836684  1.10327314661466  3.26755206980698
 6 -1.85111084078408 -0.63198918811881  0.05628943924392
 6 -0.48099380858086 -0.48952220022002  0.63381676397640
 6  0.51296321952195 -0.68902552445245 -0.45943573367337
 8  0.21740195699570 -0.93145692339234 -1.56629402250225
 8  1.84815341374137 -0.45004494289429  0.01569618201820
 7 -7.01115875927593  2.62564577447745  0.22841376547655
 6 -5.93363350715072  3.44005777317732  0.75437131323132
 6 -6.29343425182518  4.79348621222122  0.83162142084208
 6 -7.63187797309731  4.96946875207521  0.46118224462446
 6 -8.04927445494550  3.47863480228023  0.03186118471847
 6 -5.45098713261326  5.89492896659666  1.24022417761776
 6 -8.59253926192619  5.99390966056606  0.32715332783278
 6 -8.38733714371437  7.14704385408541  0.79779383868387
 7 -9.09244828592859  0.66450344474447 -0.69582615651565
 6 -9.76402388868887  1.78543186748675 -0.73451626512651
 6 -11.08569252195220  1.47356680118012 -1.21359621932193
 6 -11.22245173237324  0.11553909970997 -1.28456848514851
 6 -9.85904350795080 -0.41550174357436 -0.89866206750675
 6 -12.10464140184019  2.52603784518452 -1.42809226192619
 6 -12.42179597249725 -0.68638476227623 -1.72848217881788
 6 -12.17207911681168 -1.24818501080108 -3.15206585778578
 7 -7.16601956435644 -1.34433926962696 -0.29410208530853
 6 -8.21861618791879 -2.18510705620562 -0.66060764066407
 6 -7.81160320012001 -3.62234278567857 -0.63521382118212
 6 -6.53786157665767 -3.59254223632363 -0.26976905860586
 6 -6.19295302700270 -2.21561951775178 -0.01137930253025
 6 -8.66993933343334 -4.75414151255126 -0.96299968306831
 6 -5.34065952885288 -4.32748631203120  0.17604257835784
 8 -5.23304429672967 -5.53292014901490  0.22622857145715
 6 -4.21602610521052 -3.30710815821582  0.62041036263626
 6 -3.69719389618962 -3.68879682238224  1.88366433493349
 8 -3.74570735413541 -3.12293965186519  2.98823218141814
 8 -2.84799015181518 -4.78390700920092  1.75736477397740
 6 -2.37577653465347 -5.30956616251625  3.06257365776578
 6  2.75063138353835 -0.67512580148015 -1.08674219141914
 6  4.17693857905791 -0.38311357925793 -0.39314187698770
 6  5.07960345164516  0.31549807780778 -1.01632450945095
 6  5.02520624622462  1.16938461376138 -2.18132226722672
 6  6.40740701940194  0.34446506250625 -0.18952947734773
 6  7.63380483308331 -0.08331687968797 -1.03619394809481
 6  8.91239895149515 -0.13230504660466 -0.21518762116212
 6  10.24454991559156 -0.65237690089009 -0.84995071507151
 6  10.11683496009601 -2.09103698359836 -1.11272823882388
 6  11.39911457525752 -0.27110200130013 -0.12006996949695
 6  12.78040577607761 -0.66589662316232 -0.66728423352335
 6  13.91263253505350 -0.16857257155716  0.18545495709571
 6  15.37739373037304 -0.33404248784878 -0.43669932243224
 6  15.84016028702870 -1.74147253555356 -0.77799962626263
 6  16.33123011571157  0.40966748404840  0.46850158485849
 6  17.70338792649265  0.60796452605261 -0.18973550055005
 6  18.73018343694369  1.35418349684969  0.73779703640364
 6  20.07770057445745  1.46035546804680  0.04781148714871
 6  20.07534037983799  2.30747805290529 -1.24912960886089
 6  21.14071913891389  1.96534823472347  1.12975691569157
 1 -3.91485184868487  3.36548980038004  1.73553964976498
 1 -10.03316543984399  3.87518979347935 -0.48626315251525
 1 -10.19726415051505 -2.63110864596460 -1.22429024842484
 1 -2.80705799299930 -0.91818202090209  2.03047953865387
 1 -2.08516198249825  1.58261032213221  1.26891054005401
 1 -1.99949303570357  0.95898500490049  3.73214355175518
 1 -3.27754486358636  2.11932115491549  3.69102712491249
 1 -3.71786458695870  0.38224337863786  3.74283596879688
 1 -2.12065718471847 -1.57663833463346 -0.26792479957996
 1 -2.07901427042704  0.20270789058906 -0.61644837943794
 1 -0.39920534923492  0.67071665896590  1.01987585058506
 1 -0.44684310461046 -1.31737250385038  1.46083954225423
 1 -5.41325550325033  6.92908042004200  0.83872370367037
 1 -5.49111058235824  6.22693557495750  2.37309932243224
 1 -4.58061290589059  5.58868313631363  1.23831456405641
 1 -9.51559181898190  5.93818720072007 -0.17614896759676
 1 -9.34590365406541  7.88215793679368  0.85885566126613
 1 -7.39129706180618  7.37087392379238  1.45300426072607
 1 -11.94425489848985  3.32780192729273 -2.19500533203320
 1 -13.17716501420142  2.27784652705270 -1.59777550575058
 1 -12.21529256195620  2.85703303740374 -0.48359879937994
 1 -12.60620258515852 -1.35759668246825 -1.07839134003400
 1 -13.34006630573057 -0.12625533603360 -1.47254300870087
 1 -13.03087828702870 -1.62840650275027 -3.63463442154215
 1 -11.99302970867087 -0.34928339963996 -3.94348332673267
 1 -11.36805164456446 -1.94176520372037 -3.27544582278228
 1 -8.99266388498850 -4.95836233703370 -2.05618168116812
 1 -7.94915930113011 -5.74234018731873 -0.56869682478248
 1 -9.65832001100110 -4.85244369276928 -0.38549081778178
 1 -3.36753427192719 -3.48644525012501 -0.09275701380138
 1 -1.84706809440944 -4.30216242964296  3.71517323492349
 1 -3.24827126442644 -5.86995652055206  3.54299533723372
 1 -1.54364488498850 -5.98894967976798  2.70826418751875
 1  2.74885294009401 -1.56943356615662 -1.65225667436744
 1  2.41570801210121  0.15927401220122 -1.90065112261226
 1  4.13755424212421 -0.79433784758476  0.64222562276228
 1  3.99642495399540  1.24892043474347 -2.62316280198020
 1  5.29698663086309  2.18853927782778 -1.82062950135013
 1  5.87739730823082  0.92684387528753 -2.88584484138414
 1  6.66390457435744  1.28883886448645  0.30306992089209
 1  6.37110498259826 -0.59801713841384  0.46689288478848
 1  7.28795091789179 -0.95091576457646 -1.31104586178618
 1  7.82969552805281  0.27618672167217 -1.94256507940794
 1  9.10373641794179  0.83201269876988  0.30071249934994
 1  8.70220334113411 -0.79668802150215  0.54583070647065
 1  10.15948057985799 -0.12345619781978 -1.92349750775078
 1  9.24558416751675 -2.30368865236524 -1.81460984288429
 1  10.98216735733573 -2.50325372467247 -1.56249160726073
 1  9.94537673477348 -2.70055417011701 -0.29128652235224
 1  11.31238287988799  0.85889232263226  0.19850762156216
 1  11.33891148664867 -0.68954025162516  0.99761608170817
 1  12.78593654615462 -1.59510692999300 -1.04977724922492
 1  12.71099692959296 -0.16417148114812 -1.62758709240924
 1  13.88926034633463  0.90821618491849  0.30709553825383
 1  13.85777408800880 -0.74331070997100  1.14826720072007
 1  15.40759116051605  0.21861525852585 -1.33881515031503
 1  15.93644744154416 -2.42296163736374  0.31319318381838
 1  14.99639128352835 -2.37584210421042 -1.08177955145515
 1  16.81599987958796 -1.68012890989099 -1.48154466776678
 1  16.01075434893489  1.30560889458946  0.82702861916192
 1  16.25949002680268 -0.09253553835384  1.41051954665467
 1  18.29504624232423 -0.34049056305631 -0.60470066566657
 1  17.45500280988099  1.37953684778478 -1.15590133373337
 1  18.37798685558556  2.37950921892189  1.18390033683368
 1  18.65291125362536  0.76965180468047  1.43160640614061
 1  20.31153098539854  0.46219721732173 -0.33845795359536
 1  19.87759457795780  3.38037881438144 -1.01133331803180
 1  20.94112791359136  2.12649379147915 -1.68360634183418
 1  19.37766616421642  1.75552584278428 -1.80184856925693
 1  21.18694254775478  1.20223586448645  1.96431009980998
 1  22.21181907470747  2.25790626132613  0.64214086768677
 1  20.89603968246825  2.89334545174517  1.40261739843984

