%nproc=4
%Mem=2GB
# td=(NStates=1) CAM-B3LYP/6-31G(d,p) 

TD

0 1
12 -7.20081065406541  0.56229497759776  0.05877356475648
 6 -4.86144076207621 -1.97990916931693  0.51072760546055
 6 -4.78937886678668  2.80934938223822  1.17837420232023
 6 -9.35928066356636  3.13877937343734 -0.48102096179618
 6 -9.59612992669267 -1.79780529152915 -0.84242067116712
 7 -5.13944736933693  0.35591540964096  0.84949536783678
 6 -4.28984869096910 -0.78553837583758  0.84026204940494
 6 -2.86133513891389 -0.45184461016102  1.24692504670467
 6 -3.05548898729873  1.05944861316132  1.67818854955496
 6 -4.33980097499750  1.44521527032703  1.21228825872587
 6 -2.72555763786379  1.23513580168017  3.14281569046905
 6 -1.97902136313631 -0.54623988538854  0.10320427872787
 6 -0.49089651225123 -0.58659300650065  0.56711084038404
 6  0.48041917911791 -0.79568308120812 -0.55182056255626
 8  0.17472871297130 -1.06607201480148 -1.75244157585759
 8  1.75202701320132 -0.56510390679068 -0.18196498539854
 7 -7.04268471637164  2.58246383618362  0.33931262676268
 6 -6.00141942094209  3.33766474227423  0.79685321892189
 6 -6.29427668076808  4.79444373377338  0.76079676687669
 6 -7.56819952695270  4.89392002350235  0.33213160446045
 6 -8.11356562816282  3.50124932023202  0.04012655895590
 6 -5.36367432413241  5.96679914581458  0.98453321382138
 6 -8.40250804840484  5.98621965566557 -0.05593860846085
 6 -8.50175406670667  7.21660777937794  0.56144239403940
 7 -9.08118039063906  0.69743260436044 -0.55479951365136
 6 -9.83517977767777  1.77044699779978 -0.65167149124913
 6 -11.15168426502650  1.45374371347135 -1.04242596209621
 6 -11.22718512241224  0.09992535663566 -1.20560927492749
 6 -9.91951763246325 -0.39849182348235 -0.92198721482148
 6 -12.26017484118412  2.42051262226223 -1.21123789858986
 6 -12.37570211651165 -0.73350076017602 -1.66552736123612
 6 -12.48628611701170 -0.83653606480648 -3.24172929152915
 7 -7.18528799709971 -1.35325493909391 -0.10920559755976
 6 -8.34760500030003 -2.20398557065707 -0.56283123832383
 6 -7.86631277687769 -3.59981824932493 -0.43999127642764
 6 -6.52478636273627 -3.58501283828383 -0.19777150905090
 6 -6.14653725012501 -2.25967424872487 -0.00533772957296
 6 -8.63889135653565 -4.82141498389839 -0.78985746414641
 6 -5.35886035633563 -4.44608849234923  0.26763963656366
 8 -5.20641947984798 -5.64486897029703  0.30368739943994
 6 -4.23513709310931 -3.40133592339234  0.47077694299430
 6 -3.57334796569657 -3.65924114541454  1.87648802170217
 8 -3.69855145574557 -3.20188692489249  2.94056673777378
 8 -2.64583577727773 -4.74010873327333  1.70408898979898
 6 -2.30515110301030 -5.34524875397540  3.00959589508951
 6  2.82874538623862 -0.69524731933193 -1.07084828522852
 6  4.15287737673767 -0.40511868816882 -0.43511366036604
 6  5.06097958235824  0.40712697809781 -0.97441721442144
 6  5.01620004300430  1.09507215651565 -2.31427559285929
 6  6.42985731853185  0.54937678787879 -0.28950543574357
 6  7.62149968786879 -0.07486783368337 -1.05520247074707
 6  8.88829070167017  0.05326019561956 -0.10140195299530
 6  10.17469809430943 -0.51305837753775 -0.85401637213721
 6  10.02697939813981 -1.92491342744274 -1.33710717571757
 6  11.41763464036404 -0.21088486928693 -0.07777690909091
 6  12.80407531523152 -0.43997804890489 -0.82491251415141
 6  13.91368083648365 -0.02304350715072  0.11464853235324
 6  15.29248537343734 -0.08019174827483 -0.54822306210621
 6  15.63544521342134 -1.54607224102410 -0.93270288798880
 6  16.44571867776778  0.41359571957196  0.34465897309731
 6  17.86391098049805  0.46027742614261 -0.12877869246925
 6  18.79046941644165  1.24344256125613  0.78278871187119
 6  20.22051072027203  1.36605693919392  0.27848261146115
 6  20.32240359415942  2.06753505070507 -1.01328232093209
 6  21.14801573237324  2.01466440274027  1.53354871827183
 1 -4.12545402990299  3.68293381478148  1.66026061296130
 1 -9.98307870057006  3.98135897089709 -0.55236062756276
 1 -10.46918020742074 -2.44203354415442 -0.95644229642964
 1 -2.70026648354835 -1.14843315721572  2.10049074027403
 1 -2.40213381858186  1.76295987858786  1.04515516591659
 1 -1.73122758025803  0.97521797469747  3.60185389888989
 1 -2.75513057305731  2.16976103360336  3.68552071747175
 1 -3.59876331903190  0.80859554355436  3.86198861166117
 1 -2.20577306220622 -1.62616257665767 -0.25650956015602
 1 -2.07397907040704  0.26186343674367 -0.80164020362036
 1 -0.23775729312931  0.35628024192419  1.03563396249625
 1 -0.28113591559156 -1.33034754995500  1.34970892609261
 1 -5.66681545694570  6.68841748584858  0.46022173137314
 1 -5.46839382878288  6.22455581868187  2.08400469756976
 1 -4.28852280828083  5.79237040344034  0.77116029162916
 1 -9.28594064656466  5.83395954405441 -0.76985721392139
 1 -9.29801101700170  7.91883262216222  0.32613223502350
 1 -7.91758122392239  7.61398779827983  1.55935432093209
 1 -11.70262436753675  3.37367769376938 -1.81626463116312
 1 -13.26187585678568  2.04193808500850 -1.89395058655866
 1 -12.69957168826883  2.82831148584858 -0.36218746274627
 1 -12.19583436183618 -1.75737518261826 -1.36507146204620
 1 -13.27476619551955 -0.10027676447645 -1.40215574307431
 1 -13.47769412201220 -1.34540922712271 -3.65131501600160
 1 -12.49788335253525 -0.02516705430543 -3.82417591329133
 1 -11.74176045534553 -1.44981984908491 -3.66564518451845
 1 -9.18278788178818 -4.76079682258226 -1.82376564066407
 1 -8.25314467926793 -5.77983798799880 -0.92049166216622
 1 -9.63867375227523 -4.89179420072007 -0.32107392999300
 1 -3.56476717261726 -3.49920317101710 -0.28740401190119
 1 -1.50338850535054 -4.48759519921992  3.50101301660166
 1 -3.08322793139314 -5.59670128772877  3.61580441934193
 1 -1.56395450695070 -6.24615388858886  2.63895784868487
 1  2.79861916601660 -1.67090892679268 -1.41495546054605
 1  2.73129060666067  0.13551783138314 -1.71705485768577
 1  4.23117402300230 -0.74556677187719  0.55169838583858
 1  4.01004996849685  1.23644235463546 -2.69310768046805
 1  5.45638104980498  2.12051231013101 -2.36633310151015
 1  5.59466677427743  0.60042114961496 -3.06204493549355
 1  6.53349541244124  1.59656365636564 -0.12284964216422
 1  6.55936005540554 -0.12026006340634  0.51420113681368
 1  7.48291567626763 -1.07271650685069 -1.33172449604961
 1  7.77412984888489  0.23252646074608 -2.17729065266527
 1  9.09542159375938  1.04862274727473  0.43448108030803
 1  8.61429991869187 -0.62480798699870  0.67112497619762
 1  10.22220977237724  0.06895943364336 -1.61648653815382
 1  8.93493847934793 -1.99368734523452 -1.83022894769477
 1  10.72438499419942 -2.13068985288529 -1.79056330023002
 1  10.07250013601360 -2.50463240524052 -0.43159259895990
 1  11.33031071197120  0.76878910911091  0.20189167666767
 1  11.35942899629963 -0.87614357565757  0.79676029762976
 1  12.77750106900690 -1.56858501970197 -1.06841450905090
 1  12.73884763726373  0.31478216921692 -1.67145050635064
 1  13.56630806750675  0.99998255425543  0.21589893289329
 1  13.88669142224223 -0.59284888958896  1.02194871137114
 1  15.36543983248325  0.44054353935394 -1.51701605960596
 1  15.31858930183018 -2.29457975007501 -0.09643109700970
 1  14.76370942164217 -1.84177655325533 -1.70125754085409
 1  16.60805043444345 -1.86408193309331 -1.44318578807881
 1  16.19566476717672  1.25403323702370  0.97992453675368
 1  16.44642909010901 -0.19800897599760  1.34789755095510
 1  18.40255119381938 -0.47264381178118 -0.46648998939894
 1  17.88481554605461  0.86143346224622 -1.11768534433443
 1  18.45468626122612  2.35254941264126  1.07920592589259
 1  18.80053721402140  0.74350853185319  1.66067606790679
 1  20.54161907460746  0.29307545574557  0.12627969196920
 1  19.99632373897390  3.22711627352735 -1.04182777617762
 1  21.45832008410841  2.23711036383638 -1.15516687998800
 1  19.96415031943194  1.47486929772977 -1.91640860986099
 1  21.29118509370937  1.21211932103210  2.38500811801180
 1  22.19133083938394  2.03835506520652  1.19767473377338
 1  20.74669439933993  2.77381746504650  2.11612205270527

