%nproc=4
%Mem=2GB
# td=(NStates=1) CAM-B3LYP/6-31G(d,p) 

TD

0 1
12 -7.07732830583058  0.59910865896590 -0.00861317391739
 6 -4.77379199719972 -1.96456763516352  0.51139767246725
 6 -4.82649257815782  2.78723717101710  1.22979934483448
 6 -9.42640737623762  3.00920641614161 -0.28310116981698
 6 -9.49636995069507 -1.73150866186619 -0.93430986008601
 7 -5.09007243184318  0.45923574167417  0.66651707000700
 6 -4.31949165526553 -0.74117393939394  0.85033305650565
 6 -2.96944594999500 -0.31556098179818  1.20952130633063
 6 -3.12767620602060  1.05569823812381  1.64249498019802
 6 -4.32999999489949  1.50447119591959  1.08566559645965
 6 -2.99713479557956  1.22670495859586  3.20804221312131
 6 -1.89818327932793 -0.58144340574057  0.11966592489249
 6 -0.36220364296430 -0.42651699889989  0.50652478177818
 6  0.58571970917092 -0.52294580748075 -0.57178255875588
 8  0.23016425652565 -0.90680608820882 -1.67557388908891
 8  1.73785559605961 -0.19027642404240 -0.19420620952095
 7 -7.12547299519952  2.62859844964496  0.37789648514851
 6 -6.06483576257626  3.39656063186319  0.84219775337534
 6 -6.50123737683768  4.77867215661566  0.89087977517752
 6 -7.69709241624162  4.86565719721972  0.32543093439344
 6 -8.14216848844885  3.46037523282328  0.10277282358236
 6 -5.45473343004300  5.81309377527753  1.03232799329933
 6 -8.55433323092309  5.99746077977798  0.20862784818482
 6 -8.43270716201620  7.14429054765476  0.89443569336934
 7 -9.11895416801680  0.55022788388839 -0.66016004970497
 6 -9.83655991569157  1.75460541364136 -0.69390571467147
 6 -11.15353445004500  1.39245758485849 -1.11601332083208
 6 -11.23019542344234  0.01859722382238 -1.31926064006401
 6 -10.01893757445744 -0.40801277557756 -0.86135115121512
 6 -12.32178100180018  2.37860843184318 -1.41345812061206
 6 -12.39594414071407 -0.83355076517652 -1.74893570207021
 6 -12.35289277767777 -1.11452386358636 -3.23352847144714
 7 -7.12220168846885 -1.42115172877288 -0.11385606260626
 6 -8.23081332113211 -2.25884105620562 -0.48857381258126
 6 -7.80532667826783 -3.65274354185419 -0.50294757205721
 6 -6.44647853195320 -3.63249758675868 -0.09323105500550
 6 -6.12581517791779 -2.24710299159916  0.10262306650665
 6 -8.54166163356336 -4.84501734413441 -0.89837831623162
 6 -5.26587105740574 -4.35066895039504  0.18223109570957
 8 -5.18109694759476 -5.54138862226223  0.15501253195320
 6 -4.13319689908991 -3.25093088288829  0.60837070237024
 6 -3.57813844474447 -3.56203142444244  2.03619399229923
 8 -3.83595519611961 -3.00605734193419  3.03824650575057
 8 -2.66068726242624 -4.59793451585158  1.94792337323732
 6 -2.20293088098810 -5.20485471457146  3.18532346784678
 6  2.80111262296230 -0.42413020762076 -1.29256045644564
 6  4.10345243424342 -0.19407758405841 -0.56997714671467
 6  5.12870635503550  0.44544080948095 -0.99520929362936
 6  5.02590101310131  1.39282193149315 -2.22040620592059
 6  6.41855618841884  0.40595244544454 -0.39751623682368
 6  7.72392993089309 -0.08617896479648 -1.12928987948795
 6  8.92090396299630 -0.22694782518252 -0.31365317811781
 6  10.22148277277728 -0.65007207890789 -1.10913188368837
 6  10.00266696689669 -2.22486342244224 -1.46029949494949
 6  11.42416529342934 -0.47540132093209 -0.14034316571657
 6  12.80254516221622 -0.73821787288729 -0.82005202810281
 6  13.89456892529253 -0.35006620942094  0.22149921742174
 6  15.30112623752375 -0.29418314741474 -0.46586482628263
 6  15.80540220912091 -1.75121275507551 -0.72987260496050
 6  16.32924703060306  0.42253661366137  0.39700420762076
 6  17.77563215261526  0.51004240264026 -0.12158797339734
 6  18.72886325582558  1.33571178817882  0.74988542154215
 6  20.21900056925692  1.50492082558256  0.35199996319632
 6  20.36624797859786  2.13450174737474 -1.03002399509951
 6  21.10651158195820  2.01319425572557  1.49243460686069
 1 -4.09472095659566  3.49594511591159  1.30475506240624
 1 -10.22233262596260  3.71286212121212 -0.32284767626763
 1 -10.42886617601760 -2.30989032983298 -1.22051870407041
 1 -2.76105256215622 -0.85747406130613  2.11688237943794
 1 -2.22531613681368  1.81000458305831  1.26657730813081
 1 -2.09218367586759  0.76116656955696  3.63397711121112
 1 -3.07571263126313  2.36374043154315  3.52427459285929
 1 -3.66050949364937  0.50138482248225  3.86169858265827
 1 -2.13711619651965 -1.64413437383738 -0.23747765696570
 1 -2.29576124862486  0.05436268666867 -0.45105514511451
 1 -0.28617213461346  0.52629724362436  0.95841624072407
 1 -0.01588939093909 -1.08120263546355  1.37264121932193
 1 -5.53996277167717  6.88040668476848  0.55524123332333
 1 -5.10590758015802  6.06449981308131  2.11815811291129
 1 -4.57140109610961  5.40160132653265  0.68582175777578
 1 -9.25090714321432  5.94448059615962 -0.67255748394840
 1 -8.83877509340934  8.11698243714372  0.62794241604160
 1 -7.70701016681668  7.13957035653565  1.77478586408641
 1 -12.10790489558956  2.96204653065307 -2.11893489818982
 1 -13.07638730793079  1.68737262846285 -1.81656284778478
 1 -12.77435916701670  2.88894754945495 -0.48309955395540
 1 -12.48456323472347 -1.76599604470447 -1.09065402030203
 1 -13.34371309020902 -0.43213995079508 -1.50785631313131
 1 -13.17653400600060 -1.74004869106911 -3.39694957945795
 1 -12.69843340754075 -0.26935147274728 -3.94463795949595
 1 -11.42189846914692 -1.51086595369537 -3.71493011301130
 1 -9.14274387738774 -4.75745648854886 -1.90940420452045
 1 -7.85772513731373 -5.82091209540954 -0.90238985198520
 1 -9.32183206810681 -4.95290031133113 -0.03224504710471
 1 -3.19900059595960 -3.17876112681268 -0.17458272977298
 1 -1.80705887238724 -4.38867530723072  3.57970088538854
 1 -2.94932454105411 -5.42862448004801  3.70178301720172
 1 -1.53409152065207 -5.88771804500450  2.72725667856786
 1  2.60258956305631 -1.40866270217022 -1.55261922692269
 1  2.56124360196020  0.11077535713571 -2.10068322052205
 1  4.42912381798180 -1.00497271247125  0.17468068406841
 1  3.85297426092609  1.74953366376638 -2.46769513921392
 1  5.57331274297430  2.34873513241324 -1.92016848504851
 1  5.42125943354335  0.78887999549955 -3.04476320732073
 1  6.67084914781478  1.44511851185119 -0.17153451065106
 1  6.46978109750975 -0.27516555395540  0.51097081378138
 1  7.49048643334333 -0.98189742494249 -1.57993931753175
 1  7.79056149204921  0.56017922602260 -2.04483740734073
 1  9.16597864946495  0.73155104010401  0.25433306550655
 1  8.66691518021802 -1.17415292149215  0.38137600130013
 1  10.49221677307731 -0.07898536083608 -2.01206609610961
 1  9.05222020752075 -2.26434441094109 -2.17095302010201
 1  10.86126868256826 -2.65006179007901 -2.04642888678868
 1  9.92629551555155 -2.92732467446745 -0.69578901860186
 1  11.31929961086109  0.63306553675368  0.32118360586059
 1  11.20480353375338 -1.09833579487949  0.83549417101710
 1  12.96279959885989 -1.65916407760776 -1.16088375597560
 1  12.81792554505450 -0.24821413041304 -1.77278063936394
 1  13.77756919361936  0.70930348634863  0.60045738873887
 1  13.76042879597960 -1.10937054175418  1.07553406990699
 1  15.24838812731273  0.20544002900290 -1.39019337733773
 1  15.90875831873187 -2.10787107920792  0.22367091319132
 1  15.23644669536954 -2.41700407600760 -1.51112852795280
 1  16.89779940934093 -1.77095262016202 -1.05386685618562
 1  15.83579878057806  1.38961679537954  0.59284582888289
 1  16.18217266446645  0.03089391429143  1.59634239543954
 1  17.93262420112011 -0.62804935233523 -0.49951329172917
 1  17.72068913341334  1.03998131703170 -1.26395997179718
 1  18.24785557815781  2.29401355905591  0.87603560886089
 1  18.89638679897990  0.86083026402640  1.70371037133713
 1  20.56612152485249  0.52934908310831  0.09243630763076
 1  19.81275538213821  3.19127268916892 -0.93220681408141
 1  21.42872712481248  2.38912556535654 -1.25458682198220
 1  19.93374727912791  1.63861567236724 -1.89329629862986
 1  20.98219419461946  1.59583769286929  2.44743436063606
 1  22.07285899219922  1.76086731643164  1.17392235853585
 1  21.09166889678968  3.02357244054405  1.82352279277928

