%nproc=4
%Mem=3GB
# td=(NStates=1) iop(3/107=0140000000,3/108=0140000000) CAM-B3LYP/6-31G(d,p) 

TD

0 1
12 -7.16044073577358  0.60786917041704 -0.02531616161616
 6 -4.92676149264926 -1.94733196379638  0.49686508890889
 6 -4.75796182678268  2.80487920582058  1.06932703790379
 6 -9.34046081058106  3.24858241124112 -0.36281875717572
 6 -9.53373947194719 -1.62796456215622 -0.95089189408941
 7 -5.15676270747075  0.46514260486049  0.77139496349635
 6 -4.43554580188019 -0.65191633483348  0.79121701640164
 6 -3.03921014161416 -0.45652405040504  1.26405207430743
 6 -3.06661988888889  1.02451115271527  1.58521480078008
 6 -4.38813904860486  1.47888253935394  1.12280667456746
 6 -2.96287246804680  1.28019083838384  3.10420573517352
 6 -1.93401913161316 -0.69053504270427  0.12630644094409
 6 -0.52887859705971 -0.67083033103310  0.71574495679568
 6  0.54410633383338 -0.75744236613661 -0.39225901600160
 8  0.27000721752175 -1.23043682138214 -1.56859425252525
 8  1.79686828522852 -0.45718565696570 -0.02713810141014
 7 -7.06753439683968  2.62745595549555  0.31162208630863
 6 -6.04105424922492  3.42474624202420  0.75402127822782
 6 -6.37351225962596  4.76946380998100  0.80513877257726
 6 -7.66326111141114  4.86378818401840  0.31849797619762
 6 -8.08459798729873  3.50147708650865  0.07037503610361
 6 -5.49897193109311  5.94741421512151  1.20606076127613
 6 -8.54466447444744  6.05513578317832  0.22623323582358
 6 -8.47179558955896  7.15428457815782  0.95618967826783
 7 -9.06802584368437  0.67447444184418 -0.57079365326533
 6 -9.76985447174717  1.90886421072107 -0.78833164666467
 6 -11.12132608530853  1.55475491999200 -1.17341220092009
 6 -11.11604109130913  0.21346889268927 -1.36163619191919
 6 -9.83807141074107 -0.37194738813881 -0.95557775907591
 6 -12.25038597629763  2.57251249264927 -1.41423087578758
 6 -12.23623741664166 -0.71816794059406 -1.78661799239924
 6 -12.11846375527553 -1.32348254055406 -3.23836448764877
 7 -7.16419938233823 -1.44611944764476 -0.23405608070807
 6 -8.27570189648965 -2.15955450095010 -0.54380596049605
 6 -7.83617565736574 -3.57884843624362 -0.54375467526753
 6 -6.52802059255926 -3.57984096619662 -0.22715479717972
 6 -6.17243097479748 -2.29993794959496 -0.05456362096210
 6 -8.76652899239924 -4.70246634503450 -0.93781716481648
 6 -5.44357982088209 -4.42366592999300  0.13379835393539
 8 -5.25049604190419 -5.58015487248725  0.12340828942894
 6 -4.21150565316532 -3.36724417181718  0.56220454205421
 6 -3.74022819961996 -3.69070701340134  1.89172514101410
 8 -4.04865764916492 -3.20876823472347  3.01521487968797
 8 -2.78901425422542 -4.68883750225022  1.80595963346335
 6 -2.24156311331133 -5.37254246014601  3.00719812021202
 6  2.89010533093309 -0.67001529042904 -1.01211472867287
 6  4.19362024722472 -0.42014728262826 -0.31354391719172
 6  5.18718420972097  0.48970549854985 -0.73917679467947
 6  5.03579730533053  1.26626430173017 -2.06642077707771
 6  6.47896417511751  0.39648026402640 -0.04568509290929
 6  7.65762721532153 -0.20074862286229 -0.85784611331133
 6  8.89613732533253 -0.13478529462946 -0.03609971237124
 6  10.18659412001200 -0.63737540074007 -0.93517923792379
 6  10.13342661926193 -2.10858873877388 -1.39604657065707
 6  11.39967463126312 -0.39975486658666  0.03311534903490
 6  12.77214494999500 -0.35949598309831 -0.63997150225023
 6  13.94654592639264  0.00412469816982  0.21535794739474
 6  15.26076206720672 -0.22712179577958 -0.44329998249825
 6  15.69140541154115 -1.64096248454845 -0.75659748604861
 6  16.45670266296630  0.36974349164916  0.40294502920292
 6  17.83350093779378  0.53831756135614 -0.33548007500750
 6  18.76990740934093  1.33172125062506  0.49731298799880
 6  20.30747355175518  1.43761319381938  0.05678238423842
 6  20.39092193799380  2.19280658575858 -1.29346404230423
 6  21.19368443544354  2.03662536243624  1.05317925792579
 1 -4.07707807130713  3.58132138353835  1.49174527032703
 1 -10.09308143144315  3.89948222272227 -0.58912343854385
 1 -10.13530795489549 -2.39481501660166 -1.48532635203520
 1 -2.89621690889089 -0.96773697639764  2.17275376607661
 1 -2.28596206250625  1.67522958405841  1.14110775977598
 1 -1.96297938433843  1.05563466986699  3.44794513191319
 1 -2.91994910401040  2.39681890469047  3.42061008320832
 1 -3.90391319181918  0.76726188048805  3.46516820202020
 1 -2.12855797479748 -1.72103277407741 -0.19867787488749
 1 -2.15231160016002  0.03682130193019 -0.59366610121012
 1 -0.33928935763576  0.18886847414741  1.16615047804781
 1 -0.35776419671967 -1.27396816341634  1.59122258055806
 1 -5.44442862056206  6.95588310031003  0.69555938723872
 1 -5.59610108140814  6.10088296969697  2.27085909840984
 1 -4.27434227882788  5.62721698969897  1.28212894549455
 1 -9.40262052185219  5.75468885088509 -0.38777012971297
 1 -9.13248231193119  8.08370809180918  0.66174595029503
 1 -7.54522245434543  7.41523836023602  1.55056401670167
 1 -12.08756922992299  3.28826797389739 -2.21585741724172
 1 -13.15108240594059  2.09509825222522 -1.84972070027003
 1 -12.58615964866487  3.22500983508351 -0.62273271277128
 1 -12.27023898879888 -1.52284320712071 -0.91244474537454
 1 -13.43675597469747 -0.29839254975498 -1.72577833223322
 1 -12.93121832103210 -1.76095975807581 -3.44813577167717
 1 -12.11250165586559 -0.48970744204420 -4.05449442784278
 1 -11.24462930233023 -1.82615364256426 -3.45511378957896
 1 -9.21468608720872 -4.72812931373137 -2.08349441244124
 1 -8.18958334353435 -5.75167112041204 -1.05605556065607
 1 -9.61802598159816 -4.84551299969997 -0.15473774247425
 1 -3.47488500700070 -3.32056866246625 -0.08922666076608
 1 -1.56238962656266 -4.59510172357236  3.63452517011701
 1 -3.18126456375638 -5.90486001090109  3.52120315801580
 1 -1.60126064656466 -6.00379116391639  2.52198555965597
 1  2.71714976977698 -1.62282890569057 -1.49334078277828
 1  2.49210565186519  0.01949003380338 -1.84679573707371
 1  4.27070755745575 -1.00737915171517  0.63932533273327
 1  4.00959627112711  1.21966750945094 -2.55700618631863
 1  5.34713164536454  2.30548097199720 -1.83854129252925
 1  5.72461202970297  0.88677986888689 -2.83147940484048
 1  6.88537672157216  1.31592157275728  0.45052466636664
 1  6.45074294639464 -0.21630896759676  0.89004520002000
 1  7.35555767856786 -1.01859253225323 -1.17336209340934
 1  7.84385694419442  0.41184028702870 -1.76750757365737
 1  9.30823686798680  1.06156565406541  0.13004543264326
 1  8.72008512931293 -0.83277162986299  0.83138926232623
 1  10.54986961876188  0.07328347614761 -1.72771792979298
 1  9.11368097719772 -2.25201348484849 -2.00926930883088
 1  10.82753189378938 -2.53893729302930 -1.95799115721572
 1  10.09509170627063 -2.98618273297330 -0.69199659335934
 1  11.35791743334333  0.59477591099110  0.48941671247125
 1  11.41935953145315 -1.13907520512051  0.91977829792979
 1  12.93582153465347 -1.27977539683968 -1.15471774327433
 1  12.81805763566357  0.38291322732273 -1.48742307600760
 1  13.88901032133213  0.94404976827683  0.80632546124612
 1  13.91515982658266 -0.79694607350735  1.07474984898490
 1  15.31022142354236  0.19866326332633 -1.35680694949495
 1  15.71278507530753 -2.19887922912291  0.32559442394239
 1  14.72972461686168 -2.05715023502350 -1.10866223972397
 1  16.42725100470047 -1.66650754775478 -1.51659817311731
 1  16.03718699219922  1.30354868856886  0.79577549384939
 1  16.56321039883989 -0.29804608940894  1.45675417011701
 1  18.22554929262926 -0.41366788078808 -0.25187538313831
 1  18.10060737033703  0.86196509060906 -1.21290703430343
 1  18.57020607750775  2.45350661866187  0.52985493229323
 1  18.70311627412741  0.93450829032903  1.60588383388339
 1  20.79187902020202  0.11873287088709  0.12301819401940
 1  19.86094291279128  3.13619439593959 -1.08384056875688
 1  21.47962176297630  2.04591573367337 -1.80308829002900
 1  19.69092749034904  1.86720701090109 -2.05906429082908
 1  21.35839969346934  1.17526316721672  1.90365403420342
 1  22.22046993979398  2.26834730543054  0.64511116471647
 1  20.70435051355136  2.93959007620762  1.30456759345935

