%nproc=4
%Mem=2GB
# td=(NStates=1) CAM-B3LYP/6-31G(d,p) 

TD

0 1
12 -7.06859743274327  0.64354310241024 -0.01408372097210
 6 -4.82973759175918 -2.03565474387439  0.45073160586059
 6 -4.79707963686369  2.83289173647365  1.15215158005801
 6 -9.41013574907491  3.07942343784378 -0.48886174587459
 6 -9.50890120382038 -1.71870738173817 -0.83634006310631
 7 -5.07289071367137  0.45795561366137  0.63983440174017
 6 -4.33024273037304 -0.74476429842984  0.77229525272527
 6 -2.92488149354935 -0.49485891159116  1.31448180238024
 6 -3.05525896429643  1.04860752905291  1.86145687638764
 6 -4.38626562146215  1.52433318211821  1.18619564946495
 6 -3.03060814291429  1.28115040314031  3.32206361526153
 6 -1.89096255725573 -0.65169043044304  0.18503246154615
 6 -0.39159658225823 -0.56630097729773  0.59103323262326
 6  0.36766790399040 -0.77920143304330 -0.57291267176718
 8  0.13258449854986 -1.10962637023702 -1.70710704240424
 8  1.71002281278128 -0.36075347174717 -0.25716250515052
 7 -7.08478892679268  2.55109069886989  0.33553224872487
 6 -5.99799907890789  3.25902687848785  0.72988652225223
 6 -6.34197145024502  4.75736002540254  0.75719640684068
 6 -7.69781248824882  4.81700233173317  0.34889328062806
 6 -8.15716998859886  3.52002119741974 -0.02397985168517
 6 -5.51462941964196  5.90002246814682  1.10489525002500
 6 -8.56039383698370  6.08831986568657  0.13277026242624
 6 -8.31491538283828  7.28434455305531  0.68672492229223
 7 -9.09336160876088  0.63844670577058 -0.45958999269927
 6 -9.84337059675968  1.79658961206121 -0.66338266236624
 6 -11.17657675427543  1.44796313541354 -1.19781150065006
 6 -11.26301870577058  0.11890725482548 -1.24988370237024
 6 -9.95401108180818 -0.39428140244024 -0.81608662476248
 6 -12.27929675337534  2.52041261226123 -1.45394216901690
 6 -12.36777132343234 -0.73551096119612 -1.64304511301130
 6 -12.34378186658666 -0.98097050825083 -3.08140325892589
 7 -7.16299576787679 -1.41355096869687 -0.17534221122112
 6 -8.29759999979998 -2.19822499459946 -0.52295725092509
 6 -7.81379752535254 -3.62826109360936 -0.53803108040804
 6 -6.48001188528853 -3.56008034503450 -0.12857458935894
 6 -6.17525012141214 -2.23344162546255  0.11248405260526
 6 -8.62158962636263 -4.92530537293729 -0.54653313171317
 6 -5.30262473277328 -4.35900978447845  0.17069994259426
 8 -5.09910874877488 -5.55354983838384  0.20038706940694
 6 -4.12570615001500 -3.31742753255326  0.51738160346035
 6 -3.46376700760076 -3.69835505680568  1.84404477737774
 8 -3.64135573617362 -3.06864360056006  2.90403308440844
 8 -2.82560375407541 -4.77808253065306  1.70812939383938
 6 -2.02102269016902 -5.34287851695169  2.93040797629763
 6  2.70270278197820 -0.72938073267327 -1.19871107150715
 6  4.02118420742074 -0.30305848214821 -0.52442259125913
 6  5.04036752115212  0.42715898129813 -1.01052082478248
 6  4.99510793379338  1.08409105840584 -2.41252541784178
 6  6.35473980678068  0.48732058225823 -0.29454593979398
 6  7.63259079697970  0.03121277437744 -0.97390434093409
 6  8.83958583118312 -0.00276540694069 -0.08391020382038
 6  10.19686031053105 -0.57598467016702 -0.91258222872287
 6  10.16292299249925 -1.97004794089409 -1.32777624262426
 6  11.39183206010601 -0.19758353915392 -0.03638276967697
 6  12.74193910161016 -0.37341139223922 -0.86002602550255
 6  13.88488795719572 -0.09118032083208  0.15429249674967
 6  15.35896202110211 -0.20934466356636 -0.48949718951895
 6  15.66936860576058 -1.64195182898290 -0.73653327102710
 6  16.44165827172717  0.42700706070607  0.38556306350635
 6  17.73377796719672  0.65565696409641 -0.31064687928793
 6  18.85760613011301  1.26055427242724  0.73709414241424
 6  20.31249991919192  1.27365769926993  0.36160092329233
 6  20.36632798659866  2.00383868106811 -0.97751874457446
 6  21.10801173197320  1.91151408770877  1.49535489888989
 1 -4.25472695719572  3.76234175557556  1.47612219911991
 1 -10.28457885058506  3.84329516451645 -0.53921931343134
 1 -10.38426171557156 -2.30971031183118 -1.12612926512651
 1 -2.66145260216022 -1.10369868376838  2.08674936613661
 1 -2.22104570977098  1.72572615521552  1.31016166656666
 1 -2.07210166766677  0.87993844674467  3.59561327482748
 1 -3.31663672367237  2.39113317081708  3.58871103650365
 1 -3.84458790149015  0.63715839983998  3.72531494429443
 1 -2.07619010391039 -1.62802276267627 -0.41116502570257
 1 -2.14270594309431  0.17693494389439 -0.52747278687869
 1 -0.19466298369837  0.32707732163216  0.89926032513251
 1 -0.17708551055105 -1.29983449864987  1.20737469266927
 1 -5.64054282968297  6.67017566166617  0.39685539473947
 1 -5.95799278867887  6.23079644274427  2.08656495359536
 1 -4.36023997999800  5.63677484388439  1.15678885448545
 1 -9.41372342484248  5.71072722082208 -0.43533376157616
 1 -9.09198041394139  8.10234097299730  0.69862948474847
 1 -7.51568103390339  7.63979037853785  1.33514189968997
 1 -11.93704780988099  3.33263358935894 -2.16192919761976
 1 -13.11250091929193  1.90005389658966 -2.06889808130813
 1 -12.61932366346635  3.02281093579358 -0.45594683868387
 1 -12.34210898929893 -1.71069051415141 -1.13626858175818
 1 -13.29536825572557 -0.30400713751375 -1.32746827432743
 1 -13.36448280088009 -1.40754544074407 -3.34941482598260
 1 -12.44824838903891  0.06234169656966 -3.57328082378238
 1 -11.55796207550755 -1.57680254735474 -3.55788440844084
 1 -9.13625322832283 -5.01852259515952 -1.51921518561856
 1 -7.91635099989999 -5.82751275547555 -0.70090970397040
 1 -9.37293717861786 -5.01580660196020  0.12615079247925
 1 -3.38252894879488 -3.51618486918692 -0.28907417891789
 1 -1.65451361786179 -4.47186362606261  3.53198611391139
 1 -2.79641925052505 -5.84132575017502  3.43671651055106
 1 -1.38851696319632 -5.90252952615262  2.39257321022102
 1  2.68732803690369 -1.93720555645565 -1.58230219521952
 1  2.56855433303330 -0.23507922832283 -2.15646879907991
 1  4.16223712931293 -0.83387560276028  0.48702191819182
 1  4.01772073557356  0.81332004240424 -2.78570694039404
 1  5.22067747944795  2.25453571247125 -2.48956542474247
 1  5.80103741134113  0.72413352085208 -3.06244497549755
 1  6.56532859575958  1.48007200720072 -0.04872222942294
 1  6.49369348874887 -0.11212925032503  0.56376609330933
 1  7.29035642034203 -0.88728796399640 -1.64017534113411
 1  7.98685112101210  0.52209541764176 -1.97275019861986
 1  9.28571062266226  1.08483636863686  0.07485511771177
 1  8.65844433313331 -0.60483598979898  1.00684854855486
 1  10.24105165656566 -0.00816827912791 -1.92595748524853
 1  9.26162114761476 -2.17104508100810 -1.98160408520852
 1  10.95406796249625 -2.51689847374737 -1.83889813371337
 1  10.16575946194619 -2.68358030003000 -0.44373381308131
 1  11.44982266316632  0.82802503270327  0.25913740124012
 1  11.51712476587659 -0.84772073337334  0.80106072767277
 1  12.87657097599760 -1.40127828902890 -1.31388905650565
 1  13.00468422092209  0.44409510051005 -1.58724208550855
 1  13.73155459215922  0.88616117211721  0.64143148614862
 1  13.89429218231823 -0.66495610031003  0.93594011051105
 1  15.33991728022802  0.34460394539454 -1.33639799779978
 1  15.69764720762076 -2.19613990609061  0.26863540964096
 1  14.80306335703570 -1.95130750635064 -1.51327874297430
 1  16.50933056245625 -1.90751627652765 -1.26901837133713
 1  15.87615281598160  1.34029186288629  0.67386393069307
 1  16.43869831703170 -0.24686386148615  1.24426718791879
 1  18.30759169786979 -0.36548309570957 -0.60657399779978
 1  17.61838890339034  1.22994031293129 -1.30720429622962
 1  18.41736252885288  2.20346450415042  1.06307431273127
 1  18.51112827312731  0.45586976797680  1.60762076237624
 1  20.61140605330533  0.22275842404240  0.12585964996500
 1  19.73735784238424  3.12822638453845 -1.08142173557356
 1  21.36660091219122  2.24679133193319 -1.24949631293129
 1  20.03061696609661  1.28744055485549 -1.73012998199820
 1  21.00784675987599  1.40055816491649  2.49065868306831
 1  22.15534724102410  1.79081031073107  1.22333730003000
 1  20.85289501940194  3.01198128142814  1.60956139663966

