%nproc=4
%Mem=2GB
# td=(NStates=1) CAM-B3LYP/6-31G(d,p) 

TD

0 1
12 -7.10598117111711  0.58947769586959 -0.02644495709571
 6 -4.87605222322232 -1.96091727012701  0.58528506120612
 6 -4.91539146804680  2.82226067336734  1.31892825772577
 6 -9.44975971147115  3.12167766326633 -0.50513337303730
 6 -9.59476979067907 -1.69396490749075 -0.83535996509651
 7 -5.10251367596760  0.45490530863086  0.76029644794479
 6 -4.37837754385439 -0.70229005100510  0.80749877307731
 6 -2.92340134553455 -0.39764919061906  1.34313466766677
 6 -3.07729116751675  1.07987065536554  1.77753848454846
 6 -4.41970896579658  1.50430117891789  1.22425945584558
 6 -2.95703078517852  1.19878216631663  3.33857526642664
 6 -1.91786524752475 -0.57985324672467  0.15270922922292
 6 -0.52220964356436 -0.40902524972497  0.60731486078608
 6  0.57527866506651 -0.61590510341034 -0.40233561406141
 8  0.28158939903990 -1.00481588918892 -1.53705003670367
 8  1.86755856635664 -0.34823221962196 -0.04663145204520
 7 -7.11282173007301  2.64848043784378  0.21578027352735
 6 -6.08728800780078  3.40326130193019  0.86817035063506
 6 -6.50596784988499  4.77708199759976  0.91302198939894
 6 -7.80817352435244  4.84435506700670  0.33329172047205
 6 -8.19450372197220  3.48702789808981 -0.02119957365737
 6 -5.65919387608761  5.92987545344534  1.21275603610361
 6 -8.65873367096710  6.05574660836084  0.03243022842284
 6 -8.68425231653165  7.12840895949595  0.86657290709071
 7 -9.11395366796680  0.66887974907491 -0.52886692039204
 6 -9.87116337603760  1.79837979107911 -0.80682700680068
 6 -11.14121321792179  1.48879721882188 -1.27855957545755
 6 -11.22132453635363  0.07554291839184 -1.31291000500050
 6 -9.94877055775578 -0.43672564686469 -0.84845986208621
 6 -12.21506032973297  2.43287385838584 -1.52918969376938
 6 -12.36642118841884 -0.78288569866987 -1.71977278577858
 6 -12.16233372177218 -1.13516592779278 -3.28964408300830
 7 -7.25558502680268 -1.48364797839784 -0.22305698269827
 6 -8.31500173997400 -2.29360453255326 -0.54964992019202
 6 -7.79080522612261 -3.61189945744574 -0.54916219351935
 6 -6.53954783888389 -3.52964730173017 -0.03923565546555
 6 -6.18087068346835 -2.18621690299030  0.16037884208421
 6 -8.55907337473747 -4.93323616601660 -0.90803928232823
 6 -5.36325079537954 -4.37739162266227  0.25509838243824
 8 -5.22171100900090 -5.60791527492749  0.16503353405341
 6 -4.25835941534153 -3.40450624042404  0.61459132443244
 6 -3.60905153605361 -3.69570479177918  1.85157553045305
 8 -3.72258385898590 -3.05604234043404  2.91581426252625
 8 -2.84904609830983 -4.78568329072907  1.82512109300930
 6 -2.19906049394939 -5.22999722882288  2.96428136363636
 6  2.70281279297930 -0.50795859045905 -1.09736093649365
 6  4.14101619061906 -0.34030220652065 -0.46116626562656
 6  5.11631511591159  0.29352561796180 -1.11123089578958
 6  5.12476089908991  1.16747939723972 -2.39269343464346
 6  6.51760609340934  0.46119796999700 -0.39117560276028
 6  7.71162870077008 -0.12132247914792 -1.12653960446045
 6  8.90530240284028  0.18337320692069 -0.24085589838984
 6  10.17210783528353 -0.39972704440444 -0.98561953245325
 6  10.12319902010201 -1.87253818991899 -1.34973843884388
 6  11.38792166906691 -0.21170495129513  0.02020288888889
 6  12.75699060676068 -0.42314636573657 -0.67674769766977
 6  13.99837930633063 -0.20459166196620  0.20375744324432
 6  15.42536866176618 -0.28651238033803 -0.37243548334833
 6  15.82215388428843 -1.68175580938094 -0.69233885158516
 6  16.52048615451545  0.26285064506451  0.54388889608961
 6  17.89845443484348  0.41473287168717 -0.12294810941094
 6  18.86953732323232  1.11493971097110  0.76811724472447
 6  20.38548721792179  1.28046838033803  0.09531429462946
 6  20.32263361716172  2.14557285448545 -1.20671166386639
 6  21.33943487428743  1.81102403870387  1.03267863126313
 1 -4.33482496699670  3.76153167456746  1.76599118601860
 1 -10.17504789748975  3.92226306130613 -0.75457084858486
 1 -10.26018930833083 -2.33385272607261 -1.42121877407741
 1 -2.64111056795680 -1.03667198109811  2.16963765496550
 1 -2.19538314351435  1.80770435303530  1.31227187758776
 1 -1.77005146264626  0.92000245314531  3.79596330983098
 1 -3.21389644964496  2.24398845634563  3.61046321172117
 1 -3.63399684238424  0.24741942594259  3.71229364216422
 1 -2.12147463236324 -1.55580554095410 -0.28535244444444
 1 -2.26172784528453  0.26132338273827 -0.62600263986399
 1 -0.27216073347335  0.54240885478548  1.10381078017802
 1 -0.28694649664967 -1.13348786398640  1.37741169636964
 1 -6.22597137253725  6.70273891799180  0.55952166136614
 1 -5.58047503690369  6.06263962706271  2.22786908400840
 1 -4.69382333833383  5.82360352675267  0.86424960056006
 1 -9.24176622912291  6.03820996909691 -0.80522075027503
 1 -9.36142735863586  8.08011875077508  0.66120574237424
 1 -8.02286175197520  7.18395479497950  1.57585597109711
 1 -11.95837994309431  3.05193551955196 -2.42904590929093
 1 -13.14513418261826  2.06808069926993 -1.67513870537054
 1 -12.16720845194519  3.11210986568657 -0.66635787978798
 1 -12.43518829722972 -1.69050849594960 -1.18449340424042
 1 -13.17591631053105 -0.29353609040904 -1.59768529602960
 1 -12.90404675727573 -1.92998768496850 -3.53614349884989
 1 -12.03002656685669 -0.12277681528153 -3.92527602330233
 1 -11.19422570187019 -1.73533840094009 -3.45716433643364
 1 -8.73155275827583 -5.00405114801480 -2.03990725482548
 1 -7.91556092089209 -5.90193019721972 -0.78031764476448
 1 -9.51674155905591 -4.90655567686769 -0.44892671527153
 1 -3.39383007890789 -3.47219046974697 -0.24438971047105
 1 -1.81842000850085 -4.51397783748375  3.44444736003600
 1 -2.91817142574257 -5.56557817541754  3.70517335623562
 1 -1.38942705420542 -6.03115238843884  2.51591554445445
 1  2.65033433753375 -1.59057089298930 -1.45684964996500
 1  2.54533201080108  0.07127140674067 -1.95822897509751
 1  4.32894379998000 -0.85624783998400  0.36709992599260
 1  4.10093905740574  1.43205191559156 -2.72617098679868
 1  5.66113152485249  2.04059431833183 -2.24832130033003
 1  5.47827513511351  0.57583869136914 -3.23218194919492
 1  6.72413447634763  1.59033303330333 -0.23604096129613
 1  6.47768188758876  0.09100106270627  0.78554827152715
 1  7.46402378707871 -1.15164439963996 -1.48962028562856
 1  7.91414385028503  0.45002821092109 -2.00461338493849
 1  9.13924597619762  1.04284216921692  0.01346897909791
 1  8.77808629732973 -0.40471597779778  0.74132199589959
 1  10.48657620902090  0.18166070377038 -1.96747163666367
 1  9.43736872237224 -2.16361433793379 -2.24578050285029
 1  11.03789634533453 -2.32876966086609 -1.65378962286229
 1  9.82981586758676 -2.47017895989599 -0.39550899059906
 1  11.49135681658166  0.79717194739474  0.50424191169117
 1  11.37375042844285 -0.80142610391039  0.83830445204520
 1  12.87803112201220 -1.40942910411041 -0.95282294989499
 1  12.92933668616862  0.28015870687069 -1.58350171147115
 1  13.74591602830283  1.11933448944894  0.50140748374837
 1  13.93220597369737 -0.94667427212721  1.07968448494849
 1  15.55765905440544  0.03644312931293 -1.20767512551255
 1  15.84988243114312 -2.22713300540054  0.15817436353635
 1  15.21332438313831 -2.34936731233123 -1.18635605070507
 1  16.76166579597960 -1.82917844274427 -1.14976644614461
 1  16.01188638933893  1.21157899159916  1.00368691299130
 1  16.54058850605060 -0.19440861596160  1.49723248444844
 1  18.23262420112011 -0.65559210661066 -0.48856219661966
 1  17.84886195069507  1.18966628552855 -1.02171574737474
 1  18.64802559515952  2.13889804750475  0.96276428172817
 1  18.69275643594360  0.61689587058706  1.77668766906691
 1  20.71705661836184  0.37715386358636 -0.35061799779978
 1  19.82069617621762  3.17932149404940 -0.98351194459446
 1  21.19475372747275  2.38999565236524 -1.58951031433143
 1  19.79352325672567  1.67873968476848 -2.06541351035104
 1  21.38804477967797  1.21207931703170  1.76115573277328
 1  22.39556126242624  2.03897512721272  0.63381834813481
 1  21.15821555145515  2.95137522082208  1.43931437193719

