%nproc=4
%Mem=3GB
# td=(NStates=1) iop(3/107=0140000000,3/108=0140000000) CAM-B3LYP/6-31G(d,p) 

TD

0 1
12 -7.23148784048405  0.68995737923792  0.16925329532953
 6 -4.87743656015602 -1.96096332693269  0.52771817421742
 6 -4.82256828742874  2.73670238813881  1.15299540474047
 6 -9.45370213471347  3.21023857685769 -0.42484495979598
 6 -9.53250934893489 -1.67839960566057 -0.88774557945795
 7 -5.12383941514151  0.43753984458446  0.77847567156716
 6 -4.36523877117712 -0.74151529472947  0.73488138283828
 6 -2.98174439503950 -0.44904330233023  1.23785945504550
 6 -3.01838506540654  1.09147784938494  1.75402168146815
 6 -4.38762899759976  1.39920457155716  1.20734512841284
 6 -2.75226140694069  1.20474329362936  3.27111242584258
 6 -1.83446917661766 -0.68440442964296  0.06057986828683
 6 -0.39237494669467 -0.46390963896390  0.49233261556156
 6  0.53019494269427 -0.79340596249625 -0.59385917601760
 8  0.30493070987099 -1.27816159385939 -1.71633902700270
 8  1.83398199659966 -0.52393233163316 -0.26764215181518
 7 -7.14889253265327  2.57219042894289  0.40410133423342
 6 -6.02146229002900  3.37139090649065  0.74924080018002
 6 -6.36627153555355  4.75700256385639  0.75899415811581
 6 -7.58339312461246  4.87628943414341  0.30661678807881
 6 -8.09089861736174  3.51862880168017  0.08416641524152
 6 -5.33232526642664  5.88376785048505  1.17672782798280
 6 -8.49411941994199  6.07037730733073  0.20782139463946
 6 -8.31274968496850  7.24292344204420  0.81318537783778
 7 -9.12332137323732  0.80009700410041 -0.58892546644664
 6 -9.87375486178618  1.88824214851485 -0.70971378487849
 6 -11.26208016071607  1.55867531203120 -1.18009286898690
 6 -11.24919440664066  0.24016156195620 -1.34346437473747
 6 -9.89777738133813 -0.36253644704470 -0.86553875517552
 6 -12.32245318301830  2.51823706510651 -1.50444989768977
 6 -12.41265505840584 -0.73313943774377 -1.72395172577258
 6 -12.31065297419742 -1.11280147244724 -3.14855550675068
 7 -7.30602356475648 -1.36751158685869 -0.04169684478448
 6 -8.28345267156716 -2.21167971347135 -0.54511609150915
 6 -7.88008004780478 -3.57990854225423 -0.51893219301930
 6 -6.55375316581658 -3.60951393349335 -0.13788587028703
 6 -6.27029076077608 -2.17555551135114  0.09983181858186
 6 -8.65812815231523 -4.82319841824182 -0.90962434553455
 6 -5.38297376027603 -4.36030959435944  0.09442441654165
 8 -5.28877987028703 -5.57367422442244  0.14582053065307
 6 -4.19961446404641 -3.36911435883588  0.52513083468347
 6 -3.54187836463646 -3.71922986568657  1.84362033053305
 8 -3.77289007240724 -3.16042340024002  2.97843120132013
 8 -2.70709606240624 -4.76146476497650  1.84732376987699
 6 -2.30117907490749 -5.28307351325132  3.02904030443044
 6  2.83995031543154 -0.79412770167017 -1.32936645384538
 6  4.08463934913491 -0.44723999189919 -0.56023858665867
 6  5.06946243754375  0.35241176917692 -1.05213809080908
 6  5.02506623222322  1.13694136943694 -2.36108024302430
 6  6.38092437113711  0.32458307430743 -0.28561908630863
 6  7.64910636323632 -0.25831437943794 -0.99038936763676
 6  9.00074778637864 -0.16096791289129 -0.05509161156116
 6  10.20079554015402 -0.61962362556256 -0.80148586858686
 6  10.04199747634764 -2.02884076397640 -1.29100606660666
 6  11.42886755055505 -0.32208709980998 -0.04977293979398
 6  12.75857359285929 -0.40892092559256 -0.70819832493249
 6  13.96549782158216 -0.07493320762076  0.18586499809981
 6  15.42002799379938 -0.22557164076408 -0.51277693019302
 6  15.86560283128313 -1.53474186248625 -0.89299112541254
 6  16.41760875357536  0.42929944724472  0.49614434913491
 6  17.72841042874288  0.57611134073407 -0.10084661166117
 6  18.79815023362336  1.41088916741674  0.77520077677768
 6  20.19986279067907  1.45872530503050  0.17107381338134
 6  20.30959380518052  2.19292659775978 -1.02160685658566
 6  21.29986505350535  1.95229692959296  1.25731967196720
 1 -4.17135749924993  3.40260351175118  1.72010810661066
 1 -10.22757488078808  4.03104537903790 -0.57852237843784
 1 -10.27543196729673 -2.29164469956996 -1.21608942834283
 1 -2.71756904410441 -0.73787399009901  2.20851734243424
 1 -2.37239070537054  1.60870293139314  1.20784443344334
 1 -1.92639572597260  0.85675478187819  3.62172250965097
 1 -2.62683979307931  2.25652487528753  3.80178820102010
 1 -3.54699750025002  0.71905706000600  3.86527821302130
 1 -2.09794491349135 -1.61762243304330 -0.31957996509651
 1 -1.97960432943294  0.10319793959396 -0.67165389999000
 1 -0.24501993069307  0.49456904420442  0.97649151215122
 1 -0.09749817011701 -0.97035780238024  1.44992845114512
 1 -5.52027620532053  6.75151266326633  0.55240507180718
 1 -5.31370284158416  6.03232611401140  2.31481349384938
 1 -4.41320616521652  5.65440970897090  0.72635336793679
 1 -9.31357161696170  5.92380576257626 -0.57608896159616
 1 -8.90612967666767  8.18873859485949  0.82113188888889
 1 -7.51802973507351  7.45172200860086  1.59824878517852
 1 -12.08456892989299  3.28231737883788 -2.26758258975898
 1 -13.21896919461946  2.04132287468747 -2.00362609080908
 1 -12.74442547524752  3.37932526662666 -0.63946438593859
 1 -12.08938090299030 -1.56071699449945 -0.87565106600660
 1 -13.44250654975498 -0.22923563406341 -1.43184893929393
 1 -13.21736693589359 -1.70290395249525 -3.51793275137514
 1 -12.53912431813181 -0.11976044734473 -3.59494847324732
 1 -11.23149798919892 -1.66352737993799 -3.41926020422042
 1 -9.00583520212021 -4.81050755155515 -2.04942100510051
 1 -8.21351573677368 -5.83092904620462 -0.86091604670467
 1 -9.58583276227623 -4.94480292869287 -0.39844211291129
 1 -3.48382590109011 -3.37178378397840 -0.29143688178818
 1 -1.59264265186519 -4.68100031343134  3.59495121272127
 1 -3.16777321462146 -5.30154967986799  3.64381541924192
 1 -1.80344086458646 -6.28984976977698  2.89316267736774
 1  2.83890194499450 -1.73776039883988 -1.55855730443044
 1  2.49074551585158 -0.10858277347735 -2.28808986648665
 1  4.15633612031203 -0.78067648144814  0.38864026422642
 1  3.99535484698470  0.96745228792879 -2.78257874357436
 1  5.17980491269127  2.18033845774577 -2.03750118851885
 1  5.75120468896890  0.46765795669567 -3.09322557945795
 1  6.74804298819882  1.51454143474347  0.02815242914291
 1  6.19931780388039 -0.25523285998600  0.62663885938594
 1  7.43508563136314 -1.33605427842784 -1.27280203740374
 1  7.95526808530853  0.31920102310231 -1.93720454335434
 1  8.83938998329833  0.96132563006301  0.21976440454045
 1  8.79582270307031 -0.81838019071907  0.82414853825383
 1  10.24176880868087  0.03539968776878 -1.67671282928293
 1  9.38433804290429 -2.11152943644364 -2.16568495039504
 1  11.10905004560456 -2.46438983828383 -1.54471983008301
 1  9.93647584468447 -2.58908302300230 -0.23167056075608
 1  11.15381702330233  0.61694812821282  0.32943071387139
 1  11.22213980948095 -1.00079137673767  0.83603992409241
 1  12.89080703320332 -1.25885330463046 -1.13843611511151
 1  12.89620545044504  0.05324026002600 -1.70455478917892
 1  13.82569398969897  0.90238560186019  0.84443927262726
 1  14.05739405000500 -0.95323170207021  0.95258763276328
 1  15.31596199759976  0.59104250125013 -1.27001827062706
 1  16.09317311411141 -2.14715405660566 -0.06897503300330
 1  15.16838848324833 -2.02715723572357 -1.64757613111311
 1  16.73953223282328 -1.27085798279828 -1.54229074237424
 1  15.88798207170717  1.38114644834483  0.60406632293229
 1  16.31962604040404 -0.15997228202820  1.55023351805181
 1  18.24019075677568 -0.48571508550855 -0.12212240784078
 1  17.59285659525953  1.11015991009101 -1.10605634923492
 1  18.33388244514451  2.38636990499050  0.93318526532653
 1  18.76607256975698  1.10419525902590  1.80057330283028
 1  20.40776060836084  0.35302630023002 -0.04052816061606
 1  19.95527234573457  3.16566734323432 -0.65513769846985
 1  21.39579338013801  2.47743888598860 -1.22473045424542
 1  19.93387178477848  1.76975726592659 -2.03487187158716
 1  21.06577043054305  1.42583822472247  2.41329499829983
 1  22.40383827662766  1.76757722842284  0.80135678927893
 1  21.08173825232523  3.12859897709771  1.45121225792579

