%nproc=4
%Mem=2GB
# td=(NStates=1) CAM-B3LYP/6-31G(d,p) 

TD

0 1
12 -7.10913148614861  0.67802655075508  0.04656234363436
 6 -4.83191780978098 -1.94228540694069  0.45575210791079
 6 -4.83865379427943  2.81649009630963  1.18171453635364
 6 -9.41637637313731  3.17333282878288 -0.44230709040904
 6 -9.52875318901890 -1.80848635963596 -0.74934136323632
 7 -5.06468989358936  0.42223204130413  0.69325974427443
 6 -4.26574628072807 -0.70124994699470  0.73479150235024
 6 -2.93220222562256 -0.30441986768677  1.27828818301830
 6 -3.04191763016302  1.12759542784278  1.73841457215722
 6 -4.35412240714071  1.57126787558756  1.14862189208921
 6 -3.00608569066907  1.18951123922392  3.24361577047705
 6 -1.86447990899090 -0.55201046244624  0.12344630293029
 6 -0.45295271787179 -0.41315566276628  0.55832996229623
 6  0.46077721492149 -0.65357887078708 -0.53807918841884
 8  0.21472271237124 -1.00168557615762 -1.67742407410741
 8  1.82719452995300 -0.52992038843884 -0.19477626652665
 7 -7.14000444834484  2.66426201600160  0.31444013951395
 6 -6.04603388238824  3.40902187798780  0.76993052665267
 6 -6.44776202930293  4.83161745114511  0.82484317151715
 6 -7.79677238423842  4.96304693619362  0.27861625292529
 6 -8.11901617321732  3.59026822212221 -0.09728718241824
 6 -5.51328928562856  5.86408887478748  1.05682044254425
 6 -8.62980077767777  6.04127516121612  0.29947693309331
 6 -8.53278717001700  7.18840495909591  0.98124437423742
 7 -9.13895616821682  0.63695655675568 -0.42972700640064
 6 -9.84437069676968  1.82956290939094 -0.66693301740174
 6 -11.23380247684768  1.47858619771977 -1.15280700020002
 6 -11.27560996489649  0.04395976007601 -1.27471618561856
 6 -9.90477615831583 -0.47767974227423 -0.82755777187719
 6 -12.25565438913891  2.45553612461246 -1.51389816461646
 6 -12.36591113741374 -0.84436184628463 -1.77139794829483
 6 -12.35378286668667 -1.00334274547455 -3.37833295189519
 7 -7.22378184648465 -1.32535214881488 -0.24871954895490
 6 -8.21501174097410 -2.18707387948795 -0.52254720992099
 6 -7.74466061166117 -3.58269653715372 -0.55377265456546
 6 -6.38957284138414 -3.43333767076708 -0.16820855275528
 6 -6.16514911131113 -2.18108638993899 -0.06843403920392
 6 -8.53556102350235 -4.81700454285429 -0.56757523592359
 6 -5.31432590289029 -4.32826671017102  0.21767464006401
 8 -5.14058289618962 -5.52161664506451  0.28134516521652
 6 -4.17055063446345 -3.31706749654965  0.52591245654565
 6 -3.49592022292229 -3.62459768106811  1.91190156305631
 8 -3.76470807140714 -3.03716045224522  2.94839752085208
 8 -2.68147934163416 -4.72239696209621  1.77494607550755
 6 -2.17752834073407 -5.31424565366537  3.02806774227423
 6  2.74841735343534 -0.75015280988099 -1.28662986338634
 6  4.13757584658466 -0.68160633693369 -0.69387953695370
 6  5.09941342574257  0.25571183658366 -0.96977675037504
 6  5.04308273127313  1.13437608690869 -2.17203136843684
 6  6.33032736553655  0.21186303650365 -0.18959544474447
 6  7.65739327722772 -0.39829017591759 -0.93764071457146
 6  8.95882775537554 -0.19651478187819 -0.14390620342034
 6  10.27074769926993 -0.62845991769177 -0.92338330883088
 6  10.18172487268727 -2.07484842094209 -1.48519198419842
 6  11.42495537243724 -0.28230201100110 -0.10021915331533
 6  12.74999990769077 -0.64716876797680 -0.72437246014601
 6  14.00672014041404 -0.20965216801680  0.20241730923092
 6  15.44440056495650 -0.27091082018202 -0.47329556935694
 6  15.75240690959096 -1.68950658445845 -0.93274289198920
 6  16.35295940184018  0.41609596959696  0.40072457965797
 6  17.79707429682968  0.49423082148215 -0.13021883648365
 6  18.68368873837384  1.35172338933893  0.80446087908791
 6  20.19155782498250  1.54129446294629  0.29771453465347
 6  20.28411976577658  2.25826412361236 -1.03345433813381
 6  21.12238316911691  2.21466440274027  1.36370173357336
 1 -4.15537702220222  3.56115163656366  1.60644523142314
 1 -10.33649404210421  3.78328916391639 -0.59518490999100
 1 -10.43748703810381 -2.34482382318232 -1.07486413861386
 1 -2.66007246414641 -0.92157047094709  2.22781347254725
 1 -2.37317092229223  1.70787437003700  1.15577622802280
 1 -2.07534199169917  0.96708716161616  3.56966067956796
 1 -3.40766582658266  2.12836689418942  3.49796196159616
 1 -3.55057850055006  0.29584426842684  3.41337375017502
 1 -2.00217270217022 -1.55850581098110 -0.05303921312131
 1 -2.07564923742374  0.06366361676168 -0.68855889548955
 1 -0.10079359675968  0.46720133403340  0.87135753485349
 1 -0.24208201020102 -1.11613612881288  1.34613856905691
 1 -5.94544331973197  6.92574121822182  0.65101081028103
 1 -5.51550854025403  6.27467083018302  2.13872016911691
 1 -4.43689764576458  5.69184035043504  0.77146032163216
 1 -9.77594964746475  5.87343349144914 -0.08292852105211
 1 -9.53328454435444  7.77564830373037  1.24727434923492
 1 -7.69868933473347  7.15507190669067  1.68055644114411
 1 -12.04600870597060  2.95212553855386 -2.62061506620662
 1 -13.24101377057706  1.96177006820682 -1.56918811031103
 1 -12.46482821392139  2.91478013271327 -0.59202044604460
 1 -12.44118889728973 -1.78002744784478 -1.11199615451545
 1 -13.28579729862986 -0.47348408520852 -1.41132666016602
 1 -13.08985533813381 -1.98398308450845 -3.63550343484348
 1 -12.76379994419442 -0.29053359095910 -3.90373386908691
 1 -11.27349362866287 -1.21180604770477 -3.60564918491849
 1 -9.12824242724272 -4.77845858875888 -1.65122838693869
 1 -7.89168853365336 -5.76235623982398 -0.58484809780978
 1 -9.44680456535654 -4.85696071737174  0.06440461786179
 1 -3.42790348624862 -3.41110436113611 -0.28024329582958
 1 -1.71872003850385 -4.50990743044304  3.67182009730973
 1 -3.14782439103910 -5.57177879547955  3.64164700360036
 1 -1.61188930043004 -6.25761503470347  2.82422637553755
 1  2.57576688078808 -1.80733256915692 -1.56275024002400
 1  2.70668814641464 -0.02735845624562 -2.18203135533553
 1  4.32812371797180 -1.22694490969097  0.22382559855986
 1  4.13757272077208  1.32804151455145 -2.67787615731573
 1  5.41420683238324  2.22111237013701 -1.87440390859086
 1  5.79387669526953  1.01227233473347 -3.21543027402740
 1  6.43158522142214  1.18900290029003  0.29098174097410
 1  6.29602372177218 -0.37047508490849  0.54940465716572
 1  7.52525991069107 -1.35934516971697 -1.21891321492149
 1  7.67057949384939  0.03343655175518 -1.93175609920992
 1  9.19194124572457  0.87575546054605  0.08573620582058
 1  8.91869035773577 -0.81277678387839  0.64555241894189
 1  10.30527807920792 -0.14712217451745 -1.96260114961496
 1  9.18605359085909 -2.18405638213821 -2.02343826862686
 1  11.15795835153515 -2.48732551645164 -2.06315055895590
 1  10.25559844584459 -2.59194113611361 -0.49982942264226
 1  11.63073075397540  0.80879310951095  0.08931041854185
 1  11.33461651505151 -0.63687964926493  0.84842546414641
 1  12.93040635953595 -1.62259042024202 -0.96809447704770
 1  12.71445519801980 -0.17819712871287 -1.66806016731673
 1  13.77168860556056  0.82440499649965  0.45877322032203
 1  13.86448920202020 -0.84784438913891  1.25032154865487
 1  15.36839012751275  0.41779126412641 -1.38796315431543
 1  15.95289273217322 -2.39224951705171 -0.11545299919992
 1  15.10076312701270 -2.15568794439444 -1.65252266736674
 1  16.69515914531453 -1.92762828772877 -1.45772724222422
 1  16.00961616231623  1.49175700940094  0.39321586588659
 1  16.32831727892789  0.16926775167517  1.34997775897590
 1  18.12912385108511 -0.54634118151815 -0.23268660906091
 1  17.78806587108711  1.17670498939894 -1.28398197399740
 1  18.29975076767677  2.45043920162016  0.92996100140014
 1  18.86107326762676  0.86118029902990  1.76191619191919
 1  20.54912982568257  0.40887703590359  0.27991505550555
 1  20.05128923552355  3.35373893579358 -1.01154474787479
 1  21.40042429452945  2.34345099789979 -1.39838120142014
 1  19.76893079747975  1.70014182498250 -1.75780274927493
 1  21.05918189338934  1.78961707080708  2.29649926712671
 1  21.96665837213721  2.15660689038904  0.78001296759676
 1  20.70605033493349  3.08670875417542  1.58371881238124

