%nproc=4
%Mem=2GB
# td=(NStates=1) CAM-B3LYP/6-31G(d,p) 

TD

0 1
<<<<<<< HEAD
12 -7.06774734773477  0.63579232733273  0.04129181658166
 6 -4.90902552055206 -1.94514569296930  0.47823435613561
 6 -4.80488041694169  2.83583203050305  1.19027539243924
 6 -9.34008874437444  3.01677717321732 -0.38876173587359
 6 -9.52176248994900 -1.75411092209221 -0.98831526062606
 7 -5.16500992559256  0.41853167126713  0.77419783808381
 6 -4.38582828892889 -0.72876269826983  0.79443746694669
 6 -3.04549355475548 -0.40578000370037  1.31696205040504
 6 -3.15561900030003  0.98750141844184  1.92437316801680
 6 -4.37867486238624  1.50597134593459  1.27830486038604
 6 -3.13858894099410  1.22197448554855  3.43250465936594
 6 -2.01892535353535 -0.62495775717572  0.22772673097310
 6 -0.56441386398640 -0.31724607180718  0.73390752005201
 6  0.47039817701770 -0.62370588348835 -0.37451283178318
 8  0.23995523562356 -0.92403781138114 -1.55067139883988
 8  1.73304511501150 -0.48351574797480  0.04190740184018
 7 -7.07258770667067  2.61440703050305  0.19254795029503
 6 -6.02889216821682  3.43852482828283  0.71842537613761
 6 -6.41634888798880  4.81281557095710  0.74383507070707
 6 -7.64463717071707  4.81582221372137  0.29529792109211
 6 -8.14765903750375  3.46638583388339  0.03014556085609
 6 -5.36774473117312  5.91200366626663  1.04266902740274
 6 -8.50170796839684  5.97253828752875  0.05379236463646
 6 -8.44401829312931  7.13902002060206  0.68880513031303
 7 -9.09686195879588  0.63113597469747 -0.57878191189119
 6 -9.70336659635964  1.75078503160316 -0.69098542264226
 6 -11.12219131573157  1.44371271037104 -1.16649836933693
 6 -11.19556196009601  0.07762312641264 -1.25102381638164
 6 -9.89217489818982 -0.41522349664967 -0.96318133423342
 6 -12.23764258795880  2.43815438643864 -1.44402117691769
 6 -12.40274482078208 -0.70359776987699 -1.89744055255526
 6 -12.07527501590159 -1.14093650485048 -3.30980609920992
 7 -7.23391285958596 -1.43410302390239 -0.25759043604360
 6 -8.24077431723172 -2.27501267336734 -0.68267322252225
 6 -7.81575772137214 -3.60489875737574 -0.56530380768077
 6 -6.55660954505451 -3.55821015801580 -0.06573830573057
 6 -6.24724732113211 -2.26637491879188  0.07873067726773
 6 -8.59421688908891 -4.81147398979898 -0.78052653105311
 6 -5.38137260756076 -4.31041492499250  0.18330120272027
 8 -5.19446828472847 -5.52150663406341 -0.02787575687569
 6 -4.27534111351135 -3.38440423022302  0.54829469476948
 6 -3.68021865276528 -3.62171739303930  1.89454982788279
 8 -3.88510011061106 -3.03145988218822  2.87957063816382
 8 -2.81340253395340 -4.64921964436444  1.76438501940194
 6 -2.19807039493949 -5.20759498859886  2.97683261876188
 6  2.71640415211521 -0.74900269486949 -0.92357355775578
 6  4.04029611861186 -0.59455763206321 -0.30615076407641
 6  5.02200568496850  0.22896916231623 -0.75228500120012
 6  4.93376179917992  1.24547719701970 -1.99077324262426
 6  6.36956128892889  0.31285313551355 -0.10092657785779
 6  7.65104264216422 -0.20300064696470 -0.97967491799180
 6  8.91705357795780 -0.09844497489749 -0.20266207900790
 6  10.09273989848985 -0.50812788448845 -0.96666763726373
 6  10.15290199039904 -1.93355429152915 -1.47457092209221
 6  11.50911378827883 -0.25948972977298 -0.05716484788479
 6  12.80736564426443 -0.52740679177918 -0.71790181308131
 6  14.02570203860386  0.08357715491549  0.08998606610661
 6  15.36924304920492 -0.18699242834283 -0.56141438123812
 6  15.59904157305730 -1.63839147294729 -0.92276189388939
 6  16.46616072197220  0.41839619961996  0.32873738093809
 6  17.93156774617461  0.49378077647765 -0.32254806940694
 6  18.95808617811781  1.17488570557056  0.61918235123512
 6  20.41360002920292  1.39040937443744  0.18424318751875
 6  20.54598595239524  2.17645594279428 -1.19370036273627
 6  21.25702663346335  2.04113705000500  1.22953831723172
 1 -4.04949643414341  3.58533405480548  1.69520410731073
 1 -10.21617200990099  3.73233406840684 -0.50133552505251
 1 -10.32599588898890 -2.51641098189819 -1.18750540274027
 1 -2.66707316421642 -1.03257157105711  2.21198188938894
 1 -2.36766037123712  1.78244182678268  1.73730438083808
 1 -2.13631808930893  0.76706715961596  3.73725743924392
 1 -3.20886594659466  2.30536459395940  3.75278744414441
 1 -3.84032747544755  0.62252693669367  3.95430784358436
 1 -2.17688017291729 -1.59697965836584 -0.14398830803080
 1 -2.47455912841284 -0.01713446304630 -0.47633767336734
 1 -0.30512402980298  0.64263887778778  1.16599699879988
 1 -0.25632343434343 -1.06560107530753  1.49800375557556
 1 -5.56059483488349  6.91140978507851  0.44076978617862
 1 -5.34792178157816  6.27849121222122  2.25286158325833
 1 -4.28142209820982  5.53027419381938  0.85426860246025
 1 -9.35168722122212  5.97996414451445 -0.63189341754175
 1 -9.27755897179718  7.92249298819882  0.65296491829183
 1 -7.83015248104810  7.42983938343834  1.67584597009701
 1 -11.71550565566557  3.06967729372937 -2.15566857155716
 1 -13.16690635983598  1.97572146334633 -2.10729192069207
 1 -12.73568529962996  2.81607026172617 -0.57149839383938
 1 -12.57318209660966 -1.73016246134613 -1.36000095499550
 1 -13.44118283718372 -0.08448518531853 -1.96914244174417
 1 -12.86902325492549 -1.86443112931293 -3.62368225272527
 1 -12.02953651785178 -0.23346788438844 -4.02704620032003
 1 -11.03382966226623 -1.61567643474347 -3.22310093009301
 1 -8.84175377837784 -5.00398114101410 -1.92159542364236
 1 -8.12927229202920 -5.63353335753575 -0.56127574057406
 1 -9.70404028892889 -4.92502752405241 -0.33515533813381
 1 -3.46569726562656 -3.50254350505050 -0.10924619611961
 1 -1.79274744124412 -4.27155359505951  3.68475139043904
 1 -2.89023863246325 -5.63548516611661  3.44066690559056
 1 -1.28331644314431 -5.76953622682268  2.65824977787779
 1  2.73771307540754 -1.77711954785479 -1.39745371037104
 1  2.45968344594459 -0.09290501090109 -1.76557971017102
 1  4.39468037363736 -0.98751096629663  0.73906712271227
 1  3.83004196769677  1.45462417281728 -2.23273164286429
 1  5.49189460116012  2.06620687958796 -1.71041750995100
 1  5.38645595319532  1.05089619711971 -2.91218994999500
 1  6.43630569346935  1.53305730573057  0.14864750755076
 1  6.37385150455045 -0.13716175357536  0.94511422812281
 1  7.40731811651165 -1.25939517471747 -1.37650897449745
 1  7.76789922582258  0.30296350445044 -1.88447137073707
 1  8.98735078667867  0.97257514251425  0.24986261846185
 1  8.93180166886689 -0.75929143534353  0.68884674837484
 1  10.13966151755175  0.13483602130213 -1.78434332383238
 1  9.22712769826983 -1.99104708120812 -2.06158208300830
 1  11.15366792249225 -2.14128091199120 -1.92682692659266
 1  10.00861374737474 -2.58822076407641 -0.67569700940094
 1  11.24360204110411  0.83262549274927  0.25556704420442
 1  11.43180623402340 -0.82464842614261  0.93845446704670
 1  12.76226954585458 -1.67591575277528 -0.70781844944494
 1  12.76549030153015 -0.23573288228823 -1.63916727802780
 1  13.90140157685769  1.19816237223722  0.55141248424843
 1  13.92440519361936 -0.73012261696170  1.03561007750775
 1  15.33980726922692  0.52785227022702 -1.35158951695170
 1  15.49060650355035 -2.18520881298130  0.14084263036304
 1  14.57368041874187 -2.08857123272327 -1.42900031513151
 1  16.48047767716772 -1.89532505740574 -1.59284075357536
 1  16.33401860256026  1.43571140484048  0.64845138943894
 1  16.65745019221922 -0.18859803490349  1.24135689688969
 1  18.39771070977098 -0.68329487688769 -0.67905124552455
 1  17.76574363886389  1.12600991989199 -1.29525310111011
 1  18.34982577517752  2.10359451715171  0.74892289758976
 1  18.73621078137814  0.58161234223422  1.61336133643364
 1  20.78206311901190  0.36637278547855 -0.16094903090309
 1  20.29931403800380  3.24524808670867 -1.09175276867687
 1  21.60365461756176  2.04929158195820 -1.66283764706471
 1  19.95378928332833  1.72490430123012 -1.91879884888489
 1  21.38698467366737  1.63976208530853  2.05885550275027
 1  22.27396910321032  2.08327955765577  0.86421138743874
 1  20.86899662956296  3.07734781808181  1.45561600210021
=======
12 -7.07011758475848  0.63021176927693  0.02579026642664
 6 -4.77650226822682 -1.88232941134113  0.52167870057006
 6 -4.79985991489149  2.83252169946995  1.15907227212721
 6 -9.43951868736874  3.11229672517252 -0.31751461116112
 6 -9.53496381008101 -1.72262777377738 -0.80649707880788
 7 -5.11595502010201  0.40814063216322  0.74930534883488
 6 -4.26850655675568 -0.64150397239724  0.77478550175018
 6 -2.84629363476348 -0.44857428312831  1.21495184938494
 6 -3.08904234263426  1.07525019331933  1.62575330603060
 6 -4.37701469636964  1.46689743854385  1.09342637253725
 6 -2.95088017011701  1.29940222832283  3.14480588948895
 6 -1.86325978697870 -0.49292455385539 -0.00140618231823
 6 -0.41086850945095 -0.41409575677568  0.50741487078708
 6  0.52713385058506 -0.67076058895890 -0.63188856935694
 8  0.24648588868887 -1.14286969456946 -1.72258859055906
 8  1.78241005150515 -0.36999439583958 -0.23323011191119
 7 -7.17863831173117  2.63773936373637  0.35683437893789
 6 -6.05839511851185  3.36058703450345  0.72321585518552
 6 -6.40305755885589  4.74933922332233  0.69157984518452
 6 -7.77985069206921  4.82448307980798  0.31088948024802
 6 -8.08771304290429  3.52363155845585  0.09882242854285
 6 -5.52963091979198  5.90004247014701  1.10389515001500
 6 -8.48559635723572  6.00065109880988  0.20742772817282
 6 -8.51972586388639  7.20302642124212  0.88366461626163
 7 -9.13593586618662  0.69165202630263 -0.51483551725173
 6 -9.88127438713871  1.84842479557956 -0.65903222732273
 6 -11.20563966056605  1.46902524162416 -1.14678639813981
 6 -11.16674907880788  0.09904526862686 -1.18631734573457
 6 -9.85608128882888 -0.42192416671667 -0.72117713381338
 6 -12.26737556125613  2.44107467846785 -1.66911368616862
 6 -12.39557410371037 -0.79606701680168 -1.61330213871387
 6 -12.31643913231323 -1.29778218941894 -3.05990110871087
 7 -7.14504397269727 -1.39816943054305 -0.25021969896990
 6 -8.14334457425743 -2.21495666776678 -0.53524848004800
 6 -7.80299644524452 -3.55433370087009 -0.49998727602760
 6 -6.43562744684468 -3.52256659365937 -0.04387611951195
 6 -6.17230982738274 -2.18103638493849  0.08683148734873
 6 -8.62540000740074 -4.87636047844784 -0.84311278967897
 6 -5.32276674697470 -4.36160004350435  0.33167604020402
 8 -5.24192303020302 -5.57192167556756  0.22912994369437
 6 -4.14237781718172 -3.33069885968597  0.64152401770177
 6 -3.50384101500150 -3.68158337963796  1.89186955985599
 8 -3.68279988058806 -3.00045678187819  2.88793147424742
 8 -2.78736993069307 -4.75804052645265  1.85310389128913
 6 -2.29203979187919 -5.37986221532153  2.94828976447645
 6  2.83716622832283 -0.65893368796880 -1.19185038543854
 6  4.04200628962896 -0.51775995229523 -0.55452560156016
 6  5.13104658905891  0.33652991839184 -0.96469624232423
 6  4.97899632263226  1.12397504680468 -2.20807497279728
 6  6.40053438623862  0.52315416561656 -0.21342782798280
 6  7.62994053195320 -0.11939228612861 -1.01261821232123
 6  8.86555842844284 -0.16710184058406 -0.18180999379938
 6  10.16643726822682 -0.49309638133813 -0.96116708720872
 6  10.20055675587559 -1.86525746184618 -1.62609607460746
 6  11.37696057295730 -0.21848562936294 -0.09131826322632
 6  12.75280018771877 -0.48691274237424 -0.68847887078708
 6  13.93286275467547 -0.08341954475448  0.19445651315131
 6  15.40182630753075 -0.12452618171817 -0.51341958175818
 6  15.70383205210521 -1.53274090789079 -0.90791040874087
 6  16.38550265616562  0.47646200620062  0.45856036323632
 6  17.75805039443944  0.53247464586459 -0.10019583418342
 6  18.71358172767277  1.17960617761776  0.83631406440644
 6  20.17542621182118  1.26901723522352  0.31827659085909
 6  20.37925927972797  2.02075037223722 -0.99569056175618
 6  21.11788271907191  1.85778871517152  1.41902726612661
 1 -4.11102258675868  3.44628014941494  1.56065065196520
 1 -10.21557194989499  3.96103693869387 -0.41786717821782
 1 -10.41337462686269 -2.39710905170517 -1.26588324052405
 1 -2.63572002890289 -1.10497881178118  2.08118881008101
 1 -2.26050965616562  1.71600518311831  1.15598624902490
 1 -1.88220267776778  1.30582103500350  3.53367708120812
 1 -3.02910797079708  2.38809286678668  3.50095226062606
 1 -3.80242368506851  0.60276496049605  3.59168158095810
 1 -1.89056154105411 -1.49774973537354 -0.50727463666367
 1 -2.09773144564456  0.37977522792279 -0.59417945754575
 1 -0.19285280268027  0.60348496239624  0.82417281638164
 1 -0.27916571857186 -0.98799331453145  1.37306126132613
 1 -5.62652142754275  6.78475711981198  0.59542525172517
 1 -5.45144213361336  6.40873423652365  1.97671396849685
 1 -4.54383833983398  5.57964913131313  0.83756693229323
 1 -9.31643369586959  5.93469961806181 -0.42117234543454
 1 -9.00806202210221  8.01660239913991  0.38432805460546
 1 -7.91856132193219  7.23729012851285  1.76522490799080
 1 -12.00509461456146  3.11631195719572 -2.55436844154415
 1 -13.14564423362336  1.84812870407041 -2.03619481098110
 1 -12.43867559865987  2.99914856955696 -0.79034027802780
 1 -12.51986676507651 -1.73421286638664 -1.01801675657566
 1 -13.36959567846785 -0.21681841864186 -1.69217474497450
 1 -13.22441879447945 -1.86459114531453 -3.28969885438544
 1 -12.20070363456346 -0.48775331293129 -3.72776627232723
 1 -11.43940021932193 -1.99199406650665 -3.08527714771477
 1 -9.11560116311631 -4.73042378527853 -1.93449671377138
 1 -7.95943530833083 -5.76513651785179 -0.79050866386639
 1 -9.37531741664166 -5.05591061236124 -0.00788261086109
 1 -3.39070976687669 -3.44992824352435 -0.07831310281028
 1 -1.95272343884388 -4.68876531623162  3.61837475277528
 1 -3.13459306790679 -5.99025064266427  3.55715855475548
 1 -1.52253036453645 -6.19190846404640  2.57841179407941
 1  2.62563186728673 -1.66192802870287 -1.55570953595360
 1  2.53933141074107 -0.01628734913491 -1.92111526372637
 1  4.16418732433243 -0.85238745394539  0.39191240724072
 1  3.98200716421642  1.29400811121112 -2.54191256095610
 1  5.45944135583558  2.03944420332033 -1.99744621282128
 1  5.35308261586159  0.70206131363136 -3.20577930893089
 1  6.43463552645264  1.53499749974997 -0.03709106630663
 1  6.39859397879788  0.05951791439144  0.72267198389839
 1  7.31007839253925 -1.20214945014501 -1.24718604220422
 1  7.72312474837484  0.55523873197320 -2.03522644624462
 1  8.90551260286029  0.80295818081808  0.18498613081308
 1  8.83791227992799 -0.95187069326933  0.66693455715572
 1  10.26745429682968  0.18786132383238 -1.74072896239624
 1  9.19346433193319 -2.02993096959696 -2.18961488628863
 1  11.02496505220522 -2.09229601350135 -2.20031427532753
 1  10.12931581758176 -2.72863480548055 -0.92107154685469
 1  11.18971665256526  0.74411664186419  0.30679216671667
 1  11.28287134053405 -1.02580854215422  0.59485010661066
 1  12.92267558645865 -1.67599576077608 -0.76387405500550
 1  12.82769652215221 -0.07607691669167 -1.74774813611361
 1  13.76926836353635  0.81476403240324  0.56527387038704
 1  13.96971972507251 -0.70105971067107  0.80599711621162
 1  15.25351864036404  0.49885937093709 -1.34247860586059
 1  15.63574101700170 -2.08773906600660 -0.02112356625663
 1  15.10513356405641 -2.02872524812481 -1.70982839793979
 1  16.77681731113111 -1.56303182808281 -1.17772924242424
 1  16.22379758045804  1.39422725642564  0.71369791409141
 1  16.45197964516451 -0.25206438153815  1.42625538673867
 1  18.36163710241024 -0.49009555695570 -0.49031237163716
 1  17.92470953545355  1.12715003390339 -1.07038061386139
 1  18.29999079167917  2.25628978667867  1.17472547784779
 1  18.61947910821082  0.81254543554355  1.75175517581758
 1  20.58832374507451  0.22344849304931  0.24579164316432
 1  20.22879698629863  3.16582014391439 -1.02993658705871
 1  21.43388764086409  1.68661531433143 -1.66959832313231
 1  19.74661856625663  1.72180399119912 -1.69263623262326
 1  20.97498347354735  1.36456456555655  2.33433305050505
 1  22.14731643794379  1.82692392209221  1.04033900020002
 1  20.89686941684169  2.91968205150515  1.41841228172817
>>>>>>> 8e03b5b5abfc0030b3aa597dc0de36371bfbd096

