%nproc=4
%Mem=2GB
# td=(NStates=1) CAM-B3LYP/6-31G(d,p) 

TD

0 1
12 -7.14839541254125  0.51506025412541  0.13040072747275
 6 -4.81971658965897 -1.93166434483448  0.56264279697970
 6 -4.79800972987299  2.86676512381238  1.03649001390139
 6 -9.39665440094009  3.15143063856386 -0.41392425212521
 6 -9.49579989368937 -1.80186569756976 -0.93676010511051
 7 -5.07653107770777  0.53716353445345  0.75482590089009
 6 -4.29508921502150 -0.66277609960996  0.95619364256426
 6 -2.89178818421842 -0.39710913661366  1.24017437163716
 6 -2.95104854325433  1.04590725902590  1.67072780348035
 6 -4.33753074797480  1.54609535833583  1.16112314221422
 6 -3.06546162826283  1.17083937203720  3.27531894079408
 6 -1.92712617361736 -0.70214547594759  0.15097905620562
 6 -0.46487390999100 -0.50194454165417  0.53457758705871
 6  0.54160529772977 -0.71510502340234 -0.65685106560656
 8  0.27776901700170 -1.05715112271227 -1.74567089878988
 8  1.75074688518852 -0.42178957535754 -0.19142593149315
 7 -7.08219866776678  2.60930652045204  0.38312700820082
 6 -6.00597987698770  3.38376935273527  0.71529506310631
 6 -6.32204945804580  4.80574486388639  0.67435812301230
 6 -7.62958566556656  4.88324895639564  0.28138652995300
 6 -8.10694496609661  3.58465766106611  0.03576612291229
 6 -5.39091704840484  5.84389685558556  1.13467822832283
 6 -8.51170896849685  5.99630066376638  0.32217920332033
 6 -8.51069496079608  7.18942506110611  0.74698094789479
 7 -9.12621489408941  0.69481234233423 -0.50683471717172
 6 -9.85200145984598  1.82038199129913 -0.73142946704670
 6 -11.13057215381538  1.45647398649865 -1.10858257775778
 6 -11.15596800070007  0.12312767686769 -1.28557727172717
 6 -9.90322600330033 -0.41500347464746 -0.89486450255025
 6 -12.21472029572957  2.43466403740374 -1.45231200600060
 6 -12.25963050935093 -0.63955136523652 -1.80559136763676
 6 -12.18612610101010 -1.05321773297330 -3.43914903350335
 7 -7.13703317161716 -1.38374798839884 -0.15710038703870
 6 -8.29223946374637 -2.22537770987099 -0.53241819701970
 6 -7.73474962056206 -3.62888115561556 -0.41652893019302
 6 -6.54684856895690 -3.60752508950895 -0.04302603450345
 6 -6.18121071747175 -2.19358764006401  0.09939274347435
 6 -8.66876434383438 -4.80075291769177 -0.76832531093109
 6 -5.31305577587759 -4.44052793629363  0.28956182878288
 8 -5.10632947084708 -5.63833831723172  0.21886891759176
 6 -4.14139771917192 -3.30347613741374  0.51343120842084
 6 -3.48076870777078 -3.64081930323032  1.88166853975398
 8 -3.69519111971197 -3.12545928212821  2.94161684278428
 8 -2.75277647134713 -4.76484120652065  1.78094667556756
 6 -2.21513210111011 -5.17206143524352  2.98013294879488
 6  2.75741825352535 -0.62122991759176 -1.21366256665667
 6  4.03810589958996 -0.37263543984398 -0.55216536553655
 6  5.14329781418142  0.33438970437044 -1.00344011671167
 6  5.09631805480548  1.12965561486149 -2.23781794709471
 6  6.33801813461346  0.47288913911391 -0.10885737093709
 6  7.55355289318932 -0.15992633953395 -0.84977192769277
 6  8.79138101070107 -0.25031016141614 -0.04262607540754
 6  10.10034065856586 -0.60526759845985 -0.80941191169117
 6  10.02450915111511 -2.10191112721272 -1.30069353435344
 6  11.35163804070407 -0.34967874867487 -0.01332046344634
 6  12.73705861356136 -0.54185823692369 -0.71848187108711
 6  13.92744221262126 -0.06549775257526  0.11290835833583
 6  15.21572769766977 -0.12446617571757 -0.54622286208621
 6  15.61616328522852 -1.48582621642164 -0.90420003770377
 6  16.35873997989799  0.50199455945595  0.36711121832183
 6  17.80059464886488  0.64837623602360 -0.32158797339734
 6  18.64286465596560  1.27322553955396  0.59641007400740
 6  20.12089075827583  1.32575290879088  0.17760252345235
 6  20.34464581838184  2.17349564676468 -0.98148914161416
 6  21.08328925972597  1.85186812311231  1.36125148854885
 1 -4.14147563206321  3.55350087148715  1.41886647354735
 1 -10.01036142884288  3.87813864886489 -0.67999339083908
 1 -10.24600789018902 -2.55241458225823 -1.32982963516352
 1 -2.41644810171017 -1.02920123402340  2.16855754695470
 1 -2.23451705690569  1.74970855345535  1.32134278467847
 1 -2.18171262876288  0.76404685758576  3.80933464696470
 1 -3.07626268626863  2.27433149064907  3.69469163456346
 1 -3.79907335003500  0.49413409740974  3.79088150095010
 1 -1.93828631353135 -1.76902686308631  0.02101819261926
 1 -2.16308798129813 -0.09724247384738 -0.65504554415442
 1 -0.24230774817482  0.49567418131813  0.78291869096910
 1 -0.12843064506451 -1.00580509570957  1.29845380058006
 1 -5.76257503290329  6.76493513761376  0.75215092429243
 1 -5.65531252065206  6.10657402050205  2.11072736983698
 1 -4.23341729772977  5.83888505490549  0.81918509410941
 1 -9.16640869336934  5.72404855295530 -0.49507973617362
 1 -9.48944015991599  7.79123986288629  0.67134675647565
 1 -7.62773223902390  7.58177457695770  1.41872025752575
 1 -11.73970807590759  3.24735506150615 -2.16509951465147
 1 -13.23124279347935  2.13748763996400 -1.80188137963796
 1 -12.56764849594960  2.95787444214421 -0.53576482048205
 1 -12.22169694809481 -1.62668211331133 -1.34535949084909
 1 -13.32322104100410 -0.30913765056506 -1.79213474097410
 1 -12.94371072367237 -1.72478716491649 -3.88925881038104
 1 -12.06669023322332  0.00484594699470 -4.15349884558456
 1 -11.32194847414742 -1.73312817991799 -3.47391601160116
 1 -9.12143174617462 -4.55698644154415 -1.79593285738574
 1 -8.39390875567557 -5.77804780898090 -0.68961857485749
 1 -9.50905078997900 -4.88644366566657 -0.05811763436344
 1 -3.37819851575158 -3.43861711241124 -0.16642191369137
 1 -1.75683384988499 -4.46942338203820  3.38511142644264
 1 -2.98001761036104 -5.54693631123112  3.76560939983998
 1 -1.37064517601760 -6.02194146734674  2.84396834973497
 1  2.44810411451145 -1.50578241414141 -1.66132009700970
 1  2.53280075767577  0.23514779437944 -2.07891104330433
 1  4.03450435603560 -1.17895011021102  0.24601781778178
 1  4.15560452395239  1.09219793019302 -2.86743511321132
 1  5.25554096579658  2.01087134603460 -1.99180564876488
 1  5.92990029762976  0.72338344584458 -2.72685141614161
 1  6.68608067096710  1.57072107210721  0.10083272607261
 1  6.13374749414942 -0.08017605500550  0.85040475717572
 1  7.19255664036404 -0.99248848404840 -1.18371969556956
 1  7.80081251715171  0.43475668376838 -1.93654657825783
 1  9.14194624622462  0.77688557355736  0.45242287448745
 1  8.46275476417642 -1.03466897309731  0.78653651735173
 1  10.13768131953195  0.01810434813481 -1.80701559105911
 1  8.96105109060906 -2.10436841334133 -1.72622854765477
 1  10.91533408910891 -2.38252503640364 -1.94806905080508
 1  9.86543942994300 -2.76118806080608 -0.34686412611261
 1  11.29239692059206  0.74845707590759  0.18858034553455
 1  11.29591264466447 -0.89723568486849  0.83879450105010
 1  12.92917623652365 -1.56435459665967 -1.17231489908991
 1  12.83795754825483  0.24525521652165 -1.50134349564957
 1  13.93396483318332  1.03507606360636  0.50487783078308
 1  13.96912966606661 -0.67943754845485  1.00468698519852
 1  15.41667495599560  0.50918040304030 -1.54804916291629
 1  15.59661710461046 -2.20028032013201  0.04890343644364
 1  15.04213726442644 -1.81170354595460 -1.83649106420642
 1  16.73654328372837 -1.69393491839184 -1.14437590709071
 1  15.88520372107211  1.55200303400340  0.58517506180618
 1  16.48883333053305  0.11536236113611  1.25507826902690
 1  18.12581352005201 -0.53272982038204 -0.26186952735274
 1  17.74707177167717  1.19654697359736 -1.13687726352635
 1  18.31169196179618  2.33537769546955  0.66084408970897
 1  18.55521268156816  0.98319250025003  1.61072107240724
 1  20.43914882758276  0.12847899609961 -0.06073900990099
 1  20.36013011961196  3.33302686458646 -0.83500709410941
 1  21.61254550665067  2.00419707250725 -1.46302766606661
 1  19.66883078747875  1.96533834463446 -1.77112408140814
 1  21.21845782098210  1.14623273237324  2.18361797899790
 1  22.24468617491749  1.89316054575458  0.99689465576558
 1  20.79246897679768  2.92140222352235  1.87630807130713

