%nproc=4
%Mem=2GB
# td=(NStates=1) CAM-B3LYP/6-31G(d,p) 

TD

0 1
12 -7.19324989798980  0.62524127222722  0.14690237763776
 6 -4.87274189218922 -1.87030820922092  0.45341187388739
 6 -4.82279220812081  2.86952539983998  1.15084144904490
 6 -9.52912764826483  3.06844233973397 -0.28481134083408
 6 -9.68876919061906 -1.77557306830683 -0.71346777587759
 7 -4.99576300090009  0.47444726282628  0.54948536683668
 6 -4.29587929402940 -0.57562738473847  0.67325534873487
 6 -2.88400740614061 -0.41118054375438  1.01780213441344
 6 -2.96384982338234  1.17596026432643  1.49669039973997
 6 -4.30538753365336  1.52064281308131  1.05182221212121
 6 -2.68439352145215  1.31838412651265  3.03863527242724
 6 -1.88389185018502 -0.52621788318832 -0.11072711441144
 6 -0.45039246184618 -0.40595494269427  0.49379350865087
 6  0.56905804300430 -0.73204671757176 -0.69251463196320
 8  0.28754999509951 -1.11045645324532 -1.82217854955496
 8  1.82940475097510 -0.48529592599260 -0.14429121802180
 7 -7.18905935383538  2.72262785258526  0.40960965646565
 6 -6.08535781478148  3.41774275007501  0.67179071267127
 6 -6.43042029512951  4.78743303270327  0.69522020922092
 6 -7.78453116011601  4.83772440394039  0.37682607390739
 6 -8.20824509610961  3.54369356465647  0.00762330863086
 6 -5.64111206790679  5.97009947584758  1.14180894139414
 6 -8.62543034063406  6.01161219491949  0.14667165256526
 6 -8.65338923022302  7.20823694229423  0.89594584438444
 7 -9.22324459705971  0.58896175727573 -0.43432746644664
 6 -10.04236049574958  1.74217417051705 -0.56274259835984
 6 -11.36507560416042  1.41111945104510 -1.00233195269527
 6 -11.28605100900090  0.08851421552155 -1.14655336933693
 6 -9.97618329902990 -0.47376935123512 -0.74860987708771
 6 -12.41394021772177  2.37930850185018 -1.51558833363336
 6 -12.40548509480948 -0.79006641674167 -1.59039984848485
 6 -12.26607409580958 -1.01671408260826 -3.17885300390039
 7 -7.27501696999700 -1.38483809740974 -0.05012968996900
 6 -8.28372861266127 -2.23462863496350 -0.40441539673967
 6 -7.84133027862786 -3.66963523102310 -0.33696097339734
 6 -6.47053093719372 -3.52653699069907 -0.06751848374837
 6 -6.23536613301330 -2.08745702700270  0.08965176937694
 6 -8.60852832023202 -4.80162300470047 -0.75854433283328
 6 -5.30757522782278 -4.35577946144614  0.17579045164516
 8 -5.12902174007401 -5.53476796019602  0.26186321702170
 6 -4.12457603700370 -3.25847163696370  0.43779364466447
 6 -3.40877150805081 -3.58710393169317  1.75455582848285
 8 -3.71728332893289 -3.02806954315432  2.88486116721672
 8 -2.47953914761476 -4.57419214161416  1.63107168806881
 6 -2.01091167906791 -5.10144437353735  2.85676061156116
 6  2.79716222792279 -0.84592238683868 -1.13473467386739
 6  4.17978006700670 -0.63881205750575 -0.51981213021302
 6  5.16344982938294  0.26882314771477 -0.87470724342434
 6  5.01759018201820  1.14363701300130 -2.03235740104010
 6  6.48663299609961  0.25368721892189 -0.21572805800580
 6  7.59606714461446 -0.27023737063706 -1.08207515801580
 6  8.92766463906391 -0.22419755015502 -0.23130494329433
 6  10.34100472497250 -0.58447551925193 -0.90414138463846
 6  10.23251995219522 -2.08041897799780 -1.36670013501350
 6  11.51617449434944 -0.32428620942094 -0.05611474287429
 6  12.84192910061006 -0.61114516561656 -0.65172519541954
 6  13.98571804020402 -0.18302950575058  0.27410447794779
 6  15.27435356025603 -0.19105283438344 -0.38567680748075
 6  15.77239890879088 -1.60155778957896 -0.80321993969397
 6  16.43373747964797  0.36894125412541  0.47256176337634
 6  17.81682627202720  0.47275867426743 -0.20637645224522
 6  18.79732010151015  1.17301551855186  0.67665809880988
 6  20.17269593879388  1.46270660416042  0.23493825702570
 6  20.32682403620362  2.43220151735173 -0.94421541424142
 6  21.02473340414042  1.84804774107411  1.37735309870987
 1 -4.09350083458346  3.68593411481148  1.46070065696570
 1 -10.49054944764477  3.85326616161616 -0.44589998149815
 1 -10.39524281368137 -2.37525686648665 -0.99793644584458
 1 -2.67613407030703 -0.75494380828083  1.95906659785979
 1 -2.42580618581858  1.69574315691569  0.73329397979798
 1 -1.75850030753075  1.19878033093309  3.25370908440844
 1 -3.03596865686569  2.37408146564657  3.12401456685669
 1 -3.43743718641864  0.53502818681868  3.58864127692769
 1 -2.09119160406041 -1.51748170857086 -0.70234414361436
 1 -2.16790846334633  0.25986323672367 -0.99679971957196
 1 -0.18621213861386  0.56722133603360  0.63375377447745
 1 -0.27151495349535 -1.11368588378838  1.28951290649065
 1 -6.04363313871387  6.93040168426843  0.56912262146215
 1 -5.62183917331733  6.30677404050405  2.12236853395340
 1 -4.52873682968297  5.79948111451145  0.79937311291129
 1 -9.37643969646965  6.08759490759076 -0.58858908710871
 1 -9.49347056295630  7.86801754065407  0.72985260706071
 1 -8.24933439923992  7.27390378987899  1.83878226372637
 1 -11.97866197129713  3.07600792679268 -2.27654065876588
 1 -13.23280294949495  1.92963685488549 -2.17962915441544
 1 -12.91254298539854  2.93447210191019 -0.51954319831983
 1 -12.32444722312231 -1.92705215031503 -1.25783073797380
 1 -13.28961768066807 -0.52251898869887 -1.44979050655066
 1 -13.12902925552555 -1.71601628782878 -3.41823170767077
 1 -12.36055962016202 -0.03777831543154 -3.89794329002900
 1 -11.61977825712571 -1.71746661376138 -3.38070669066907
 1 -8.97091669466947 -4.74676541944194 -1.84661792589259
 1 -7.94878424322432 -5.70616062026203 -0.56455606860686
 1 -9.67528741364136 -4.92200722202220 -0.20329215181518
 1 -3.43340403630363 -3.26306955765577 -0.37612288378838
 1 -1.56615478197820 -4.33336977667767  3.41670458575858
 1 -3.00848045664566 -5.49963158075808  3.37809064796480
 1 -1.22355046654665 -5.79794906810681  2.54342829572957
 1  2.86726603070307 -1.87937977387739 -1.55756972197220
 1  2.51128860646065 -0.30827654805481 -2.05303845604560
 1  4.18452935853585 -1.13255547074707  0.46072928892889
 1  4.01690065356536  1.70609932033203 -2.42910127982798
 1  5.76194160586059  1.98519877877788 -1.94500096829683
 1  5.48878618621862  0.65664677217722 -2.82817154815482
 1  6.59960202310231  1.26414041404140  0.21533417621762
 1  6.44558867826783 -0.37663570097010  0.63947366406641
 1  7.24763214791479 -1.34787402260226 -1.39776109970997
 1  7.84015645154515  0.15846905500550 -2.04671759535954
 1  9.05537758935893  0.84818270327033  0.26064369656966
 1  8.95713420212021 -1.01352685888589  0.62591045474547
 1  10.56577412881288  0.12576511421142 -1.83629851935193
 1  9.43185817131713 -2.20895887238724 -2.22960888568857
 1  11.19883243894390 -2.50084686858686 -1.74922916681668
 1  10.14332721872187 -2.81581352335234 -0.42643208290829
 1  11.39014669556956  0.86741897209721  0.25856734423442
 1  11.42320537393739 -0.84912087338734  0.98506912851285
 1  12.97405072397240 -1.53374153535354 -0.83219088668867
 1  12.74096784928493 -0.09850915991599 -1.83005636693669
 1  13.75353679037904  0.80394295029503  0.53550089308931
 1  13.87234998809881 -0.87935754045405  1.18498501500150
 1  15.10318360686069  0.27776726172617 -1.33186754475448
 1  15.95116255915592 -2.16281657375738 -0.04402585648565
 1  15.01355440614062 -1.87901027662766 -1.69050646574657
 1  16.59093872327233 -1.63793931883188 -1.42188365786579
 1  15.91845704640464  1.43895172887289  0.66381292559256
 1  16.38091253845384 -0.14566374147415  1.40387314851485
 1  18.04232517121712 -0.58634518191819 -0.29603294369437
 1  17.60963802830283  1.05428274717472 -0.99913348914891
 1  18.50816160876088  2.25164932263226  1.49725773107311
 1  18.88392555285529  0.49092327332733  1.73628362866287
 1  20.59386429912991  0.53369951815182 -0.04601753775377
 1  19.99121322792279  3.44569813171317 -0.56794038743874
 1  21.33692794489449  2.41539819261926 -1.30480184348435
 1  19.59655355975598  2.18231004180418 -1.77926489548955
 1  20.59525550075007  1.45119322842284  2.41925154235424
 1  22.12604431073107  1.65359658935894  1.20753571987199
 1  20.95292502240224  2.94963504680468  1.57973841434143

