%nproc=4
%Mem=2GB
# td=(NStates=1) CAM-B3LYP/6-31G(d,p) 

TD

0 1
<<<<<<< HEAD
12 -7.21326189918992  0.58781752985299  0.23964165156516
 6 -4.74719933793379 -1.91974315271527  0.41756828952895
 6 -4.97796772567257  2.90389883718372  1.30318668356836
 6 -9.40091482698270  3.06712220772077 -0.32300516021602
 6 -9.55458577227723 -1.74006951795180 -0.91887831693169
 7 -5.08494191879188  0.54156397449745  0.68781920022002
 6 -4.28377808390839 -0.72008183018302  0.82989101230123
 6 -2.89449845524552 -0.33640306600660  1.22063241744174
 6 -3.09254269266927  1.21028369666967  1.73978470917092
 6 -4.41532852775277  1.61462221102110  1.17156418631863
 6 -2.86912199429943  1.41479376747675  3.18286969586959
 6 -1.92622608360836 -0.45509077047705  0.06542050035003
 6 -0.49683710631063 -0.43930827802780  0.46034016331633
 6  0.52791392859286 -0.60923443634363 -0.63630901140114
 8  0.17704894499450 -1.01077648524853 -1.76492282398240
 8  1.78550036053605 -0.38488588498850 -0.28803559245925
 7 -7.19937038493849  2.57736332613261  0.35108380388039
 6 -6.18213749274928  3.33265424122412  0.78660219381938
 6 -6.56740399349935  4.74050834023402  0.72854354155416
 6 -7.83830653765377  4.81433206470647  0.26165455675568
 6 -8.25800007160716  3.46211540684068  0.10818336463646
 6 -5.52268022472247  5.86173863976398  1.03382814331433
 6 -8.67144494209421  6.02055308900890  0.10822780818082
 6 -8.57696158745875  7.17935405400540  0.71605785558556
 7 -9.15949822242224  0.67356021712171 -0.37578161186119
 6 -9.94549080878088  1.76037599069907 -0.59983630773077
 6 -11.24021311791179  1.48377671677168 -1.08200992049205
 6 -11.22545494939494  0.04231959605961 -1.26551526552655
 6 -9.90704638533853 -0.36610858515852 -0.82783779987999
 6 -12.33983280698070  2.47154772577258 -1.28700547534754
 6 -12.34578912521252 -0.84338174827483 -1.72280308880888
 6 -12.11169865826583 -1.39277168836884 -3.09852497109711
 7 -7.20180964926493 -1.42270188378838 -0.13479815681568
 6 -8.26561680148015 -2.19627479957996 -0.53254821002100
 6 -7.85300144574457 -3.56562482998300 -0.44115139243924
 6 -6.50217410151015 -3.53564790179018 -0.09823155505551
 6 -6.11378397479748 -2.13350163146315  0.08679148334833
 6 -8.52320978837884 -4.82938578097810 -0.69445792419242
 6 -5.24518898919892 -4.35854973847385  0.23796666926693
 8 -5.17399623752375 -5.51785626902690  0.27014404510451
 6 -4.17099067846785 -3.34372016181618  0.48788865416542
 6 -3.58872950385039 -3.60525574687469  1.86138651155116
 8 -3.72433403400340 -2.98712544874487  2.86798948004800
 8 -2.68074926862686 -4.68662338473847  1.66109469036904
 6 -2.18243883178318 -5.22839706880688  2.81455639113911
 6  2.80807331903190 -0.61414920952095 -1.31606280668067
 6  4.15655774477448 -0.52106028232823 -0.64394454345435
 6  5.05926941134113  0.34110037543754 -0.97807758045805
 6  5.18312673567357  1.19944259355936 -2.33692785808581
 6  6.40181451425143  0.34806665686569 -0.20516700190019
 6  7.68401593949395 -0.19408975587559 -1.04911186168617
 6  8.97484935753575 -0.16587171757176 -0.24647646044604
 6  10.20834145864586 -0.61145821752175 -0.97605857635764
 6  10.23085978617862 -2.12001293739374 -1.56289975497550
 6  11.48488136503650 -0.30994477527753 -0.07397652905291
 6  12.86855176287629 -0.39381343244324 -0.70898092099210
 6  14.02380184858486 -0.08641984478448  0.21568863636364
 6  15.34708083298330 -0.10014374347435 -0.44863310311031
 6  15.72595426432643 -1.51977961176118 -0.88230784848485
 6  16.35684979087909  0.41336569656966  0.61215572277228
 6  17.84882947234723  0.43929532793279 -0.02625844044404
 6  18.80090045954595  1.12691090809081  0.77969840284028
 6  20.25761443064306  1.26157649114911  0.39645440864086
 6  20.38858021182118  1.92515081228123 -0.97836882958296
 6  21.19131006180618  1.93883681998200  1.37066242964296
 1 -4.16399788428843  3.70345586698670  1.53700828772877
 1 -10.06294668736874  4.01449228422842 -0.76883227472747
 1 -10.24565785518552 -2.36792613341334 -1.32213886608661
 1 -2.61147760466047 -1.00966928082808  2.03610430163016
 1 -2.20380398559856  1.65262884548455  1.33675432583258
 1 -1.83194765226523  1.11796224912491  3.22878659215922
 1 -2.85118017801780  2.40167422492249  3.40431259665967
 1 -3.61369481218122  1.05083976797680  3.71042345514552
 1 -2.07894037893789 -1.33998395879588 -0.62604651385138
 1 -2.09644131663166  0.27065431583158 -0.68784882448245
 1 -0.25444896229623  0.76803141704170  0.90394079317932
 1 -0.25422322432243 -0.90025454065407  1.27592154735474
 1 -5.99083785918592  6.75628427252725  0.49969567876788
 1 -5.39719670907091  5.96437980108011  2.12582887998800
 1 -4.45980993699370  5.63889505590559  0.72915609120912
 1 -9.62117416991699  5.84521066916692 -0.39201943014301
 1 -9.16565778167817  7.89632037093709  0.44600422222222
 1 -7.86501596739674  7.33753015251525  1.50925931143114
 1 -11.98181228632863  3.10314064006401 -2.25254825952595
 1 -13.28083775297530  2.03807769896990 -1.55778697019702
 1 -12.53135486658666  2.87896655135514 -0.39150039403940
 1 -12.34905968436844 -1.76346579167917 -1.10497545244524
 1 -13.45169388828883 -0.41752848964897 -1.59681520902090
 1 -12.88302465506551 -2.26349103530353 -3.36912679717972
 1 -12.09568313251325 -0.81765630323032 -3.89440293599360
 1 -11.16202248154816 -2.11156602370237 -3.21390001000100
 1 -9.04442404540454 -4.75056579947995 -1.64914817891789
 1 -7.96529589438944 -5.56982698689869 -0.78395800880088
 1 -9.38570845574557 -5.12406742804280  0.05878405580558
 1 -3.34042473837384 -3.44982823352335 -0.26164143564356
 1 -1.44376254275428 -4.69550599029903  3.29260217551755
 1 -3.02869247784778 -5.38599021662166  3.43706654555456
 1 -1.66464457595760 -6.39153842704270  2.59423337623762
 1  2.66726603070307 -1.62342417831783 -1.75471943694369
 1  2.67884536213621 -0.00479620002000 -2.24663781598160
 1  4.04344525012501 -1.02540475567557  0.29205242124212
 1  4.21118008150815  1.21404011441144 -2.61937030673067
 1  5.22050746244625  2.21510176907691 -1.99129559775978
 1  6.14096140374037  0.68906001350135 -2.97409614061406
 1  6.58576063896390  1.51836583658366 -0.20356771397140
 1  6.26888100750075 -0.13115115251525  0.70952066876688
 1  7.30096748144814 -1.06800603580358 -1.47551887548755
 1  7.68938137403740  0.23122633073307 -2.02595551915192
 1  9.16013806540654  0.82544042904290  0.10441807400740
 1  9.02870135883588 -1.08318382458246  0.49163702740274
 1  10.19807735913591 -0.10074753705371 -1.77651254075408
 1  9.38065305080508 -2.29366734323432 -2.34047997279728
 1  11.19917247294730 -2.29316610051005 -1.97063130703070
 1  10.18466135213521 -2.73222516451645 -0.54933437313731
 1  11.50478815971597  0.75431766196620  0.28743023052305
 1  11.40933398679868 -0.93914987628763  0.80030065166517
 1  13.07604092299230 -1.50453861506151 -1.15896356395639
 1  12.83829758225822  0.29215990699070 -1.62737609890989
 1  13.95237667436744  0.93249580558056  0.53733107610761
 1  13.85796854995500 -0.66897650235023  1.25043155965597
 1  15.08054134263426  0.41254073907391 -1.34336869486949
 1  16.00042748564857 -2.18947924002400 -0.17823927782778
 1  14.82234528522852 -1.91776415201520 -1.42758017311731
 1  16.60417004640464 -1.20290581548155 -1.83949541904190
 1  16.00289549024902  1.44293212691269  0.92359890419042
 1  16.42759720692069 -0.04749392449245  1.47052981418142
 1  18.27892883158316 -0.57704425182518 -0.13642698309831
 1  17.80819788428843  1.10225754465447 -1.00381395719572
 1  18.24614540714072  2.01653581128113  1.16023402870287
 1  18.99328648894890  0.38633281428143  1.73834383468347
 1  20.46708162086209  0.22615876407641  0.09833689768977
 1  20.36789089568957  3.04076763866387 -0.92028562196220
 1  21.39815406750675  1.76338299109911 -1.36051741504150
 1  19.57282118651865  1.53555536633663 -1.77470443944394
 1  21.41316729192919  1.14655276437644  2.31266088328833
 1  22.28255996229623  2.26250748044805  1.11899686598660
 1  20.90685041494149  2.99891997529753  1.65031547204721
=======
12 -7.20289086208621  0.51977072517252  0.09097678507851
 6 -4.89381399939994 -1.97928910731073  0.56951348404840
 6 -4.70502043094309  2.81808025532553  1.05617198209821
 6 -9.34358909440944  3.09456495199520 -0.52521538123812
 6 -9.49282959665967 -1.72033754475448 -0.89686611571157
 7 -5.11822524712471  0.51576139423942  0.70089050735074
 6 -4.41355106120612 -0.63595341734173  0.76935495869587
 6 -3.01394039943994 -0.43547297299730  1.31892224642464
 6 -3.00304374277428  1.07432010031003  1.69804053475348
 6 -4.36154314921492  1.55367611641164  1.13867089698970
 6 -2.86362144424442  1.23337562566257  3.19090049894990
 6 -1.88784224522452 -0.62954821622162  0.12774673297330
 6 -0.46119354195420 -0.45090943814381  0.69249337863786
 6  0.49884102130213 -0.71468498139814 -0.43752913341334
 8  0.18391963206321 -1.21669707730773 -1.48227455915592
 8  1.73995580608061 -0.28675607200720 -0.16665345424542
 7 -7.05614606250625  2.58416400620062  0.28421711721172
 6 -5.99567884688469  3.39390036583658  0.65810934453445
 6 -6.30802805590559  4.77103139253925  0.77614830203020
 6 -7.69325203220322  4.83023365486549  0.21914030533053
 6 -8.07868213981398  3.42329152445245  0.03012555885589
 6 -5.50194815151515  5.91064353025303  1.25821058155816
 6 -8.51086888448845  6.06614764846485  0.04913189858986
 6 -8.43481737303730  7.18253437203720  0.80310656045605
 7 -9.01792406500650  0.68609147024702 -0.60806484018402
 6 -9.87751401110111  1.84255420852085 -0.78124444854485
 6 -11.14606370297030  1.54303264236424 -1.26662838233823
 6 -11.26809921382138  0.16154151825183 -1.33213192719272
 6 -9.81899758045805 -0.32193416771677 -1.01591660776078
 6 -12.27278610231023  2.50623119411941 -1.48421519631963
 6 -12.38211275757576 -0.71523893399340 -1.75676648514851
 6 -12.33690117851785 -0.93242565376538 -3.18211332993299
 7 -7.21527099539954 -1.41230084368437 -0.02469714671467
 6 -8.30036027582758 -2.23219839193919 -0.45466042124212
 6 -7.79672581818182 -3.61068933643364 -0.51134841214121
 6 -6.44280816491649 -3.56300063706371 -0.11795352725273
 6 -6.23588618501850 -2.28275655695570  0.18304110831083
 6 -8.75679314671467 -4.78979182158216 -0.78150662906291
 6 -5.24311878217822 -4.32542642614261  0.20354322692269
 8 -5.14722356025603 -5.56221070447045  0.14593162386239
 6 -4.22551613101310 -3.28260405020502  0.62891275657566
 6 -3.54676530743074 -3.77424264556456  1.84216458935894
 8 -3.79695129572957 -3.29612634883488  2.98747142824282
 8 -2.68183937763776 -4.78352307470747  1.73506208710871
 6 -2.07959854775478 -5.32757698679868  2.87289222472247
 6  2.74560707240724 -0.52663045764576 -1.22285348574858
 6  4.07300938993899 -0.44700287658766 -0.52607275627563
 6  5.12661614601460  0.30965723112311 -0.87388716141614
 6  4.96123454645465  1.03669631893189 -2.19448361366137
 6  6.40980531333133  0.32727457765777 -0.03765025022502
 6  7.60243778167817 -0.27066741364136 -0.85917286778678
 6  8.88001987458746 -0.17691282168217 -0.07629944274427
 6  10.09701032553255 -0.61973904560456 -0.88262923342334
 6  10.26524322452245 -2.00646158225823 -1.29473293829383
 6  11.35482835973597 -0.35329911071107 -0.04429356075608
 6  12.82096700440044 -0.53565761686169 -0.75860588348835
 6  13.81074054245424 -0.17195839863986  0.12674974247425
 6  15.30125625052505 -0.06818054715472 -0.50317855765577
 6  15.68803047194719 -1.45260289408941 -0.90612022972297
 6  16.35227933383338  0.56119047904790  0.45320982818282
 6  17.79131372077208  0.65135653405341 -0.18758457305731
 6  18.80018038753876  1.30001821882188  0.74249468246825
 6  20.21928059725973  1.33689402290229  0.18154291749175
 6  20.31794314811481  2.17039533673367 -1.17414840754075
 6  21.16650758155816  1.95217815411541  1.19597496089609
 1 -3.90852233673367  3.60979650105010  1.57234182108211
 1 -10.03537393009301  3.91839267426743 -0.71366675817582
 1 -10.43603689308931 -2.62076141694169 -1.13070972317232
 1 -2.60171662856286 -1.15507382128213  2.10506119731973
 1 -2.13137674287429  1.66387997059706  1.14172482288229
 1 -1.96266072357236  0.50186063896390  3.22866658015802
 1 -2.96904196419642  2.36704076157616  3.52506467186719
 1 -3.70048349104911  0.55758044204420  3.84277669046905
 1 -2.14022650755076 -1.60354031443144 -0.33911782098210
 1 -2.07371904440444 -0.03687643724372 -0.60229026862686
 1 -0.43070658805881  0.58061267516752  1.19369976907691
 1 -0.25721352335234 -1.11731624682468  1.36953090829083
 1 -5.86199497489749  6.91004964906491  0.65095080428043
 1 -5.57729471887189  6.00022338543854  2.45039133623362
 1 -4.38230218621862  5.66990815721572  1.06865004060406
 1 -9.33227528002800  5.90808695679568 -0.78383861206121
 1 -9.15144636053605  7.93976471537154  0.75471509330933
 1 -7.81732119791979  7.28992539203920  1.62360074557456
 1 -12.12850695579558  2.88634896089609 -2.44203720842084
 1 -13.31894156335633  1.97126101730173 -1.55846703820382
 1 -12.49941167226723  3.32647130183018 -0.77494873887389
 1 -12.15416019441944 -1.71048049314931 -1.18976393129313
 1 -13.34674339323932 -0.20475721252125 -1.55652117961796
 1 -13.13655000760076 -1.48440312651265 -3.53128301280128
 1 -12.49259282348235  0.05784124652465 -3.55167866356636
 1 -11.58010428972897 -1.34163903100310 -3.64460308030803
 1 -9.36554615761576 -4.77329807270727 -1.71353461756176
 1 -8.22938230303030 -5.68452845704570 -0.75166477947795
 1 -9.54874475937594 -4.94707972927293 -0.08532035463546
 1 -3.56095679157916 -3.40653390409041 -0.17862313381338
 1 -1.51698986548655 -4.51479791949195  3.51940485578558
 1 -2.76455606420642 -5.78505012261226  3.62571541044104
 1 -1.32451056255626 -6.26293556675668  2.67848180108011
 1  2.56113541764176 -1.57786962286229 -1.49226319131913
 1  2.70546802440244  0.15127940754075 -2.08512166436644
 1  4.23389429502950 -1.18161037623762  0.29367258325833
 1  3.84435339883988  1.12094080448045 -2.56968533823382
 1  5.31704711641164  2.08365862476248 -2.12341881008101
 1  5.52517982558256  0.61814292179218 -3.08293702470247
 1  6.74765682858286  1.46087008700870 -0.07032438963896
 1  6.29893401280128 -0.13419145654565  0.88033775047505
 1  7.35652303700370 -1.37820705590559 -1.09534085768577
 1  7.89369180508051  0.47851105920592 -1.73084600820082
 1  9.08907095869587  0.79840772577258 -0.00835320312031
 1  9.13328181688169 -0.61827733393339  0.92509037273727
 1  10.12751030243024 -0.17354481678168 -2.01297618711871
 1  9.43767875337534 -2.22186016251625 -2.02880880568057
 1  11.30197275297530 -2.22554933883388 -1.86942118601860
 1  10.01461434743474 -2.68499044104410 -0.49929936963696
 1  11.48335601650165  0.62677490769077  0.18443993149315
 1  11.11276432983298 -0.81871783308331  1.04791541314131
 1  12.80579389828983 -1.48935709690969 -1.02880054765476
 1  13.00816456895689  0.33784447544754 -1.54847820912091
 1  13.61617305400540  0.83569612561256  0.38185552855285
 1  13.99641239433944 -0.71931153585359  1.15384190069007
 1  15.39872316081608  0.57486697169717 -1.44362872087209
 1  15.87416485938594 -2.09783007510751 -0.11381283518352
 1  14.89192224292429 -2.02904528012801 -1.60376779187919
 1  16.73615324472447 -1.42620814571457 -1.50388185768577
 1  15.82182738343834  1.62397023072307  0.85837238153815
 1  16.41180562776277 -0.10814999009901  1.31754451565156
 1  18.09115005370537 -0.38398494589459 -0.45898923932393
 1  17.82383944844485  1.24731205010501 -1.12220579637964
 1  18.48208900150015  2.33121727942794  1.20329833513351
 1  18.82640980128013  0.59926410741074  1.64146414671467
 1  20.51684659735974  0.44265041324132 -0.14782771877188
 1  19.99047315391539  3.12854641654165 -0.99035262866287
 1  21.35349960206021  2.20513716651665 -1.52124348764877
 1  19.66609051345135  1.76143795459546 -1.96414338333833
 1  21.32528850405041  1.32619072817282  2.03300291749175
 1  22.24619632593259  1.95091632133213  0.84315928222822
 1  21.15972570247025  3.01630171347135  1.39480992149215
>>>>>>> 8e03b5b5abfc0030b3aa597dc0de36371bfbd096

