%nproc=4
%Mem=2GB
# td=(NStates=1) CAM-B3LYP/6-31G(d,p) 

TD

0 1
<<<<<<< HEAD
12 -7.12910348334833  0.62975172327233  0.02378006540654
 6 -4.79753437143714 -1.88475965436544  0.40483701640164
 6 -4.92521245014501  2.86391483878388  1.16362272717272
 6 -9.50054478997900  2.98758425392539 -0.37319017871787
 6 -9.49053936763676 -1.79270478147815 -0.90951738083808
 7 -5.08512193679368  0.50748056615662  0.70323074137414
 6 -4.30112981908191 -0.62068189018902  0.71457948114811
 6 -2.92514151955195 -0.34748417411741  1.15817617181718
 6 -3.00513395179518  1.15373804210421  1.58602933363336
 6 -4.35334232913291  1.58609935873587  1.10502753265327
 6 -2.97959304140414  1.29045133323332  3.18826023492349
 6 -1.83805726672667 -0.58046330773077  0.09366332463246
 6 -0.43297071967197 -0.25400974817482  0.54348847814781
 6  0.53463460066007 -0.62487600050005 -0.46778215871587
 8  0.24321556165617 -1.15157056465647 -1.52215854755476
 8  1.82486429692969 -0.43639103550355 -0.05169195809581
 7 -7.17154760266027  2.62660825062506  0.35438413391339
 6 -6.14357363636364  3.37133810961096  0.76639017261726
 6 -6.52874012711271  4.74780907030703  0.78474916211621
 6 -7.84714742174217  4.76576720822082  0.39083747504750
 6 -8.21720599219922  3.40309950525053  0.05228777507751
 6 -5.65336329302930  5.87263972987299  1.27038179867987
 6 -8.70174797239724  5.97044807850785  0.15594257965797
 6 -8.57332122342234  7.10688680728073  0.72183843364336
 7 -9.12107438003800  0.61030389148915 -0.62566660036004
 6 -9.96007226692669  1.74258421152115 -0.65319164326433
 6 -11.29914901150115  1.35341368046805 -1.12748446794679
 6 -11.25993839773977 -0.00218485438544 -1.22640135413541
 6 -9.96383206390639 -0.46720869516952 -0.83219823592359
 6 -12.27840666436644  2.34176474747475 -1.35479225402540
 6 -12.38502304860486 -0.82242965306531 -1.68164897339734
 6 -12.41366885528553 -1.03912632383238 -3.14465958455846
 7 -7.24203367166717 -1.31721133473347 -0.20968564556456
 6 -8.22036227602760 -2.16449162126213 -0.52222717791779
 6 -7.83192933853385 -3.60393866136614 -0.37757503480348
 6 -6.46126001010101 -3.50248458545855 -0.10449218111811
 6 -6.15976857325733 -2.15139342064206  0.09392219641964
 6 -8.58473594099410 -4.82429527192719 -0.86036451485149
 6 -5.18810328062806 -4.32275615911591  0.13337621022102
 8 -5.00610944884488 -5.58224270767077  0.03884091479148
 6 -4.21214479387939 -3.18005379517952  0.53290315561556
 6 -3.52497312821282 -3.58379360066007  1.76522689558956
 8 -3.74010561116112 -2.97167390359036  2.89924260536054
 8 -2.69849104280428 -4.68248297069707  1.70410899179918
 6 -2.16944753265327 -5.17513174227423  2.93896883238324
 6  2.81536404810481 -0.72871066566657 -1.12167336773677
 6  4.16173826282628 -0.36420459675968 -0.50662081108111
 6  5.15798928332833  0.31715798119812 -1.13724349704970
 6  5.12296071907191  1.14265691499150 -2.27176134143414
 6  6.45563989678968  0.43330518071807 -0.23469995519552
 6  7.73948148604861 -0.09695004190419 -0.93867081758176
 6  8.96740861346135  0.03835870547055 -0.02940475327533
 6  10.26107673217322 -0.49442651435144 -0.77391836233623
 6  10.25773247344734 -1.98489942604260 -1.08653211821182
 6  11.41918479537954 -0.14149793059306  0.04674554315432
 6  12.78338324602460 -0.48102215331533 -0.60299032193219
 6  14.05582505090509 -0.06337754055406  0.15371243874387
 6  15.35501162606261 -0.25538926802680 -0.46563480328033
 6  15.59102077097710 -1.77357499129913 -0.86930654835484
 6  16.44869897579758  0.24975933593359  0.47722222942294
 6  17.77817240664066  0.37638903730373 -0.26740255485549
 6  18.85217558705871  1.15533375037504  0.69332976597660
 6  20.30413908310831  1.17749808330833  0.13362812601260
 6  20.36769812361236  2.21821011821182 -1.12834382708271
 6  21.09166009680968  1.73036597289729  1.13745910931093
 1 -4.33431491599160  3.66985250665067  1.59870445734573
 1 -10.29738013071307  3.73157399239924 -0.44257964946495
 1 -10.36230952035204 -2.46027536833683 -1.44502115431543
 1 -2.70315677257726 -1.01100941484148  2.12123281448145
 1 -2.34737834303430  1.66590017261726  1.07538818921892
 1 -2.05577003450345  0.82711316421642  3.45473918741874
 1 -2.97436249624963  2.45203926142614  3.33975614101410
 1 -3.94601804450445  0.88959364336434  3.84304671747175
 1 -1.99435192009201 -1.62462242264226 -0.34521843104310
 1 -2.09766143864386  0.10133738413841 -0.69231927152715
 1 -0.38701221862186  0.63075768966897  1.01423182228223
 1 -0.25988379037904 -0.79423393859386  1.38856281148115
 1 -6.22944171957196  6.60235887998800  0.89976568576858
 1 -5.61808879827983  5.83079644274427  2.25031132823282
 1 -4.72811676767677  5.83944511091109  0.80435361096110
 1 -9.37936998949895  5.76390253835384 -0.69266949514951
 1 -9.41332254815481  8.03112385128513  0.78588821062106
 1 -8.03488295409541  7.26579297879788  1.53576196169617
 1 -11.94046815191519  2.93644397039704 -2.35475848054806
 1 -13.31039070827083  2.02048593979398 -1.82610380188019
 1 -12.66051778287829  2.99617827252725 -0.50112135613561
 1 -12.38218299669967 -2.01268071317132 -1.24641959685969
 1 -13.29369808870887 -0.37506424322432 -1.36868239573957
 1 -13.26967331993199 -1.68517320352035 -3.43068295279528
 1 -12.21594515871587 -0.15739027662766 -3.78922241794179
 1 -11.70083636293630 -1.81870673777378 -3.32175079507951
 1 -8.66655625862586 -4.61128187108711 -1.93640690479048
 1 -7.95776514131413 -5.59054905910591 -0.87599721272127
 1 -9.45912579747975 -5.01804682598260 -0.32252407500750
 1 -3.24384508040804 -3.30958420912091 -0.12289756125613
 1 -1.38280644714472 -4.39468590829083  3.40009292459246
 1 -3.06542615121512 -5.29045066266627  3.56023886278628
 1 -1.82961107260726 -6.19085835903590  2.86917086998700
 1  2.74857416151615 -1.90998283418342 -1.48562252725272
 1  2.61329880748075 -0.16245196559656 -1.95357851005101
 1  4.07905881148115 -0.90713292849285  0.50130334633463
 1  4.16654561806181  1.07097580798080 -2.79568793849385
 1  5.46959237093709  2.16566682558256 -1.90992746094610
 1  5.92102941054105  0.62472357985799 -2.85590432143214
 1  6.46025808870887  1.53568756875688 -0.10517787498750
 1  6.41880600000000  0.00183214581458  0.80564028072807
 1  7.37640502520252 -1.03143237843784 -1.15402672627263
 1  8.15584802070207  0.61558476657666 -1.75536846044604
 1  8.96069812141214  1.09464734973497  0.41377901010101
 1  8.85088357705771 -0.38599410561056  0.92395025872587
 1  10.22702025342534  0.12847538523852 -1.63469835933593
 1  9.28568355385539 -2.21005898239824 -1.65118104290429
 1  10.92718527422742 -2.18120490439044 -1.73001724562456
 1  10.40972385838584 -2.48653059505951 -0.19945938563856
 1  11.48655633653365  1.00730296049605  0.09151063856386
 1  11.20108316171617 -0.48770473177318  1.17248787038704
 1  12.93686700560056 -1.52833099429943 -0.94370203780378
 1  12.79049280178018 -0.09428873787379 -1.68517187848785
 1  13.80016145284528  0.92898545454545  0.61991933493349
 1  14.04354710781078 -0.74294389908991  1.20063658015802
 1  15.37923121162116  0.43972345734573 -1.40440479847985
 1  15.86561400430043 -2.38833912601260  0.08953749984999
 1  14.70858390909091 -2.38390076567657 -1.31148856395640
 1  16.33816344574458 -1.87063258815882 -1.60378184768477
 1  16.26191139183918  1.28445627932793  0.71779832413241
 1  16.29327377457746 -0.32208138323832  1.39694245544554
 1  18.40421135983598 -0.49080562796280 -0.75426876727673
 1  17.72098916341634  1.08753607250725 -1.14327790359036
 1  18.37384817741774  2.20321447914792  1.14291229652965
 1  18.73161032133213  0.58552273327333  1.67205720602060
 1  20.67148206090609  0.04607075527553 -0.30230316631663
 1  20.20800490709071  3.30424398629863 -0.79211280468047
 1  21.45294954705471  2.22008866166617 -1.51291265456546
 1  19.84368827322733  1.98559036983698 -1.95870283928393
 1  21.11369734493449  1.03971208030803  2.11023064026403
 1  22.15344705100510  1.89738096779678  0.60186515281528
 1  20.85740547044704  2.74008409170917  1.19981042154215
=======
12 -7.13429400240024  0.60625937403740  0.03823151055105
 6 -4.89966458445845 -1.88621980038004  0.48879541224122
 6 -4.74145407430743  2.89961840914091  1.16771313621362
 6 -9.30825556105611  3.07600309580958 -0.41321418111811
 6 -9.50687100080008 -1.72830834183418 -0.95196162526253
 7 -5.12116554115412  0.52700251835184  0.88750916921692
 6 -4.32764247034704 -0.63551337333733  0.92257028022802
 6 -2.89340834623462 -0.36095552125212  1.36599695389539
 6 -2.94955839423942  1.10508317661766  1.72140287098710
 6 -4.43893088798880  1.60593134193419  1.29736676657666
 6 -2.90240532263226  1.32066435453545  3.27846925582558
 6 -1.93019648064806 -0.68264352575258  0.17640159845985
 6 -0.51579900250025 -0.51740608780878  0.58237236653665
 6  0.47993913111311 -0.69769328222822 -0.60354573507351
 8  0.10402164226423 -1.09714512211221 -1.62649898159816
 8  1.80001181168117 -0.46128352475248 -0.28110489938994
 7 -7.07739818771877  2.52304789458946  0.30975967146715
 6 -6.08402768176818  3.36302727852785  0.77394092769277
 6 -6.33331058415841  4.75274956435644  0.81057174437444
 6 -7.65139784678468  4.87768840034003  0.31368976027603
 6 -8.05215948754876  3.42505170047005  0.02352489878988
 6 -5.47019497619762  5.90520298619862  1.18097285778578
 6 -8.50188798639864  6.05340637433743  0.06687367276728
 6 -8.43044693599360  7.22746886548655  0.85448169796980
 7 -9.13679595219522  0.66951981308131 -0.50215424912491
 6 -9.86355261496150  1.75519547264726 -0.67147347144714
 6 -11.16985608220822  1.48176651575158 -1.23267498699870
 6 -11.17081948584858  0.08886425052505 -1.34693340734073
 6 -9.90913659435944 -0.39905187948795 -0.89394441054105
 6 -12.21899072277228  2.45013558455846 -1.46703347814781
 6 -12.32114666096610 -0.76200361046105 -1.67243805230523
 6 -12.39016650505051 -1.17422983418342 -3.23269838843884
 7 -7.25303477177718 -1.41246085968597 -0.08479315631563
 6 -8.26932717251725 -2.23514868696870 -0.49400435563556
 6 -7.81737788338834 -3.71571983948395 -0.48843612091209
 6 -6.44177806190619 -3.67663200020002 -0.11288302020202
 6 -6.24662725912591 -2.26923520482048  0.09295209940994
 6 -8.55496296369637 -4.80692353475348 -0.83393187158716
 6 -5.25411988228823 -4.38234211771177  0.12184505710571
 8 -5.20323916181618 -5.62460694409441  0.26850388108811
 6 -4.17685126452645 -3.19512530233023  0.54877474277428
 6 -3.50840147104710 -3.64839006030603  1.78065843874387
 8 -3.66048764936494 -3.14149088528853  2.84956763786379
 8 -2.67818901260126 -4.63587831023102  1.69927850875088
 6 -2.03641422932293 -5.06152038113811  2.89194412991299
 6  2.80545305700570 -0.64356215081508 -1.30941214161416
 6  4.01157324632463 -0.32986116241624 -0.62805295429543
 6  5.07841132553255  0.44111037643764 -1.03859363206321
 6  5.03264168716872  1.18235088438844 -2.39266343164316
 6  6.36630096289629  0.31434328452845 -0.33023950915092
 6  7.65462300020002 -0.21625197209721 -1.00082703320332
 6  8.87056892949295 -0.12788791919192 -0.05585739853985
 6  10.19151977647765 -0.46617368906891 -0.85707667816782
 6  10.05409210941094 -1.98026896299630 -1.43866733173317
 6  11.44699757665767 -0.22187596839684  0.10367123572357
 6  12.73763867156716 -0.53316736783678 -0.59969999289929
 6  13.93216268466847 -0.05465666846685  0.22205927342734
 6  15.30379650455045 -0.21104483358336 -0.39057729752975
 6  15.60217188608861 -1.69359699349935 -0.75826544424442
 6  16.44900900680068  0.38403276327633  0.48966347354735
 6  17.72598718811881  0.45272667106711 -0.12345816041604
 6  18.73948431793179  1.13207142414241  0.71507194019402
 6  20.19011768096810  1.34138447194719  0.18037280048005
 6  20.23166452025202  2.21899019621962 -1.19204019671967
 6  21.05926685748575  2.04321725802580  1.22194755815582
 1 -4.20190167466747  3.64518003940394  1.54346893379338
 1 -9.96983737643764  3.98088892389239 -0.76981237273727
 1 -10.28153144254425 -2.47752709350935 -1.20834748694869
 1 -2.54184064096410 -0.89242755665567  2.31847253845384
 1 -2.22840644584458  1.57235081768177  1.27970862126213
 1 -2.03878833633363  1.00758121102110  3.62509622312231
 1 -3.17865292529253  2.29426348384839  3.47634980038004
 1 -3.64785822852285  0.75380006400640  3.86801921472147
 1 -1.98807129202920 -1.66361632203220 -0.15462937213721
 1 -2.24552622512251 -0.06574932453245 -0.55683572317232
 1 -0.40369388678868  0.48288290219022  1.21743214231423
 1 -0.40401820382038 -1.37134164936494  1.35274923012301
 1 -5.49135791119112  6.73597224132413  0.36251196039604
 1 -5.63476046544654  6.19574293739374  2.23362966006601
 1 -4.35340929692969  5.60704187058706  1.11166434203420
 1 -9.40133218571857  6.08315446354635 -0.61535176337634
 1 -9.06896811271127  7.98172891179118  0.63405302710271
 1 -7.75145461126113  7.45223162266227  1.64066245174517
 1 -11.85732983808381  3.14207453345334 -2.20462346704670
 1 -13.12043171237124  2.10508439963996 -1.89468065956596
 1 -12.37563929502950  3.07494614931493 -0.51491273527353
 1 -12.24485926432643 -1.72173161826183 -1.01882683758376
 1 -13.39522824172417 -0.29852658945895 -1.48181370887089
 1 -13.37927428002800 -1.79349403560356 -3.55454533903390
 1 -12.27139070327033 -0.31349588718872 -3.74076757245725
 1 -11.51295757505751 -1.85845071217122 -3.58639725972597
 1 -8.52891249424943 -5.04366510941094 -2.02438570267027
 1 -8.00944030883088 -5.83009301350135 -0.58721833483348
 1 -9.49421930683068 -4.86360138143814 -0.35100692329233
 1 -3.37792848874887 -3.29648289898990 -0.24717998949895
 1 -1.30993916041604 -4.28646508620862  3.41040395569557
 1 -2.71163077167717 -5.67484910251025  3.55531837073707
 1 -1.33891200270027 -5.95039431263126  2.58371232413241
 1  2.79074837893789 -1.69458129402940 -1.54230819581958
 1  2.42091956955696  0.00650493009301 -2.10501365356536
 1  4.25589649524952 -0.94316653185318  0.13764698069807
 1  4.02083104660466  1.12068077847785 -2.77888625832583
 1  5.52456786848685  2.28188844774477 -2.12936940514051
 1  5.80916822442244  0.92871397889789 -3.06666539753975
 1  6.78048011091109  1.36415041504150 -0.00170752795280
 1  6.15253937333733  0.01454341694169  0.71927164386439
 1  7.57444482918292 -1.33581281648165 -1.39498082168217
 1  7.74934737063706  0.17663087118712 -1.97365028862886
 1  8.88544059565957  0.80669855485549  0.32692032423242
 1  8.67893638233823 -0.74314982118212  0.91423928762876
 1  10.23075062646265  0.20730326802680 -1.67553244274428
 1  9.19706469196920 -1.93374135063506 -2.17338326312631
 1  11.00020257595760 -1.98765554945494 -1.90711495539554
 1  9.93872675867587 -2.91952389438944 -0.90225966566657
 1  11.33018069896990  0.90050228042804  0.54061554905491
 1  11.62804585798580 -0.87439340064006  1.00933155475548
 1  12.74821814071407 -1.70050821202120 -0.78946661426143
 1  12.63487724022402 -0.22014132313231 -1.71482484378438
 1  13.74617605430543  0.98953150915092  0.30135747874787
 1  13.99692244534453 -0.60728033273327  1.22100861736174
 1  15.38830211871187  0.39635912091209 -1.27254161216122
 1  15.56017346024603 -2.34452474457446  0.07929647574757
 1  14.80479353005300 -2.13165554115412 -1.26669408450845
 1  16.75501513091309 -1.86662218711871 -1.11930339983998
 1  16.01082628332833  1.12230006370637  0.97399394369437
 1  16.66805125232523 -0.28833800890089  1.28353111431143
 1  18.17213815251525 -0.63500004740474 -0.28963230363036
 1  17.67857492199220  0.94932225112511 -1.13873744954495
 1  18.37908870147015  2.13190734843484  0.94659266456646
 1  18.80069723002300  0.59717389838984  1.73819381968197
 1  20.64143905660566  0.26569271747175  0.15404246824683
 1  19.87116122272227  3.29106266816682 -0.92570616401640
 1  21.25168942104211  2.11526817961796 -1.39678104140414
 1  19.52230613501350  1.92021383218322 -1.82296926592659
 1  21.26709268446845  1.51742985208521  2.15657527472747
 1  22.09481118741874  2.00885211491149  0.99673463976398
 1  20.84534426432644  2.87946803010301  1.35869631013101
>>>>>>> 8e03b5b5abfc0030b3aa597dc0de36371bfbd096

