%nproc=4
%Mem=2GB
# td=(NStates=1) CAM-B3LYP/6-31G(d,p) 

TD

0 1
<<<<<<< HEAD
12 -7.10715128812881  0.56509525762576  0.07232491989199
 6 -4.89816443444344 -1.95509668806881  0.49102563526353
 6 -4.82430235913591  2.86782522982298  1.15127149204920
 6 -9.36572130763076  3.01419691519152 -0.43252611231123
 6 -9.62291260496050 -1.78631414241424 -0.86127255635564
 7 -5.19123254785479  0.45049486758676  0.71172159045905
 6 -4.38021772787279 -0.72241206320632  0.77502552575258
 6 -2.92483148854885 -0.41405083078308  1.28124847904791
 6 -3.07446088448845  0.99343201150115  1.73458418911891
 6 -4.51122811771177  1.49030977977798  1.18657568746875
 6 -3.12384746684668  1.24680696879688  3.31721313021302
 6 -1.93292675367537 -0.65605086648665  0.20001395969597
 6 -0.45248267086709 -0.41705605280528  0.59395352465247
 6  0.54231536873687 -0.60585409830983 -0.53434881538154
 8  0.30100134023402 -0.81285669326933 -1.70929726142614
 8  1.83020483098310 -0.50893829022902  0.04426763786379
 7 -7.09550999889989  2.61294688448845  0.20454915041504
 6 -6.07454673367337  3.40475145094509  0.69536306990699
 6 -6.40673792689269  4.74933922332233  0.76157684488449
 6 -7.68399110611061  4.84366499799980  0.30143853515352
 6 -8.13532780438044  3.44272346764676  0.02098464476448
 6 -5.56728468516852  5.94226669256926  1.14227898839884
 6 -8.59138693629363  6.03730476417642  0.09044603000300
 6 -8.52747663896390  7.13472959155916  0.92366861666167
 7 -9.16085835843584  0.66924978607861 -0.50052408610861
 6 -9.91888814851485  1.67665761886189 -0.74077040114011
 6 -11.20038913551355  1.46324466356636 -1.14443616311631
 6 -11.21683408730873  0.07561292539254 -1.30452916691669
 6 -9.96361204190419 -0.43555552985299 -0.86743175927593
 6 -12.17333615731573  2.52131270227023 -1.45177195199520
 6 -12.33083763006301 -0.83261067116712 -1.85480628912891
 6 -12.07318480688069 -1.21756416761676 -3.28604372297230
 7 -7.34237370567057 -1.40443005660566 -0.12520719771977
 6 -8.28880912071207 -2.29754492659266 -0.53458841404140
 6 -7.83623976957696 -3.62872113961396 -0.63417069436944
 6 -6.50861474557456 -3.55772010901090 -0.15285701760176
 6 -6.31131372777278 -2.23797207850785  0.05704850905091
 6 -8.62365983338334 -4.87871071347135 -0.94821329972997
 6 -5.34636910721072 -4.36921080458046  0.24547742034203
 8 -5.30153899179918 -5.46816129952995  0.14456148684868
 6 -4.15650923032303 -3.31275706550655  0.58935880118012
 6 -3.65667629852985 -3.59464468576858  1.98160853375338
 8 -3.80519211981198 -2.96724346054605  2.97916059715972
 8 -2.81483267696770 -4.73230795319532  1.75343392429243
 6 -2.11094168206821 -5.05038926802680  2.95959089458946
 6  2.78314082578258 -0.62783057765777 -1.07594879527953
 6  4.19465155415542 -0.44811298759876 -0.45096524552455
 6  5.20975445984598  0.29153541894189 -0.90953072577258
 6  5.01047947094709  1.21027367666767 -2.15741990729073
 6  6.43554788758876  0.34779662986299 -0.12268875407541
 6  7.63302083998400 -0.09071941884188 -1.01210816131613
 6  8.95831770437044 -0.06000113051305 -0.07144895769577
 6  10.22650327482748 -0.55073214491449 -0.83667463796380
 6  9.98373507370737 -2.02460339643964 -1.34959842484248
 6  11.45024790169017 -0.31542532333233 -0.12762189358936
 6  12.78621352905290 -0.37694174527453 -0.79488951185119
 6  13.97969743814381 -0.03000420322032  0.08615568306831
 6  15.41832795769577 -0.15426915601560 -0.47233547334733
 6  15.73711538043804 -1.59972760656066 -0.84171378907891
 6  16.51984609050905  0.56580094009401  0.33190769796980
 6  17.89818440784078  0.56929832823282 -0.29128494309431
 6  18.93983435293529  1.22111032803280  0.65654608760876
 6  20.34716338553855  1.22628296179618  0.15544030723072
 6  20.50787214101410  2.10606890409041 -1.16181717441744
 6  21.35263619441944  1.76142907920792  1.29911527492749
 1 -4.00614209870987  3.58390391179118  1.82262684958496
 1 -10.13813420612061  3.84081491649165 -0.44600999249925
 1 -10.23623691309131 -2.54494383518352 -1.20011666386639
 1 -2.80952740964096 -1.11158947284728  2.14277496869687
 1 -2.22718632383238  1.69158274087409  1.46563721412141
 1 -2.13117757525753  1.02675312821282  3.72689640314031
 1 -3.32497755775578  2.33784784228423  3.56706887228723
 1 -3.96295973867387  0.68008269226923  3.84282669546955
 1 -1.97594007890789 -1.86279624002400 -0.02253616281628
 1 -2.27256892939294  0.28848609900990 -0.62881292089209
 1 -0.48433195059506  0.90777539143914  0.94030442954295
 1 -0.14703250525052 -1.15565008020802  1.31793574877488
 1 -5.78210698609861  6.96132477657766  0.62648835803580
 1 -5.85028201760176  6.36562992609261  2.18515481258126
 1 -4.49808376437644  5.66282744914491  0.93325650125013
 1 -9.53076512901290  6.07027317541754 -0.77900812901290
 1 -9.25252646854685  7.89446018491849  0.70826044784478
 1 -7.96270573637364  7.11891829132913  1.80083846934693
 1 -11.92410651575157  3.10630095609561 -2.36891989668967
 1 -13.02627229642964  2.04424831603160 -1.78924011551155
 1 -12.35647737883789  3.13779243394339 -0.39897114111411
 1 -12.57868264666467 -1.72859230433043 -1.23874882978298
 1 -13.45634435333533 -0.34412114891489 -1.89359488698870
 1 -13.01892824542454 -1.59971465766577 -3.51215109960996
 1 -11.72608617281728 -0.31723626122612 -3.85635913161316
 1 -11.16526280558056 -2.05855072217222 -3.12589120912091
 1 -8.78475807880788 -4.88917966086609 -2.26293955805581
 1 -8.21827119191919 -5.80187019121912 -0.36988660166017
 1 -9.80439032393239 -4.71435645694570 -0.57072889548955
 1 -3.27755845174517 -3.53985723642364 -0.14858012951295
 1 -1.76147431393139 -4.15163160286029  3.62495541084108
 1 -2.88381799039904 -5.31590320792079  3.77238007690769
 1 -1.56129424092409 -5.99535880908091  2.72484643754375
 1  2.58449775387539 -1.57959979587959 -1.61368533353335
 1  2.38114559215922  0.17832211181118 -1.63941709390939
 1  4.44183508910891 -0.95973818901890  0.58989220522052
 1  4.11838080158016  1.28329704010401 -2.50473884358436
 1  5.52632804450445  2.19283954285429 -1.81034750295030
 1  5.76512381998200  0.61243235073507 -3.03407213821382
 1  6.75294735763576  1.20110411041104  0.49821246404640
 1  6.19769388878888 -0.26030406780678  0.79589930663066
 1  7.15871325602560 -1.23641287648765 -1.15584690829083
 1  7.78959139503950  0.36510971907191 -1.90480340394039
 1  9.17765981758176  0.95109299429943  0.13516114831483
 1  8.58126661536154 -0.64205971217122  0.76704456815682
 1  10.26091364276428  0.14678721642164 -1.70019490899090
 1  8.97856284178418 -2.24511248774878 -2.09425535033503
 1  10.89537209290929 -2.33063984788479 -1.70217446134614
 1  9.50973385938594 -2.70728267026703 -0.33514295399540
 1  11.46017369826983  0.63760599079908  0.31725321282128
 1  11.58055110851085 -1.17118307960796  0.71615223682368
 1  13.12173549244925 -1.42995115631563 -1.21550921852185
 1  12.78962271477148  0.26248693969397 -1.65200856215622
 1  13.97931936863686  0.99563211921192  0.56760410341034
 1  14.00091284438444 -0.61394099879988  0.99644616111611
 1  15.45778906740674  0.45149463446345 -1.38339269726973
 1  15.91205864876488 -2.24582487458746  0.14891343744374
 1  14.81387443814381 -2.03727610321032 -1.33498091319132
 1  16.64145377477748 -1.76458198309831 -1.33407487698770
 1  16.12629783048305  1.55638347204720  0.51842838713871
 1  16.61794624182418 -0.02785196029603  1.13780654185418
 1  18.41418235693569 -0.37680422782278 -0.60854419481948
 1  17.67133419791979  1.04813213211321 -1.22874645044504
 1  18.48082887548755  2.21714587228723  0.96561456675668
 1  18.97066422672267  0.70898507950795  1.62530253055306
 1  20.39335424812481  0.16171231943194  0.14834189818982
 1  20.19358346494649  3.01496505840584 -0.95924951835184
 1  21.54382863496350  1.73840049284928 -1.50179154245424
 1  19.80833473787379  1.72371418221822 -1.87533450245025
 1  21.26315229042904  1.28280638973897  2.18998861606161
 1  22.40243194949495  1.69281051075108  0.70471543784378
 1  20.92552228212821  2.89590967426743  1.59678011851185
=======
12 -7.13486405940594  0.66535528362836  0.01327901530153
 6 -4.82421703970397 -1.91554273267327  0.50185671837184
 6 -4.77262719161916  2.81841028832883  1.22018838373837
 6 -9.42310704620462  3.11885738123812 -0.34674753445345
 6 -9.51740205390539 -1.69315482648265 -1.10353678277828
 7 -5.15633905850585  0.47466728482848  0.75621603990399
 6 -4.38121782788279 -0.66691651365137  0.87496551975198
 6 -3.01228023342334 -0.35360478617862  1.29584993919392
 6 -2.95226866526653  1.09211187948795  1.72904363506351
 6 -4.37027402230223  1.51544229302930  1.22996002590259
 6 -2.82073715581558  1.23459574767477  3.16233764266427
 6 -1.94790825182518 -0.70652591399140  0.11180513881388
 6 -0.43262068466847 -0.64613896109611  0.63318744804480
 6  0.58511964916492 -0.89861337423742 -0.48290367086709
 8  0.16853809390939 -1.18614402200220 -1.62307863956396
 8  1.83729554005401 -0.61676907330733 -0.02474926382638
 7 -7.07872832073207  2.62720831063106  0.38685738123812
 6 -6.04085336433643  3.39848082388239  0.85426896049605
 6 -6.36414366746675  4.75251954135414  0.81601228842884
 6 -7.69999270627063  4.85123575507551  0.24071246254625
 6 -8.14779905150515  3.47815701100110  0.00752329862986
 6 -5.43224118081808  5.78565103100310  1.03524828532853
 6 -8.60164796239624  6.02541357505751  0.12584957035704
 6 -8.23350724202420  7.15362148074808  0.83006925672567
 7 -9.13267554015401  0.66087894899490 -0.62094612831283
 6 -9.84328058775878  1.79540949404940 -0.65001132523252
 6 -11.20944004060406  1.52586092519252 -1.05307702720272
 6 -11.27628003190319  0.21718708280828 -1.29010772477248
 6 -9.91358703940394 -0.41060303460346 -0.95200021612161
 6 -12.36413523722372  2.42700327132713 -1.40815759055906
 6 -12.32590713701370 -0.77403481358136 -1.81446225472547
 6 -12.18706619501950 -1.16987939913991 -3.34720983958396
 7 -7.20537000530053 -1.34622423602360 -0.23187786478648
 6 -8.20972121192119 -2.17916308840884 -0.58823377857786
 6 -7.87215336093609 -3.58313658115812 -0.43174045134513
 6 -6.52903678777878 -3.57248158515852 -0.07710944284428
 6 -6.11936453285329 -2.17914619591959  0.08892169636964
 6 -8.56723419081908 -4.77299014141414 -0.92599107750775
 6 -5.42591706200620 -4.40287417091709  0.18325119771977
 8 -5.23541237913791 -5.62663714711471  0.19156618731873
 6 -4.20222380178018 -3.24516030583058  0.51827169246925
 6 -3.62725335623562 -3.66309153045305  1.89081945484548
 8 -3.90269186978698 -3.15076181238124  2.96332901400140
 8 -2.76185737943794 -4.68547326972697  1.61305988688869
 6 -2.35896648454845 -5.37873210231023  2.98143307880788
 6  2.74511702340234 -0.82259005360536 -1.11195239563956
 6  4.11292338133813 -0.47500567686769 -0.49062921192119
 6  5.05803928832883  0.33814007940794 -0.88719849254925
 6  4.89036745974597  1.25582823212321 -2.16619078437844
 6  6.40890522332233  0.36356820702070 -0.04895138033803
 6  7.67062460036004 -0.15567591449145 -0.92135908640864
 6  8.97830970357036  0.10703557315732 -0.11860367316732
 6  10.19042966746675 -0.39167623932393 -0.88595956645665
 6  10.06015271547155 -1.80046098219822 -1.26719018401840
 6  11.39851272817282 -0.18510229102910 -0.02376150755075
 6  12.76058096579658 -0.62444649574958 -0.59055907880788
 6  13.98696816521652  0.00111890909091  0.18439550705070
 6  15.32619874477448 -0.24361809090909 -0.51488972877288
 6  15.68544021292129 -1.67809544334433 -0.72343196089609
 6  16.41125523142314  0.62421678167817  0.41692619981998
 6  17.76650123952395  0.68222962136214 -0.29865568016802
 6  18.89009937943795  1.28345656265627  0.70994142714271
 6  20.36498516771677  1.26275660916092  0.15749051225123
 6  20.43866522032203  1.88009630683068 -1.26914790749075
 6  21.22066299709971  2.11989492579258  1.09043440684068
 1 -4.18938042254225  3.62218774017402  1.43487807470747
 1 -10.12963335603560  3.90348118311831 -0.45104049554956
 1 -10.31849513891389 -2.55197453825383 -1.04994164636464
 1 -2.77412386928693 -0.86153446734673  2.27814850605060
 1 -2.31276488168817  1.60917450005000  1.06006665706571
 1 -1.79053351085109  0.85598605150515  3.52172588608861
 1 -2.94372943294329  2.35235929342934  3.66524869026903
 1 -3.38627206990699  0.45791047504750  3.78923133593359
 1 -2.26918940384038 -1.60878083848385 -0.46982089128913
 1 -2.16273794629463  0.24849209960996 -0.58841888148815
 1 -0.36660017741774  0.41085569946995  1.20267066616662
 1 -0.09733753575358 -1.36992150735074  1.25575953115312
 1 -5.63539231463146  6.88019666376638  0.42504821402140
 1 -5.36536352575258  6.12103546664666  2.09955625272527
 1 -4.31538549454946  5.75699686608661  1.00772394799480
 1 -9.30190224272427  6.06560270837084 -0.57477770597060
 1 -8.76579779567957  8.28853959285929  0.59236885868587
 1 -7.24647411321132  7.17069346884688  1.45848423392339
 1 -12.15738984408441  2.96949727572757 -2.41847485218522
 1 -13.27587725692569  1.78682257345735 -1.61926311781178
 1 -12.63936566766677  3.21489014371437 -0.65421666566657
 1 -12.26377115551555 -1.71451089618962 -1.18895385028503
 1 -13.27346606550655 -0.19398613541354 -1.67163269076908
 1 -12.97468382098210 -1.73626831303130 -3.74483436793679
 1 -12.37143070727073 -0.22189672727273 -3.85483897959796
 1 -11.30771705100510 -1.68854372147215 -3.62641126112611
 1 -9.17511711471147 -4.76653739663966 -1.87431069516952
 1 -7.83644300910091 -5.50259026322632 -0.99136874987499
 1 -9.29523940884089 -4.96124114541454  0.00421859925993
 1 -3.30892158805881 -3.58127137783778 -0.08520379187919
 1 -1.57167533403340 -4.66476291599160  3.43049596489649
 1 -3.18151776037604 -5.67298891649165  3.45870870977098
 1 -1.73210132163216 -6.22524179737974  2.75092904580458
 1  2.70872017611761 -1.86721855775578 -1.24275824082408
 1  2.62265974357436 -0.20159587998800 -2.03547669986999
 1  4.30316122172217 -1.34333654885489  0.19641285728573
 1  3.79601856535654  1.52026073647365 -2.45909427912791
 1  5.11761717341734  2.33961422032203 -2.19642611081108
 1  5.21958926652665  1.02497360486049 -2.95924465546555
 1  6.46925898879888  1.34262826282628  0.04675731853185
 1  6.34832895229523 -0.31217925532553  0.70155987268727
 1  7.28875626032603 -1.07369660486049 -0.99193051665166
 1  7.64049648554855  0.39025223332333 -1.84309723332333
 1  9.02352440404040  1.15665355035504  0.14812244444444
 1  9.01723021172117 -0.33684919111911  1.02873073677368
 1  10.13215076647665  0.23467600530053 -1.72454734423442
 1  9.24657964346435 -2.21280925742574 -1.97973389818982
 1  11.11735429112911 -2.04911169506951 -1.90096434033403
 1  10.29734262026203 -2.37029897189719 -0.38266770647065
 1  11.45783346424643  0.90944317451745  0.14400588808881
 1  11.32669572297230 -0.68854481578158  0.93229385098510
 1  12.95623894279428 -1.64064222542254 -0.73223089068907
 1  12.83840759325933 -0.20773008200820 -1.67815117641764
 1  13.77140857755776  0.89055161116112  0.58387573057306
 1  14.14706745984599 -0.39248885358536  1.32170868736874
 1  15.14570785928593  0.26927641264126 -1.48102246024602
 1  15.63356079897990 -2.32297258935894  0.14020256635664
 1  14.93167621832183 -1.96126850245025 -1.47241465656566
 1  16.60257988738874 -1.78602412731273 -1.04541601110111
 1  16.08489369006901  1.58258609230923  0.51818836313631
 1  16.66173062026202 -0.07628680378038  1.49420218141814
 1  17.95448638733873 -0.32762931033103 -0.79996333673367
 1  17.74883194769477  1.50285760466047 -0.93939751555155
 1  18.46257705030503  2.35544970267027  0.88462646794680
 1  19.11248840914092  0.81057523852385  1.60898089838984
 1  20.85229014171417  0.31315746394639  0.16230329432943
 1  19.95334944154415  2.87542110401040 -1.10325391879188
 1  21.37003125522552  1.87443409620962 -1.82560392369237
 1  19.69038294269427  1.32021383218322 -2.14683165216522
 1  21.17101307650765  1.63299140824082  2.04701431863186
 1  22.19750145644564  1.95274650435043  0.82606757305731
 1  21.04011374127413  3.28726881018102  1.19412985348535
>>>>>>> 8e03b5b5abfc0030b3aa597dc0de36371bfbd096

