%nproc=4
%Mem=2GB
# td=(NStates=1) CAM-B3LYP/6-31G(d,p) 

TD

0 1
<<<<<<< HEAD
12 -7.34882545554555  0.61166991509151  0.10010769816982
 6 -4.87549216721672 -1.94248542694269  0.67980451315132
 6 -4.87427735663566  2.79976842414241  1.21864822972297
 6 -9.54423915941594  3.15604109960996 -0.39171203090309
 6 -9.56535684938494 -1.71864737573757 -0.96453288238824
 7 -5.21422484708471  0.44060387848785  0.74091450975098
 6 -4.32321202730273 -0.64476429842984  0.73744176737674
 6 -2.95741474687469 -0.34763418911891  1.26062641684168
 6 -3.06995043344334  1.14233690199020  1.62919365006501
 6 -4.48716571147115  1.47868861766177  1.13535056495650
 6 -2.88626370847085  1.30668295639564  3.19558096699670
 6 -1.85339880088009 -0.50115537693769  0.13582754105411
 6 -0.39840726332633 -0.47035138233823  0.63789791909191
 6  0.58221935913591 -0.71759527242724 -0.46660204070407
 8  0.23510475057506 -1.02505791339134 -1.61101743344334
 8  1.89571138163816 -0.52353975037504 -0.00895768466847
 7 -7.19184963286329  2.64348993879388  0.36612530803080
 6 -6.15203448244825  3.38409938573857  0.84400793439344
 6 -6.49746699979998  4.76194048344834  0.82989367656766
 6 -7.80267297429743  4.82004263576358  0.36449484078408
 6 -8.27768203980398  3.54016321162116  0.08197074337434
 6 -5.59786774347435  5.81575404130413  1.23494825532553
 6 -8.67139493709371  6.03468450215022  0.18752573797380
 6 -8.48341223252325  7.22654877347735  0.77321357115712
 7 -9.22542481508151  0.65076793789379 -0.44283831753175
 6 -9.81140740044004  1.77457741084108 -0.71651797589759
 6 -11.18549764636464  1.49960829992999 -1.19304102360236
 6 -11.27742014591459  0.09519488358836 -1.39535824982498
 6 -9.95157083778378 -0.40116209050905 -0.90000501660166
 6 -12.25631445514551  2.43044361536154 -1.59942671747175
 6 -12.39379392569257 -0.73646105620562 -1.89759056755676
 6 -12.29963745214521 -1.11061347254725 -3.29237435603560
 7 -7.22096156445645 -1.39935954955496 -0.21191586858686
 6 -8.22187242704270 -2.23892906500650 -0.60492544774477
 6 -7.75281142674267 -3.61842010951095 -0.61236851415142
 6 -6.48394227832783 -3.55637997499750 -0.09934166606661
 6 -6.24514711111111 -2.15811409270927  0.09473227742774
 6 -8.52744021142114 -4.79101194359436 -1.00076855525553
 6 -5.24526899719972 -4.35087897139714  0.23317619021902
 8 -5.15702454035404 -5.60227471087109  0.13584061476148
 6 -4.13737731713171 -3.36744253405341  0.58844871017102
 6 -3.46606723762376 -3.61427664896490  2.00838121102110
 8 -3.67181878247825 -3.02352908910891  3.00574325542554
 8 -2.66169736343634 -4.67051177357736  1.89899848074807
 6 -2.17436802470247 -5.27365159425943  3.12074701020102
 6  2.85242775447545 -0.85043283788379 -1.05269647004700
 6  4.21367345634563 -0.42580075637564 -0.45616576557656
 6  5.18668215261526  0.34757102250225 -1.05692546524652
 6  5.15292371537154  1.07181983128313 -2.31902606790679
 6  6.50551488428843  0.46069791999200 -0.28009449464947
 6  7.64475201310131 -0.15963631053105 -1.00639759025903
 6  8.86572844544454 -0.16335146554655 -0.26391820462046
 6  10.20189081358136 -0.48463553525353 -1.02832380288029
 6  10.11318801900190 -1.94585552165217 -1.49516298129813
 6  11.47621049794980 -0.28859264006401 -0.09876900830083
 6  12.84818972667267 -0.52930698179818 -0.74848487138714
 6  14.08844831323132 -0.13932513531353  0.12906997449745
 6  15.35712183708371 -0.26639036813681 -0.46552479227923
 6  15.75358702760276 -1.72515014881488 -0.80267988568857
 6  16.43583768966897  0.34652901290129  0.45305981318132
 6  17.82167675707571  0.46734813321332 -0.17365317991799
 6  18.83123349284929  1.25146336333633  0.78664909790979
 6  20.28579724892489  1.34325465896590  0.24124888808881
 6  20.30689204300430  2.15582387958796 -1.17436842954295
 6  21.13079401020102  2.00655359165917  1.21030639403940
 1 -4.29263074757476  3.59735525692569  1.51941652855286
 1 -10.21567195989599  4.00262109710971 -0.49490488198820
 1 -10.40240352975298 -2.51011035183518 -1.17160381258126
 1 -2.60989744664466 -0.92418073197320  2.00460115131513
 1 -2.41566517171717  1.94507809040904  1.21135178557856
 1 -1.74556901440144  1.18917937083708  3.37244095759576
 1 -3.42858791879188  2.26164022152215  3.66983914931493
 1 -3.30080352305231  0.39091377537754  3.46893930673067
 1 -1.94220670557056 -1.39470943134313 -0.41137504670467
 1 -2.05414708720872  0.30989824022402 -0.59362940254025
 1 -0.10303382078208  0.63245785968597  0.92292269136914
 1 -0.18909671167117 -1.11605612081208  1.37017097229723
 1 -5.97518629402940  6.89915855995600  1.09003471267127
 1 -5.39622661206121  5.73332669576958  2.47335363246325
 1 -4.71926588258826  5.67072823922392  0.79228240384038
 1 -9.55662771527153  5.84333048114811 -0.36042627082708
 1 -9.25784700060006  7.99537027592759  0.64605422722272
 1 -7.73511297709771  7.33996039553955  1.60078846434643
 1 -11.81759586468647  2.94650497649765 -2.33956696139614
 1 -13.27264693389339  1.95102899409941 -1.76403759525953
 1 -12.50623235433543  2.99947860256026 -0.62977422142214
 1 -12.32744752315232 -1.60724016911691 -1.22998795369537
 1 -13.36488520742074 -0.32924966176618 -1.69824535203520
 1 -13.30359671227123 -1.59585427162716 -3.65435532003200
 1 -11.78283184738474 -0.25112965056506 -3.88165166086609
 1 -11.42868914821482 -1.96932179927993 -3.40013863386339
 1 -8.72641224422442 -4.73801454435444 -1.99839310341034
 1 -7.87288665346535 -5.58136814101410 -0.88327794079408
 1 -9.34019390429043 -4.91983700500050 -0.35111693429343
 1 -3.41265196109611 -3.25867911861186 -0.11617688918892
 1 -1.70434860136014 -4.28866530623062  3.61464437973797
 1 -3.14129373797380 -5.48724034163416  3.73870670957096
 1 -1.44310242174217 -5.87530680388039  2.80401435433543
 1  2.79539884398440 -1.91056289218922 -1.37554151915191
 1  2.75645312291229 -0.22854857525753 -1.99058221042104
 1  4.50571147674767 -1.05818803400340  0.39710292629263
 1  4.15400436393639  1.20038874927493 -2.60928929862986
 1  5.21833724542454  2.20166042494249 -1.87062353055306
 1  5.94635194279428  0.73548465596560 -2.88249698069807
 1  6.74787685058506  1.53273727372737 -0.06582393959396
 1  6.54409852925293  0.02427439003900  0.71521123782378
 1  7.23711109580958 -1.13884311951195 -1.08943026662666
 1  7.90286272217222  0.25467867596760 -1.90615353895390
 1  9.20570262186219  0.82140002500250  0.29442707490749
 1  8.88479696839684 -0.85075058125813  0.54284214791479
 1  10.31896944834483  0.45687822552255 -1.83844873437344
 1  9.08674365986599 -1.99429740624062 -1.82979890469047
 1  10.84115667136714 -2.18919570347035 -2.29741398529853
 1  10.34289717571757 -2.54742668466847 -0.63492293199320
 1  11.55074275517552  0.82402463266327  0.14474596209621
 1  11.25507856125613 -0.92610857215721  0.90754137573757
 1  12.88403172207221 -1.56599476067607 -0.95650331793179
 1  12.94178793129313  0.02502319331933 -1.70699406070607
 1  13.84510594729473  0.80764332033203  0.54760210321032
 1  14.24226697979798 -0.98865847054706  1.11266778327833
 1  15.36155944444444  0.49624910991099 -1.25364972297230
 1  15.92074951785179 -2.37221751385139  0.03041158725873
 1  14.93163621432143 -2.18894126972697 -1.41547896299630
 1  16.64314394379438 -1.81147667256726 -1.38422989248925
 1  16.19201440214021  1.29535736943694  0.91003754805481
 1  16.48722316951695 -0.33236241134113  1.38772153335334
 1  18.27632857155715 -0.46361290869087 -0.38350169056906
 1  17.50802786728673  1.11885920482048 -1.11001457725773
 1  18.43248404100410  2.35774993269327  1.09395740104010
 1  18.74402156245625  0.87894207520752  1.84192419271927
 1  20.63944885758576  0.23965011321132 -0.17105004100410
 1  19.97328143474347  3.11991555345534 -0.95406900030003
 1  21.32211646374638  2.11391804460446 -1.55830719401940
 1  19.66856076047605  1.70109191999200 -1.97085405440544
 1  21.03017899309931  1.63821193029303  2.25771538873887
 1  22.37379908620862  2.15036626632663  1.14997996429643
 1  20.77688741864187  3.04947503080308  1.33257369786979
=======
12 -7.09406997999800  0.65710445854585  0.01557924532453
 6 -4.99998461646165 -1.91102228062806  0.55197172987299
 6 -4.83746367526753  2.88514696199620  1.15357172207221
 6 -9.37898263376338  3.10225572107211 -0.29754261396140
 6 -9.45606592029203 -1.79287479847985 -0.96284271337134
 7 -5.09175259985999  0.50443026112611  0.68454887318732
 6 -4.34121382748275 -0.73177299929993  0.80589861306131
 6 -2.93690269566957 -0.38352777847785  1.33212356655666
 6 -3.01302474087409  1.10946361466147  1.74746547724772
 6 -4.39799679457946  1.53341409020902  1.18179520942094
 6 -3.07982306440644  1.32969525762576  3.26266767566757
 6 -1.96044950595059 -0.54120938233823  0.21726568486849
 6 -0.49745716831683 -0.55572992019202  0.70686481578158
 6  0.59496063326333 -0.62769628252825 -0.42130751125112
 8  0.20118135823582 -0.98203361096110 -1.50693702540254
 8  1.85054686518652 -0.43191058745875  0.08895210631063
 7 -7.10975142304230  2.67732332213221  0.34466316181618
 6 -6.11909118811881  3.46725770157016  0.80477401100110
 6 -6.43945119821982  4.79524381378138  0.80451113831383
 6 -7.81932463946395  4.88552918441844  0.40342873417342
 6 -8.20578485008501  3.50603979927993  0.08775132143214
 6 -5.62160011671167  5.95351781768177  1.19968472897290
 6 -8.59447724532453  6.01482251595160  0.17800478587859
 6 -8.68629252055206  7.30045616421642  0.80046629642964
 7 -9.11441371397140  0.71232409350935 -0.56280031373137
 6 -9.92726898659866  1.83901385448545 -0.67506383048305
 6 -11.19504860146015  1.44567290639064 -1.18436015551555
 6 -11.12920532443244 -0.01959659555956 -1.35994470847085
 6 -9.87585326602660 -0.47839981428143 -1.01850686678668
 6 -12.30918974267427  2.36638720972097 -1.40616739153915
 6 -12.26741128742874 -0.80107751785179 -1.91408221672167
 6 -12.12658014641464 -1.11059347054705 -3.48062318091809
 7 -7.23878334663466 -1.37468708230823 -0.15021969896990
 6 -8.31929216901690 -2.22691786388639 -0.60443539873987
 6 -7.78042418801880 -3.62803107060706 -0.47305458275828
 6 -6.40447433153315 -3.50434477147715 -0.14915664756476
 6 -6.14855745214521 -2.09947822912291  0.04290709490949
 6 -8.53410087748775 -4.90152299469947 -0.71167964636464
 6 -5.28106257655766 -4.34181806530653  0.18430130273027
 8 -5.04940377827783 -5.51348583198320  0.29891692239224
 6 -4.19690326972697 -3.27327311711171  0.55129499479948
 6 -3.63613424432443 -3.63342856415642  1.83367374027403
 8 -3.89393099369937 -3.13194993119312  2.93212589368937
 8 -2.80181137483748 -4.70285500790079  1.74598317921792
 6 -2.26072666056606 -5.27734196329633  3.05861079657966
 6  2.87130964266427 -0.73353114771477 -1.07358855925593
 6  4.22555464446445 -0.53885206150615 -0.48210835983598
 6  5.12874635903590  0.24963122852285 -1.01217098979898
 6  4.88884730773077  1.19489213851385 -2.22341650695070
 6  6.44012834563456  0.29778162836284 -0.36191267646765
 6  7.64427196509651 -0.26605695259526 -1.09261621212121
 6  8.95716758935894 -0.22610774117412 -0.32202401520152
 6  10.17232785728573 -0.55245231693169 -1.11071204170417
 6  10.30357705790579 -2.07549848594859 -1.60489395439544
 6  11.46886976387639 -0.33005678647865 -0.19232836423642
 6  12.90568547624762 -0.64639869096910 -0.69948997189719
 6  14.02204167256726 -0.17267847064706  0.21419848734873
 6  15.38557468236824 -0.17150087918792 -0.53856209600960
 6  15.83694536343634 -1.66116375017502 -0.95643526122612
 6  16.44257836373637  0.51609596959696  0.45888039523952
 6  17.85571016041604  0.55108650705070 -0.16969278387839
 6  18.82902327182718  1.26384460146015  0.77051748474848
 6  20.23030169936994  1.34704503800380  0.23502826602660
 6  20.24433578737874  2.13689198639864 -1.04090508320832
 6  21.06545747654766  2.08754169046905  1.31064642804280
 1 -4.15869735423542  3.67344286568657  1.63922850975097
 1 -10.03653404610461  3.86645748074807 -0.44377976947695
 1 -10.32553584298430 -2.47446678747875 -1.39719637183718
 1 -2.78406486338634 -1.01510982488249  2.26512720392039
 1 -2.28649225442544  1.60644422702270  1.30479112951295
 1 -2.17149160666067  1.04873532643264  3.74162787628763
 1 -3.21664672467247  2.48569262676268  3.53135530093009
 1 -3.92902634533453  0.95411009500950  3.77970038283828
 1 -2.19561204610461 -1.47686764716472 -0.17299120832083
 1 -2.04581625412541  0.19031628202820 -0.48307834743474
 1 -0.25184870227023  0.42382699659966  1.05659605870587
 1 -0.28663646564656 -1.35227974317432  1.46825078027803
 1 -6.18081685708571  6.83616226032603  0.71837754695470
 1 -5.58294528392839  6.21999536263626  2.21650794789479
 1 -4.60125408140814  5.90716188258826  0.65219839543954
 1 -9.50335238773877  6.21299744784478 -0.49678990719072
 1 -9.46778799469947  8.05267600650065  0.71504112591259
 1 -7.85081454725473  7.18799519901990  1.49596798229823
 1 -11.93954805990599  3.21919224522452 -1.98715171987199
 1 -12.99568923812381  2.03134702590259 -1.99448063956396
 1 -12.59495122622262  2.75407406210621 -0.36641788578858
 1 -12.42156693509351 -1.82886233133313 -1.47483243814381
 1 -13.12031074997500 -0.30118685548555 -1.46898242574257
 1 -13.11657801040104 -1.55004969116912 -3.90496038053805
 1 -11.91976554075408 -0.16976151375137 -3.93863735943594
 1 -11.19066534583459 -1.73021788888889 -3.57569618961896
 1 -8.86550615361536 -5.04991573447345 -1.82376564066407
 1 -7.94952431723172 -5.66918692289229 -0.27058667166717
 1 -9.39042892779278 -4.96496151745175  0.06153433083308
 1 -3.31457215311531 -3.35209846054605 -0.22503777527753
 1 -1.53600176667667 -4.76492293199320  3.68770168546855
 1 -3.13651325992599 -5.47116873447345  3.69923276217622
 1 -2.04133224472447 -6.38040731393139  2.74700865376538
 1  2.64050335443544 -1.87284912081208 -0.95422938793879
 1  2.67705518311831 -0.18192391279128 -1.91614476667667
 1  4.45125603120312 -1.14085630083008  0.36645986198620
 1  3.86123508700870  0.93633234363436 -2.83105147484749
 1  4.89348476017602  2.37057731663166 -1.91127759595960
 1  5.52111941954195  0.88671977947795 -3.04412314331433
 1  6.68159022192219  1.33960796079608  0.00097274007401
 1  6.22208632803280 -0.34576261366137  0.62669238593859
 1  7.39700708540854 -1.24455369056906 -1.32650397399740
 1  7.59154159005901  0.37996120422042 -2.07457038063806
 1  9.26222827442744  0.79158704370437  0.00264789698970
 1  8.73892238093810 -0.79885539173917  0.59038690239024
 1  10.14846239763976  0.15274781248125 -2.04268915841584
 1  9.34096908240824 -2.49598757525753 -2.07439336413641
 1  11.17067962366237 -2.38007479137914 -2.22537678157816
 1  10.09069195519552 -2.66334827682768 -0.74374381408141
 1  11.23836151705171  0.72673490369037  0.14837632513251
 1  11.36772982638264 -0.84985094639464  0.66027664926493
 1  13.10510382928293 -1.78203636483648 -0.95906357395739
 1  12.96508026052605 -0.20963027202720 -1.79971333263326
 1  13.91787322402240  1.02188474447445  0.32785012801280
 1  14.15906865996600 -0.45678528322832  1.40111662816282
 1  15.19535282378238  0.35309479447945 -1.37373173117312
 1  16.13476091899190 -2.15852614471447  0.09046759285929
 1  15.17767081778178 -2.25860823642364 -1.62363977907791
 1  16.84140376977698 -1.76756228112811 -1.11272274177418
 1  16.09712491319132  1.53945177887789  0.78604514881488
 1  16.57301174837484 -0.22791196629663  1.40850361156116
 1  18.32817375607561 -0.42807935533553 -0.29369270967097
 1  17.71752881738174  0.79756707560756 -1.33303687948795
 1  18.53362415501550  2.21289544724472  1.11990999629963
 1  18.69621678197820  0.57617179817982  1.74386438673867
 1  20.62484739743974  0.27472362056206  0.03091015501550
 1  19.75523963056305  3.19374293619362 -0.93274686808681
 1  21.13160741284128  2.16180283308331 -1.52949431273127
 1  19.50619452385239  1.69199100990099 -1.69679664866487
 1  21.34973094829483  1.39868797789779  2.23795341254125
 1  22.16680838713871  2.41968319801980  1.03582854915492
 1  20.71453118301830  3.01638172147215  1.61447188768877
>>>>>>> 8e03b5b5abfc0030b3aa597dc0de36371bfbd096

