%nproc=4
%Mem=2GB
# td=(NStates=1) CAM-B3LYP/6-31G(d,p) 

TD

0 1
12 -7.13042361536154  0.53684243234323  0.01657934533453
 6 -4.84162878087809 -1.92658383678368  0.40591712441244
 6 -4.73193312221222  2.82722116941694  1.18286465136514
 6 -9.36438117361736  3.05877137263726 -0.38152101180118
 6 -9.46805711941194 -1.74282979397940 -0.83959038813881
 7 -5.09677310191019  0.37547736583658  0.78229864816482
 6 -4.27511721782178 -0.67691751375138  0.78499652285229
 6 -2.89790879627963 -0.36035546124612  1.17103745794579
 6 -2.96095953435344  1.17790045834583  1.53268399909991
 6 -4.39782677757776  1.54558530733073  1.05479250915092
 6 -2.90665574767477  1.32232452055206  3.05460686958696
 6 -1.77945140614061 -0.56365162656266  0.10781473977398
 6 -0.35646306890689 -0.39874422162216  0.49564369366937
 6  0.41044218141814 -0.72217573047305 -0.67360274077408
 8  0.27745898599860 -1.16866227382738 -1.80812714441444
 8  1.75688749924993 -0.61533893029303 -0.17237402630263
 7 -7.09750019791979  2.65248083788379  0.31672036753675
 6 -6.03659293829383  3.29912088788879  0.77790132373237
 6 -6.43317057015702  4.79863415281528  0.87734842204220
 6 -7.73238594559456  4.88266889838984  0.42159055035504
 6 -8.11707597919792  3.47212640794079  0.15915846214621
 6 -5.51388934563456  5.85841830773077  1.11676643714371
 6 -8.54128192579258  6.05331636533653  0.26226321172117
 6 -8.46410030133013  7.18154427302730  0.93139938973897
 7 -9.07330960356036  0.59730259135914 -0.56669070277028
 6 -9.78514477417742  1.74598455155516 -0.80512683678368
 6 -11.18212730933093  1.50986932603260 -1.13822554205421
 6 -11.23106551045104  0.07949331343134 -1.24864357835784
 6 -9.83810949164917 -0.35138711301130 -0.82089710581058
 6 -12.08684750845084  2.54105467646765 -1.45140191499150
 6 -12.37143168946895 -0.78283569366937 -1.73094390289029
 6 -12.30996848524853 -1.12832524372437 -3.27986310491049
 7 -7.23711317961796 -1.39653926752675 -0.09371404840484
 6 -8.29070931073107 -2.26524169626963 -0.48541349654965
 6 -7.77530367596760 -3.65480374787479 -0.47583486078608
 6 -6.51616550065007 -3.56591092809281 -0.13007473937394
 6 -6.18614121052105 -2.17913619491949  0.11509431363136
 6 -8.58046551395139 -4.94731757415742 -0.69661814021402
 6 -5.35464993529353 -4.38525240874087  0.22704557715772
 8 -5.24100293819382 -5.56128061146115  0.34474150485048
 6 -4.10777435683568 -3.32854864466447  0.42875274057406
 6 -3.55457608850885 -3.66159138043804  1.77639801270127
 8 -3.73419502010201 -3.03336007220722  2.81273395449545
 8 -2.82279347304730 -4.72874759715972  1.79105768666867
 6 -2.35595618351835 -5.10842507160716  3.11088602410241
 6  2.81105361706171 -0.76524431903190 -1.09683088348835
 6  4.17295938493849 -0.52924110041004 -0.50215036403640
 6  5.02633611801180  0.30775704110411 -0.90969074177418
 6  4.89815823882388  1.30126277557756 -2.15132929822982
 6  6.36680101290129  0.43810566076608 -0.25896238143814
 6  7.62452999089909 -0.06039638653865 -0.99139609010901
 6  8.79674154675468 -0.15090022042204 -0.25278709150915
 6  10.17811843634363 -0.45045211691169 -1.02501347184718
 6  10.11808850905090 -1.99463039913991 -1.36328979397940
 6  11.38517139403940 -0.14241802260226 -0.09987911931193
 6  12.79458436613661 -0.43613766486649 -0.73244326722672
 6  13.94967443584358 -0.03077428022802  0.20384745224522
 6  15.37768389328933 -0.19704343344334 -0.44237247704770
 6  15.63864553345334 -1.61284891869187 -0.91321093879388
 6  16.43007711361136  0.43961832183218  0.49421392859286
 6  17.82896748614861  0.55175657405741 -0.24373018761876
 6  18.71967233673367  1.39318753575358  0.75258569156916
 6  20.20092876207621  1.24509484298430  0.28047281048105
 6  20.34763611741174  1.88898719591959 -1.06728772147215
 6  21.08370930173017  1.90653358965897  1.37721308470847
 1 -3.97157864236424  3.51510703210321  1.55823040994099
 1 -10.18356874957496  3.91266210121012 -0.15688107960796
 1 -10.15317860726073 -2.51754109490949 -1.29072572477248
 1 -2.74960141704170 -0.88021633553355  2.01978266946695
 1 -2.16223982918292  1.82155573817382  1.20722137253725
 1 -1.89418387588759  0.85320577347735  3.35857957145715
 1 -2.65515057505751  2.38920297779778  3.43438560396040
 1 -3.75515895859586  0.79914459845985  3.61921433423342
 1 -1.83626611151115 -1.55574553495350 -0.37291120032003
 1 -2.12279395189519  0.06559380978098 -0.73603364296430
 1 -0.20277379477948  0.64789940384038  0.78383878297830
 1 -0.00720852285229 -0.90087460266027  1.62129608480848
 1 -5.86481525692569  6.74563320742074  0.52872858205821
 1 -5.48474546394639  6.28203156625663  2.16974327142714
 1 -4.41049500550055  5.59665083148315  0.90546372197220
 1 -9.34158621112111  6.05801194929493 -0.64130435863586
 1 -8.86094731063106  8.24603534243424  0.47500712251225
 1 -8.02048151395140  7.36767316681668  1.73347173267327
 1 -11.78554265936594  2.84436476247625 -2.48212121682168
 1 -13.08679834903490  2.09153304450445 -1.54000519201920
 1 -12.30808253935394  3.40298895359536 -0.80710195419542
 1 -12.28979375777578 -1.68879832493249 -1.18877383228323
 1 -13.25777449634963 -0.39935667246725 -1.42360788828883
 1 -13.00002635523552 -2.02504719091909 -3.51655153965397
 1 -12.35310887508751 -0.16963150075008 -3.98655215091509
 1 -11.31333761306131 -1.80222508960896 -3.41964058405841
 1 -8.73192279527953 -5.12180292319232 -1.93354661876188
 1 -8.09970933573357 -5.87746775097510 -0.38160777377738
 1 -9.69176906180618 -4.89392441374137 -0.15971779437944
 1 -3.34591528742874 -3.48866211691169 -0.38931420292029
 1 -1.73432159865987 -4.42724916461646  3.58682159745975
 1 -3.19452906150615 -5.44778639623962  3.69971281018102
 1 -1.67385549704970 -5.92045131833183  3.14884883778378
 1  2.41680098419842 -1.71619345524552 -1.69075304030403
 1  2.75734321192119  0.04051833143314 -1.91933508570857
 1  4.24252515811581 -1.31153336853685  0.34669788578858
 1  3.97785674917492  1.39360807120712 -2.74288265796580
 1  5.18667407910791  2.33847410631063 -1.69899636783678
 1  5.63617092469247  0.93825493299330 -2.78951768276828
 1  6.59610167306731  1.36594059405941  0.06743938673867
 1  6.26336045544554 -0.17132516991699  0.70090980768077
 1  7.13416080078008 -1.21074030923092 -1.32321364496450
 1  7.61971440734073  0.42774598269827 -2.03989691329133
 1  9.08109016061606  0.80681856685669  0.41535916811681
 1  8.86595508420842 -0.88666417261726  0.54687255095510
 1  10.28592614401440  0.27270980868087 -1.80352524202420
 1  9.31531651715171 -2.16697467396740 -2.05206113091309
 1  11.00044259996000 -2.49709649354935 -1.81744598849885
 1  9.85963884988499 -2.49659160116012 -0.46920636033603
 1  11.35586326722672  0.84337656785679  0.10962244974497
 1  11.38406145954596 -0.67505346664666  0.86957757935794
 1  12.76957027592759 -1.56976513771377 -0.86898456605661
 1  12.82040579307931 -0.02764207320732 -1.82657601890189
 1  13.75607704440444  1.15709826582658  0.46522386538654
 1  14.04973772687269 -0.68277788248825  1.03106962346235
 1  15.40933422192219  0.51122060706071 -1.13650800880088
 1  15.54674211711171 -2.25139543164316  0.03103164926493
 1  14.81477452815282 -1.70794316991699 -1.57634504960496
 1  16.68946857625763 -1.69461498639864 -1.25631710121012
 1  15.98872407310731  1.54858269196920  0.70144668896890
 1  16.45142959015902 -0.14081325642564  1.55151791299130
 1  18.14394533323332 -0.42007855525553 -0.46369971037104
 1  17.50559762426243  1.03368068696870 -1.15677925372537
 1  18.48503929652965  2.50407456515652  0.96088409370937
 1  18.70647780808081  0.92272645364536  1.71069106940694
 1  20.70557547024703  0.10449659785979  0.28610567456746
 1  19.86534064066407  2.97237079897990 -0.91082467586759
 1  21.47332158425843  1.99681633443344 -1.26341770507051
 1  19.96858076247625  1.70325213601360 -1.97527449644965
 1  20.95866184138414  1.57935604470447  2.41019063626363
 1  22.15447715401540  2.08572980268027  1.10081504780478
 1  20.86652638253825  3.06212629592959  1.49564000450045

