%nproc=4
%Mem=2GB
# td=(NStates=1) CAM-B3LYP/6-31G(d,p) 

TD

0 1
12 -7.17805837883788  0.57290603870387  0.08170585798580
 6 -4.84271888988899 -2.00899207760776  0.61194772747275
 6 -4.67662759165917  2.82222066936694  1.09893625852585
 6 -9.38829356485649  3.00504600010001 -0.42663552325233
 6 -9.45771608530853 -1.81159667066707 -0.91112754185419
 7 -5.04310773537354  0.38506832493249  0.75390580888089
 6 -4.36260596669667 -0.77496731873187  0.78578660186019
 6 -2.91573057845785 -0.39817924362436  1.34874522872287
 6 -3.02415585398540  1.13192586088609  1.71491222192219
 6 -4.27662465736574  1.44390513931393  1.22914994489449
 6 -2.92201728382838  1.27125941404140  3.22271368026803
 6 -1.92171563256326 -0.66404166556656  0.10999495779578
 6 -0.48346576917692 -0.45374972217222  0.55518964826483
 6  0.53244438163816 -0.54818833173317 -0.58831421192119
 8  0.31120236033603 -0.83421882948295 -1.77617394909491
 8  1.75150696119612 -0.15304270067007 -0.16348313721372
 7 -7.04255470337034  2.53988957875788  0.36417511301130
 6 -5.92033131213121  3.30750172597260  0.73907744134413
 6 -6.36102335543554  4.63985827522752  0.77355804300430
 6 -7.66197890489049  4.75084571607161  0.27703609490949
 6 -7.97412168376838  3.36920611591159  0.08668121442144
 6 -5.45714367106711  5.81008347424742  1.15100986148615
 6 -8.45696349394939  5.94029506320632  0.04732171757176
 6 -8.27804169546955  7.19422554115412  0.56871312111211
 7 -9.09618189078908  0.61370423152315 -0.57878191189119
 6 -9.77913417311731  1.73880383348335 -0.68990531463146
 6 -11.17354645124512  1.40634897399740 -1.19938165766577
 6 -11.26951935583558  0.08382374647465 -1.36679539353935
 6 -9.95404108480848 -0.36575855015502 -0.96425144124412
 6 -12.21056988068807  2.53692426342634 -1.26252302710271
 6 -12.31885643194319 -0.75246265636564 -1.83617442594259
 6 -12.07577506590659 -1.06703911511151 -3.34668978757876
 7 -7.13942341064106 -1.44658427202720 -0.24071874887489
 6 -8.23932417221722 -2.25927109920992 -0.59461441664166
 6 -7.83605975157516 -3.68455672317232 -0.56455373267327
 6 -6.52823670777078 -3.64908924592459 -0.18267999989999
 6 -6.13774637103710 -2.22048032933293  0.13196600080008
 6 -8.61215868326833 -4.74417726012601 -1.00092857125713
 6 -5.37795226552655 -4.40296417991799  0.19869274187419
 8 -5.20646948484849 -5.66395087848785  0.30892792349235
 6 -4.18475205460546 -3.37541333113311  0.62161202650265
 6 -3.57746837773777 -3.67406262756276  2.04413478637864
 8 -3.90498209880988 -3.09134587078708  3.10920360146015
 8 -2.87805899959996 -4.77206192859286  1.95106368726873
 6 -2.25307589548955 -5.20937516661666  3.22893782928293
 6  2.80316282798280 -0.39006680128013 -1.08925012541254
 6  4.10777286628663 -0.26850502680268 -0.47298744774477
 6  5.05176866126613  0.50166643204320 -0.90501027372737
 6  5.10525894889489  1.40847349664966 -2.07619178447845
 6  6.39753408620862  0.60768261846185 -0.11184766996700
 6  7.64012155005501  0.00876052915292 -0.77794474497450
 6  8.93524539713971 -0.06176130653065 -0.11865367816782
 6  10.14068469296930 -0.52322939463946 -0.86353732423242
 6  9.96384308450845 -2.04447538363836 -1.45744920992099
 6  11.35406828372837 -0.41144492529253 -0.10903003440344
 6  12.65666057375737 -0.49800385148515 -0.85067509040904
 6  13.89870933933393 -0.19642084488449  0.13341040854085
 6  15.31375750065007 -0.19408313741374 -0.65696393619362
 6  15.76147781668167 -1.63288092189219 -1.01718133583358
 6  16.29209331523152  0.51111547154715  0.30910541774177
 6  17.78358294769477  0.55249664806481 -0.27270308490849
 6  18.69619998949895  1.09761797879788  0.72540297329733
 6  20.05986465566556  1.28407874137414  0.20943570677068
 6  20.17473882768277  2.15321361856186 -1.00629162186219
 6  21.07051798259826  1.74160709700970  1.35079044244424
 1 -4.08590007450745  3.50391591299130  1.57723231013101
 1 -10.05595598829883  3.83789462446245 -0.32263765526553
 1 -10.24093738313831 -2.60086942774277 -1.13711036323632
 1 -2.61854831173117 -1.11419973387339  2.11961265246525
 1 -2.14989859505951  1.59359294189419  1.13877452785279
 1 -1.92997745524552  0.78167862076208  3.31908562206221
 1 -2.86059111911191  2.33713777127713  3.45402756815682
 1 -3.78218166086609  0.66865154915492  3.56841925472547
 1 -2.11765425032503 -1.49487944834483 -0.28578248744874
 1 -1.97699937243724  0.13731098149815 -0.63622366196620
 1 -0.23051656905691  0.63828844274427  1.12395279437944
 1 -0.19633743574357 -1.18973348854886  1.32437639283928
 1 -5.70086886228623  6.79522816691669  0.69220492969297
 1 -5.75593258265827  6.11325468856886  2.22719901700170
 1 -4.36954091009101  5.55373654005400  0.94013718931893
 1 -9.42077412991299  5.84688083618362 -0.66922715091509
 1 -8.88664988088809  8.01836257515752  0.27503712551255
 1 -7.65005447124712  7.54332073157316  1.42175056055606
 1 -11.84646875197520  3.16200652665266 -2.09861286598660
 1 -13.14471414061406  2.06501039223922 -1.62881407290729
 1 -12.26354808590859  3.07307596229623 -0.25845708970897
 1 -12.25285006340634 -1.72359180428043 -1.20798575347535
 1 -13.26225494439444 -0.12098883568357 -1.70591611911191
 1 -12.87004335693569 -1.67698238443844 -3.81219110361036
 1 -11.80630419461946 -0.15308984658466 -3.75197869356936
 1 -11.12220850015002 -1.50409527662766 -3.49077769776978
 1 -8.81554115711571 -4.93010375327533 -2.05865913001300
 1 -8.13582294709471 -5.68548855305530 -0.75000461346135
 1 -9.48329821472147 -4.93329835113511 -0.35253707630763
 1 -3.47819851575158 -3.59439268996900  0.04416914541454
 1 -1.62832099859986 -4.42841928162816  3.45799871517152
 1 -2.95469507810781 -5.49970158775878  4.01073391229123
 1 -1.81114922642264 -6.13401267446745  2.95432938583858
 1  2.66008531263126 -1.29404124002400 -1.70579454445445
 1  2.63157063466347  0.34922920252025 -1.90760391259126
 1  4.11529243484348 -1.00641285648565  0.40114333033303
 1  4.21648061156116  1.72641135153515 -2.30724909460946
 1  5.79857526922692  2.52019227812781 -2.12616908510851
 1  5.54356166376638  0.85080618811881 -3.05181391239124
 1  6.55551761466146  1.69268326832683  0.12827547034703
 1  6.29521364076408  0.14282624522452  1.05419513621362
 1  7.27633501820182 -0.87661689688969 -0.74595591919192
 1  7.84179661556156  0.44972818091809 -1.60163308690869
 1  9.27233928552855  0.97101498649865  0.34072170437044
 1  9.14411289999000 -0.60471597779778  0.86615447914791
 1  9.87745529692969  0.04719725742574 -1.86544143364336
 1  9.04859984548455 -2.06543451995200 -2.25535145994600
 1  10.95700825652565 -2.34247103100310 -1.77193143704370
 1  9.43832671867187 -2.81222316431643 -0.70022946264626
 1  11.23868154905491  0.72389461966197  0.26132762026203
 1  11.38749180258026 -1.12025798709871  0.73962458405841
 1  12.82618593749375 -1.52713087428743 -1.33771143874387
 1  12.79874362686269  0.30087077807781 -1.75481884318432
 1  13.89084052075208  0.84163671967197  0.48037538053805
 1  13.94026677977798 -0.78142774747475  0.97954447094709
 1  15.19860314881488  0.40680016501650 -1.42825718371837
 1  15.75172261516152 -2.13429372147215 -0.20414186808681
 1  14.97892094279428 -2.00624299989999 -1.80371778687869
 1  16.76281591099110 -1.63485901080108 -1.48405987548755
 1  15.94886008670867  1.56230406410641  0.62580912521252
 1  16.37347179437944 -0.13197237233723  1.36805956715672
 1  18.01077201590159 -0.32456900430043 -0.46885022542254
 1  17.83223028752876  0.96012333123312 -1.17551112691269
 1  18.40653144574457  2.09545370307031  1.25248325362536
 1  18.69486664696470  0.47917209820982  1.52502250255026
 1  20.23470838353835  0.14133028122812 -0.11654459045905
 1  19.88655276187619  3.16839040094009 -0.91118471187119
 1  21.08952320442044  2.19957661046105 -1.42393375667567
 1  19.56565046944695  1.66922873367337 -1.93327029602960
 1  21.13804978017802  1.04037214631463  2.24793441064106
 1  22.25063676997700  1.86272750245024  0.76517148344834
 1  20.79937966786679  2.72053213651365  1.92171261176118

