%nproc=4
%Mem=2GB
# td=(NStates=1) CAM-B3LYP/6-31G(d,p) 

TD

0 1
12 -7.12207278027803  0.63033178127813  0.00062775017502
 6 -4.87132175017502 -1.85009618801880  0.41773830653065
 6 -4.81231116001600  2.85278372567257  1.09911627652765
 6 -9.48466320182018  3.11266676217622 -0.45413827352735
 6 -9.55917623132313 -1.89821533253325 -0.84467089618962
 7 -5.15144856945695  0.54285410351035  0.63307372567257
 6 -4.40976068216822 -0.59099892189219  0.74805282848285
 6 -2.99206821222122 -0.28184761046105  1.16248660286029
 6 -3.02589602800280  1.20400306860686  1.61800253095310
 6 -4.35109210411041  1.53926467526753  1.04797182708271
 6 -2.95058014011401  1.40611289938994  3.10100150905091
 6 -1.85440890189019 -0.54843010441044  0.04237819611961
 6 -0.35867328992899 -0.35536988418842  0.57402153145315
 6  0.60482161936194 -0.59209272217222 -0.53718909940994
 8  0.23660490059006 -0.93710911851185 -1.66019235093509
 8  1.82557436793679 -0.42839023542354 -0.24483127202720
 7 -7.15762621052105  2.63614920472047  0.34165286078608
 6 -6.10985026402640  3.33974495029503  0.84771830543054
 6 -6.52891014411441  4.65807009640964  0.88775946314631
 6 -7.87636034303430  4.82242287378738  0.32440083138314
 6 -8.24301857345735  3.45745494079408  0.05872841914191
 6 -5.65418337503750  5.91567403330333  1.25016977747775
 6 -8.74186198379838  6.02750378407841  0.21551853725373
 6 -8.51955584688469  7.17844396299630  0.86774302410241
 7 -9.14692696529653  0.62297515861586 -0.62593662736274
 6 -9.88203446314632  1.74141409450945 -0.80490681478148
 6 -11.28878797539754  1.39157749684969 -1.17089880938094
 6 -11.32726513041304 -0.06478111401140 -1.17989670367037
 6 -9.98175385608561 -0.46381835613561 -0.88748376447645
 6 -12.40428925262526  2.34832540354035 -1.28957573237324
 6 -12.43005755205520 -0.91679909000900 -1.66435724422442
 6 -12.51266875527553 -1.19462187338734 -3.15866098469847
 7 -7.21166063436344 -1.36649626322632 -0.17654233123312
 6 -8.27882812261226 -2.29202437453745 -0.51615657085709
 6 -7.74349049464946 -3.66788505600560 -0.44969224652465
 6 -6.47276116021602 -3.51793613061306 -0.01683341524152
 6 -6.21933452985299 -2.08945722702270 -0.01208840464046
 6 -8.49784725212521 -4.93854669706971 -0.79310778917892
 6 -5.35308977927793 -4.28131201470147  0.11918479107911
 8 -5.24416325422542 -5.45985046844684  0.12785981668167
 6 -4.14891847124712 -3.24079986978698  0.48579844514451
 6 -3.54266489738974 -3.55367058835884  1.87253762666267
 8 -3.82088368896890 -3.07846458265827  2.89383206430643
 8 -2.68487968166817 -4.59503422582258  1.72306088698870
 6 -2.16314690259026 -5.15818004710471  3.01861679717972
 6  2.88581109280928 -0.69036683128313 -1.08103930433043
 6  4.11694378337834 -0.36479465576558 -0.35814596359636
 6  5.13181666606661  0.35895216061606 -0.88209798249825
 6  5.26470489348935  1.21300394969497 -2.13336750205021
 6  6.49127346014601  0.40118196839684 -0.20696718191819
 6  7.66021355925593 -0.30522086898690 -1.01925887638764
 6  8.95512738533853 -0.23467859825983 -0.11586339913991
 6  10.26511713621362 -0.53158022972297 -0.86326729722972
 6  10.17045374557456 -2.14072500860086 -1.30003346834683
 6  11.39813269016902 -0.22553633443344  0.04029489808981
 6  12.80800570827083 -0.56808085918592 -0.71565158805881
 6  13.99644911331133 -0.12155335813581  0.14046111361136
 6  15.40556668156816 -0.15049877897790 -0.48244648444844
 6  15.73476514541454 -1.63111074487449 -1.10828044574457
 6  16.44629873577358  0.35933029302930  0.51922642984298
 6  17.89931452085208  0.54629602800280 -0.18954476907691
 6  18.95627599709971  1.21877009400940  0.75522595559556
 6  20.34564323352335  1.31704203770377  0.24890965416542
 6  20.49603095689569  1.89557785498550 -1.16209720242024
 6  21.25153608440844  1.99645258155816  1.39103446684668
 1 -4.10930241474147  3.52557807920792  1.45127971487149
 1 -10.27136752945295  3.86640747574757 -0.70724611611161
 1 -10.33449673907391 -2.71395073587359 -1.16725337753775
 1 -2.74754121102110 -0.81987030093009  1.99883057425743
 1 -2.17362096729673  1.61243482608261  0.91577222762276
 1 -1.87139159665967  1.10027047994799  3.52934664816482
 1 -3.28277333733373  2.46427048454846  3.37505967136714
 1 -3.64385782848285  0.72845752975297  3.55054746754675
 1 -1.82857534243424 -1.76109607000700 -0.14184809400940
 1 -1.84436610911091  0.00934818521852 -0.77708774837484
 1 -0.16766028342834  0.68809342324232  0.96111651075108
 1 -0.18821662366237 -1.07290180538054  1.38925288048805
 1 -5.71092986838684  6.83433207730773  0.56214192339234
 1 -5.67274426382638  6.07857122022202  2.26157245434543
 1 -4.45012896889689  5.68057922432243  1.11646482208221
 1 -9.73059511201120  5.78659480758076 -0.47035726392639
 1 -9.45016623252325  7.77978871777178  0.88086770857086
 1 -7.48538800460046  7.25065146464647  1.49419780528053
 1 -12.15109921502150  3.27919824582458 -1.92754575927593
 1 -13.39332900210021  2.06481037223722 -1.64013520502050
 1 -12.80093182428243  2.81605025972597 -0.24204544854485
 1 -12.38708348674868 -1.94500394549455 -1.13517847274727
 1 -13.40402912181218 -0.37215395219522 -1.28134366186619
 1 -13.41931828442844 -1.71693637983798 -3.40130001450145
 1 -12.71944550875088 -0.18561309890989 -3.63565706140614
 1 -11.79373565286529 -1.69261412851285 -3.59067768776878
 1 -8.88114771777178 -4.74260500340034 -1.83695695979598
 1 -7.92532189698970 -5.93121312551255 -0.81767138013801
 1 -9.21610149504950 -5.12531755305531 -0.06404822742274
 1 -3.49444013991399 -3.42807605830583 -0.36438170967097
 1 -1.62539070557056 -4.40269670937094  3.69309222452245
 1 -3.06460606920692 -5.47295891349135  3.41693453235324
 1 -1.56306441794179 -6.07124639783978  2.89839379227923
 1  2.87134643874387 -1.89574141004100 -1.48185215021502
 1  2.47678515611561 -0.04921064146415 -1.91228438063806
 1  4.32372327792779 -0.71979419461946  0.66440965696570
 1  4.20440940444044  1.17195590599060 -2.64659302900290
 1  5.56492190389039  2.23094335323532 -1.88461492969297
 1  5.95746305390539  0.73017412491249 -2.96222495349535
 1  6.58069013191319  1.50527452745274 -0.04489184638464
 1  6.46735085448545 -0.08040607800780  0.71025074177418
 1  7.28748613331333 -1.32552178737874 -1.13624494809481
 1  7.78195063096310  0.02669587768777 -2.00092301590159
 1  9.05636768836884  0.80929881488149  0.17579521172117
 1  8.97597608630863 -0.76468197439744  0.72855071877188
 1  10.15899345074507  0.00522306000600 -1.84779966946695
 1  9.26394137963796 -2.16685466196620 -1.85197112191219
 1  10.91732428812881 -2.46258304220422 -2.01234547844785
 1  9.79776266226623 -2.61183312531253 -0.34296373607361
 1  11.52271995289529  0.83041527172717  0.42807429492949
 1  11.29715276867687 -0.87179314061406  1.01732235383538
 1  12.67870118901890 -1.56206436763676 -0.84942260986099
 1  12.91880563306331 -0.03573288228823 -1.75122848414842
 1  13.83814525122512  0.95770832683268  0.54815215821582
 1  14.06725947904791 -0.68828843354335  0.98834535103510
 1  15.56863015151515  0.26267575257526 -1.32246660466047
 1  15.90640808370837 -2.17329762186219 -0.32570402430243
 1  14.79725277597760 -1.91503387898790 -1.79324673977398
 1  16.67636726612661 -1.49703522842284 -1.57470894039404
 1  16.23642884358436  1.38740657435744  0.89846639093909
 1  16.66890133733373 -0.29360853595360  1.41262402360236
 1  18.18525946464646 -0.37624417181718 -0.21838517891789
 1  17.77138420292030  0.97413473237324 -0.99903347914791
 1  18.50641143374337  2.33508766646665  0.85904390969097
 1  18.96700386068607  0.58864304530453  1.59853985428543
 1  20.63262817551755  0.35613176137614  0.20558762276228
 1  20.09425353195319  2.98837239913991 -1.31959555295530
 1  21.43741799389939  2.02206885968597 -1.48377974127413
 1  20.09839374377438  1.33989580038004 -1.84405137413741
 1  21.02874885008501  1.45633374247425  2.34176379357936
 1  22.41615332163216  1.84598582828283  1.43112807910791
 1  20.91641137103710  3.07974805810581  1.50611105160516

