%nproc=4
%Mem=2GB
# td=(NStates=1) CAM-B3LYP/6-31G(d,p) 

TD

0 1
<<<<<<< HEAD
12 -7.16367694069407  0.61401014911491  0.04127181458146
 6 -4.80176479447945 -1.89579075747575  0.55766229892989
 6 -4.88094802370237  2.89590803810381  1.25675204010401
 6 -9.42818755425542  3.06064155965597 -0.40342320202020
 6 -9.54236455015502 -1.75177068806881 -0.83673010211021
 7 -5.08633205780578  0.52842266036604  0.62292271057106
 6 -4.31455116121612 -0.63845366736674  0.70568859205921
 6 -2.88638764416442 -0.32438186388639  1.14835518971897
 6 -3.09890332873287  1.12669533783378  1.67514824552455
 6 -4.45648264316432  1.61836258505851  1.15264229412941
 6 -2.88140322242224  1.31673396149615  3.16101751065107
 6 -1.83242670367037 -0.51854711611161 -0.02006804850485
 6 -0.44192161476148 -0.35721006820682  0.61416554585459
 6  0.62807394459446 -0.56955046794679 -0.61163654415442
 8  0.28481972207221 -0.77987339493949 -1.74223055475548
 8  1.86471828232823 -0.38355575197520 -0.21210799969997
 7 -7.19342979087909  2.57905349514951  0.33097179267927
 6 -6.11957123612361  3.32456343214321  0.80746428002800
 6 -6.57381463456346  4.69556384578458  0.81058174537454
 6 -7.78511121812181  4.80729136063606  0.40926931823182
 6 -8.26276054765477  3.45907510281028 -0.00251770547055
 6 -5.64486244294429  5.79537200310031  1.13846860736074
 6 -8.63682147974797  6.01950298399840  0.23414039943994
 6 -8.67077096839684  7.21252737133713  0.84014026382638
 7 -9.07557983058306  0.68343120422042 -0.58306233993399
 6 -9.91520778047805  1.82738269136914 -0.67530385448545
 6 -11.24832392899290  1.46446478557856 -1.15378709820982
 6 -11.20086249014902  0.00138550265027 -1.23530224422442
 6 -9.90559624032403 -0.41908388268827 -0.97285230133013
 6 -12.32141096479648  2.32300287128713 -1.35011178597860
 6 -12.34172871917192 -0.81090850095009 -1.76821763026303
 6 -12.07423491189119 -1.18795120632063 -3.22922804140414
 7 -7.29273874217422 -1.40140975457546 -0.03390806780678
 6 -8.28163840364036 -2.27027219931993 -0.53345830103010
 6 -7.79447559315932 -3.59705797329733 -0.52587986528653
 6 -6.49301318541854 -3.54501883888389 -0.05644737663766
 6 -6.19640223662366 -2.20522880418042  0.18964176837684
 6 -8.60343781118112 -4.83411625402540 -0.87074555295530
 6 -5.29442391269127 -4.38074195769577  0.21010388298830
 8 -5.14316315421542 -5.57687217061706  0.22559959065907
 6 -4.13131671107111 -3.26727251705171  0.54310417571757
 6 -3.58321895279528 -3.69749497079708  1.97062743564356
 8 -3.84481608220822 -3.23658039423942  3.05956863796380
 8 -2.68650984468447 -4.57674239663966  1.69941852275228
 6 -2.14813540144014 -5.14907913701370  2.91323625912591
 6  2.85110762246225 -0.57226502110211 -1.26718791919192
 6  4.14671676067607 -0.48340651695170 -0.60258040704070
 6  5.15165865026503  0.25118138353835 -1.00385015771577
 6  5.08170659365937  1.23594624392439 -2.17204136943694
 6  6.43758809160916  0.33107495769577 -0.23626011121112
 6  7.67471500940094 -0.29838018491849 -0.85441239173917
 6  8.96995886848685 -0.13713884428443 -0.16609842264226
 6  10.19928055255525 -0.47441451315131 -0.98559953045305
 6  10.19083578377838 -2.03247418351835 -1.32430589558956
 6  11.43469634653465 -0.18881266206621  0.04148501710171
 6  12.74615952365236 -0.33357740884088 -0.67226724962496
 6  13.89759922832283 -0.13270447324732  0.32320938843884
 6  15.46519264416442 -0.25292902200220 -0.40698893869387
 6  15.61915358425843 -1.65530316411641 -0.68767838553855
 6  16.44940904680468  0.35158951895190  0.52776728392839
 6  17.84659924932493  0.37048844724472 -0.25401121572157
 6  18.92570293979398  1.07132534953495  0.74227466046605
 6  20.34172284148415  1.26130646414641  0.10983574677468
 6  20.26676803060306  2.14892318951895 -1.17971896459646
 6  21.27272820362036  1.93643657995800  1.13212857625763
 1 -4.31595307980798  3.67023254465447  1.52930751765177
 1 -10.22457284998500  3.82770360536054 -0.51304669616962
 1 -10.34438772817282 -2.53036237703770 -1.05856250845084
 1 -2.65015147204720 -0.96687500140014  1.94710540174017
 1 -2.12492609780978  1.72426600920092  1.26796744714471
 1 -1.84725918341834  1.06323677657766  3.41993570707071
 1 -2.98051311131113  2.37981203870387  3.52049421482148
 1 -3.73533697639764  0.91538622262226  3.77750016281628
 1 -2.19511199609961 -1.43210317071707 -0.67865177437744
 1 -2.10934260676068  0.23513076347635 -0.76909694929493
 1 -0.18910242764276  0.65617023092309  1.14455485458546
 1 -0.29853765576558 -1.25143965916592  1.32710666586659
 1 -5.93623239863986  6.67986663076308  0.58947465666567
 1 -5.74062105150515  6.06406977007701  2.07839413651365
 1 -4.76673062906291  5.67253842024202  0.83096627222722
 1 -9.28348040054005  6.05469161726173 -0.68655888408841
 1 -9.31261247714771  7.92866360526053  0.39961958375838
 1 -8.00418988478848  7.27607400690069  1.59851823732373
 1 -12.06732083718372  2.99261958795880 -2.25956896159616
 1 -13.47775744494449  2.00297418861886 -1.58161935343534
 1 -12.17259899099910  3.19685834053405 -0.56427767176718
 1 -12.54566934533453 -1.66096554165417 -1.16798175307531
 1 -13.34098281718172 -0.22835957275728 -1.84271979947995
 1 -12.89830618321832 -1.82117680388039 -3.61202108660866
 1 -12.17673123732373 -0.36369090669067 -3.85619911561156
 1 -11.27936421572157 -2.07155202230223 -3.47552617261726
 1 -9.05780538353835 -4.73510425332533 -1.77569083318332
 1 -8.08366773157316 -5.69390939513951 -0.40205981898190
 1 -9.62808269316932 -4.67453247454745 -0.25852767536754
 1 -3.27947864376438 -3.15006825752575  0.01775650415041
 1 -1.68161632813281 -4.37666410611061  3.55123803910391
 1 -2.84280388898890 -5.47944956255626  3.55926876577658
 1 -1.70464857635764 -6.00485975917592  2.38568252115212
 1  2.69279858395840 -1.49359119501950 -1.66776074107411
 1  2.61760923852385  0.05878015761576 -2.10924407660766
 1  4.18708961456146 -1.26865908110811  0.16666988298830
 1  4.04313327682768  1.31353006340634 -2.79716808650865
 1  5.42981839353935  2.20568082698270 -1.92603907210721
 1  5.68690599819982  0.81037214471447 -3.08092682368237
 1  6.38959102200220  1.35185918591859  0.06629927272727
 1  6.35865998539854 -0.29315735313531  0.72098181488149
 1  7.48996638133813 -1.36174540974097 -0.91297262086209
 1  7.80449288518852  0.16578978707871 -1.85840876447645
 1  8.94613666526653  0.87952583758376  0.20414804700470
 1  8.73652214091409 -0.87638314451445  0.60497836153615
 1  10.19179673107311  0.01400393809381 -1.80899578907891
 1  9.38221320682068 -2.37652562906291 -1.81977790259026
 1  10.91700425612561 -2.44277106100610 -1.86410065396540
 1  10.23288617461746 -2.56510845284528 -0.27609704940494
 1  11.36645432633263  0.73223545374537  0.37268875637564
 1  11.08631168456846 -0.86757271857186  0.91627224882488
 1  12.76285960486049 -1.46213437463746 -0.97953562116212
 1  12.85793954645465  0.15421611261126 -1.47265062636264
 1  13.53358479517952  0.79231178717872  0.69656699969997
 1  14.02331508460846 -0.62726233093309  1.28477499399940
 1  15.22313560206021  0.35004448944894 -1.21823618161816
 1  15.68745618851885 -2.34899519161916  0.01189973607361
 1  15.15146819751975 -2.17361973757376 -1.42626004110411
 1  16.58391802120212 -1.78308383328333 -0.95555702520252
 1  16.10922612331233  1.39743757745775  0.75515205950595
 1  16.49493394059406 -0.17210638573857  1.50532329352935
 1  18.27017795649565 -0.63873042044204 -0.45013835423542
 1  17.76130319481948  1.13160047894790 -1.35362893869387
 1  18.46957775037504  2.03651780948095  1.12801080638064
 1  19.11455861616162  0.37693187418742  1.63948394869487
 1  20.61304621732173  0.25818196639664 -0.17351028702870
 1  19.95756986358636  3.12127568946895 -0.93996759015902
 1  21.27151140324032  2.17222387518752 -1.71844320762076
 1  19.60291419581958  1.72913472427243 -1.81463843284328
 1  21.33625960116012  1.26045415451545  1.99289890709071
 1  22.31525323162316  2.26308753845385  0.74339930623062
 1  20.89305903580358  2.93337342064206  1.71642208270827
=======
12 -7.15836640964096  0.65101384948495  0.10501818921892
 6 -4.83732835083508 -1.96053723212321  0.62286881958196
 6 -4.85792572147215  2.83128157545755  1.14789115401540
 6 -9.50215495099510  3.05770126562656 -0.46519937963796
 6 -9.43448376207621 -1.86310182118212 -0.84910133923392
 7 -5.20507393199320  0.39769958805881  0.75025544384438
 6 -4.35823552965297 -0.68764858685869  0.82460048324833
 6 -2.92836184158416 -0.29892931863186  1.29747010121012
 6 -3.06152959135914  1.18721138943894  1.60565129582958
 6 -4.46361335623562  1.52512326112611  1.14071110101010
 6 -3.02484756685669  1.31885417351735  3.09622103100310
 6 -1.92800626162616 -0.60520578197820  0.08751270957096
 6 -0.46726414901490 -0.44870921812181  0.62313644294429
 6  0.57872901010101 -0.58655216811681 -0.50574595509551
 8  0.35281652175218 -0.78062346994699 -1.66823315501550
 8  1.86636844734473 -0.42010940734073  0.05355856695670
 7 -7.13499394729473  2.59245483528353  0.31040973647365
 6 -6.17613689268927  3.41384236003600  0.77736126972697
 6 -6.50439769286929  4.67854214361436  0.85178586578658
 6 -7.77510021702170  4.83245387688769  0.28719711101110
 6 -8.25398967056706  3.47758695399540  0.03405595189519
 6 -5.65074303100310  5.85851831773177  1.35880064056406
 6 -8.69699749734973  6.00180121382138  0.24706169156916
 6 -8.66881077237724  7.11265738433843  1.00774702450245
 7 -9.17195946854685  0.65179804090409 -0.45972000570057
 6 -9.99511577127713  1.76618657175718 -0.63701002510251
 6 -11.26492558915892  1.38522686178618 -1.21697341684168
 6 -11.24058646254625 -0.03741837773777 -1.38047676167617
 6 -9.88123380408041 -0.46960893519352 -0.85892090819082
 6 -12.23146196989699  2.37881845284528 -1.63616039083908
 6 -12.23548809510951 -0.94578198829883 -2.00506131463146
 6 -12.12567005540554 -1.06455886708671 -3.51356647524752
 7 -7.19839930823082 -1.35158477207721 -0.17857253425343
 6 -8.15723596339634 -2.27818299039904 -0.57753270847085
 6 -7.75256140174017 -3.65545381288129 -0.50084736203620
 6 -6.46416030013001 -3.54604894189419 -0.06600833273327
 6 -6.05922851925193 -2.14174245554555  0.12100490469047
 6 -8.49052652005200 -4.86710955335534 -0.83527200560056
 6 -5.29324379467947 -4.33629751325132  0.22991586418642
 8 -5.14781361926193 -5.59518400180018  0.12937996869687
 6 -4.15802938233823 -3.26639242904290  0.62691255655566
 6 -3.42957358825883 -3.56592181348135  1.94774514741474
 8 -3.65163676427643 -3.07036377257726  3.03356603770377
 8 -2.66115730943094 -4.63046776917692  1.81139972087209
 6 -2.10587117501750 -5.12609683878388  3.02890782628263
 6  2.86973948564856 -0.50549834443444 -1.03785498589859
 6  4.21475356435644 -0.36340451675168 -0.48169831883188
 6  5.21323480788079  0.54024028942894 -0.85594536723672
 6  5.02663108610861  1.32071472077208 -2.14641880718072
 6  6.53596792959296  0.60478232843284 -0.21975846104610
 6  7.58180571847185  0.13205285838584 -1.06768371887189
 6  8.83669554215422  0.10880575017502 -0.22031384418442
 6  10.19101972647265 -0.57042411411141 -0.89285025552555
 6  10.02039874007401 -2.06535747184718 -1.21373483848385
 6  11.36003888078808 -0.31031481228123 -0.05911504290429
 6  12.68982389008901 -0.62737678877888 -0.68512853575358
 6  14.01179064746475 -0.17951915471547  0.10151721922192
 6  15.36973309820982 -0.36162989208921 -0.52504074387439
 6  15.67079874877488 -1.72157979177918 -0.91892150985099
 6  16.42947705360536  0.25952031203120  0.42469697689769
 6  17.78878346774678  0.49544094249425 -0.25366118071807
 6  18.78054842434243  1.23293151015102  0.59513994699470
 6  20.22531120032003  1.19238957245725  0.21847661086109
 6  20.42827418121812  1.76475477267727 -1.21733272597260
 6  21.08239917071707  1.90288322462246  1.26658202160216
 1 -4.28333981848185  3.53863938533853  1.67069165606561
 1 -10.26509690239024  3.88927976297630 -0.73039843134313
 1 -10.03893718311831 -2.53417275807581 -1.14889154135414
 1 -2.47125358225823 -0.90264857875788  2.12861355255526
 1 -2.33358696389639  1.81296487908791  1.18000865126513
 1 -2.02984744224422  0.97709816271627  3.39147286078608
 1 -3.17794285428543  2.29491354885489  3.27894005940594
 1 -3.86547999069907  0.83194787878788  3.69745215801580
 1 -2.01309379427943 -1.56796675707571 -0.49651356055606
 1 -2.05278695119512  0.18199544994499 -0.68023806340634
 1 -0.14707822522252  0.55822043594359  1.06087648674868
 1 -0.26474427642764 -1.07912242744274  1.47067102230223
 1 -6.02645142054205  6.58693733783378  0.71040674987499
 1 -5.81702869226923  6.15535889898990  2.33000929802980
 1 -4.54914887088709  5.74036520292029  1.22303547914791
 1 -9.72080413291329  6.00032618071807 -0.35769599779978
 1 -9.58072928882888  7.79223996289629  0.79151877367737
 1 -7.83042250805081  7.24901130063006  1.52682106760676
 1 -11.84352845794579  2.86541686768677 -2.75844884958496
 1 -13.18900857005701  2.05172906410641 -1.84836602810281
 1 -12.50692242334233  3.18862751745174 -0.93590483448345
 1 -12.21978675707571 -1.96757620272027 -1.34600955585559
 1 -13.24145286418642 -0.52148888568857 -1.88569409690969
 1 -13.00985733833383 -1.57048173437344 -4.17413729822982
 1 -12.04420798499850 -0.14196873447345 -4.13913740944094
 1 -11.14381066036604 -1.72035690279028 -3.57337595759576
 1 -8.97248685168517 -4.90944168706871 -1.84489775387539
 1 -7.99452881768177 -5.80268027222722 -0.45862547554756
 1 -9.26742662756276 -5.05833085438544 -0.00243206580658
 1 -3.51047174307431 -3.46733998469847 -0.18643391489149
 1 -1.78420658715872 -4.18426486618662  3.71039395469547
 1 -2.78705831443144 -5.90565218281828  3.58766160506051
 1 -1.57136524802480 -5.84977425062506  2.87510146304630
 1  2.88867817191719 -1.53807564346435 -1.24666863186319
 1  2.96340381798180  0.18931321092109 -1.85382853505350
 1  4.23772467806781 -0.85485770097010  0.31905512151215
 1  4.12252121562156  1.37827653805381 -2.71048941864186
 1  5.30146555825582  2.34272453135314 -2.07303377157716
 1  5.61093840144014  0.94132524002400 -3.06634536553655
 1  6.81590365326533  1.70204420442044  0.07840048284828
 1  6.48534265366537  0.21788375097510  0.84624434113411
 1  7.47046443114311 -0.93736297149715 -1.28565988958896
 1  7.61226366226623  0.89747295539554 -1.93663658725873
 1  9.31159321092109  1.20408829382938 -0.04399676747675
 1  8.79903839253925 -0.37291279747975  0.67878574227423
 1  10.44901245264526 -0.10656811911191 -1.82000689018902
 1  9.26237122262226 -2.27445542204220 -2.04571049584959
 1  10.92624518021802 -2.56180296419642 -1.57458170207021
 1  9.57063994999500 -2.78155009700970 -0.44349378907891
 1  11.35136281718172  0.71230346054605  0.25829731723172
 1  11.51010406380638 -0.86632259355936  0.93497411901190
 1  12.76068938783878 -1.67827598879888 -0.65093276087609
 1  12.59609336183618 -0.17434674367437 -1.74123748504851
 1  13.90135157185719  0.81876443244324  0.26702404540454
 1  14.12140489358936 -0.70188979367937  1.10916743324332
 1  15.18847213571357  0.18252773777378 -1.47740209820982
 1  15.55871331423142 -2.30968126022602 -0.21675312921292
 1  15.07354040474047 -2.23183555915592 -1.80757817291729
 1  16.45904553395340 -1.98280380528053 -1.54819628912891
 1  16.12666786748675  1.15868370207021  0.99098564286429
 1  16.60975542274227 -0.50859003410341  1.28469123032303
 1  18.31828276697670 -0.44716126352635 -0.52460580098010
 1  17.75282234673467  1.13092041094109 -1.08951252705271
 1  18.55420621322132  2.31880603830383  0.94056206150615
 1  19.06544370467047  0.52503668466847  1.51735173547355
 1  20.47293220592059  0.00999714791479  0.13892095609561
 1  20.04491859845984  2.86407996989699 -1.27522111551155
 1  21.53574782688269  1.57663431623162 -1.70235159845985
 1  19.51204510891089  1.47287909870987 -1.78453542254225
 1  20.68869484468447  1.51033914301430  2.27814743194319
 1  22.28395010131013  1.82383361306131  1.14729969626963
 1  20.90348007790779  2.94658474177418  1.10055049554956
>>>>>>> 8e03b5b5abfc0030b3aa597dc0de36371bfbd096

