%nproc=4
%Mem=2GB
# td=(NStates=1) CAM-B3LYP/6-31G(d,p) 

TD

0 1
12 -7.22621319431943  0.59902865096510  0.12407009440944
 6 -4.80337495549555 -1.84717589598960  0.54504103680368
 6 -4.87585751465147  2.93706215351535  1.07373373827383
 6 -9.48097283278328  3.02237773327333 -0.39347220692069
 6 -9.53271358505851 -1.82623813481348 -0.87239366846685
 7 -5.15658908350835  0.56344616271627  0.72402282058206
 6 -4.41261096719672 -0.56243606560656  0.81560958415842
 6 -2.91694069946995 -0.25469489518952  1.16891724592459
 6 -2.98249168756876  1.23591625992599  1.73383411411141
 6 -4.44378137303730  1.53644439323932  1.20216724662466
 6 -3.04846992909291  1.19075136323632  3.20522193109311
 6 -1.88947240824082 -0.46028128952895 -0.09411545324532
 6 -0.48257568016802 -0.23220756795680  0.48086221552155
 6  0.48875001220122 -0.58070158305831 -0.62065744624462
 8  0.25753699379938 -0.97436284388439 -1.72921925362536
 8  1.75287709820982 -0.33112050845084 -0.25101189008901
 7 -7.22157260516052  2.62265785558556  0.30397909340934
 6 -6.13330260926093  3.34666564236424  0.75979951355136
 6 -6.53118037113711  4.72204649404940  0.75431611881188
 6 -7.83343605060506  4.79608023952395  0.33678206950695
 6 -8.20007427902790  3.47015621092109  0.00571311761176
 6 -5.65976393309331  5.95991845774577  1.17558231873187
 6 -8.61996979457946  6.00721175487549  0.02878986438644
 6 -8.64329822112211  7.15394151275127  0.74387063686369
 7 -9.18744101670167  0.58646150725073 -0.51934596829683
 6 -9.87740400010001  1.70123007610761 -0.74053037713771
 6 -11.29818891549155  1.35953429252925 -1.04607632713271
 6 -11.22704510841084 -0.02547718361836 -1.24596331033103
 6 -9.90017569826983 -0.48151012531253 -0.87808282438244
 6 -12.41851067476748  2.31228179917992 -1.26176295109511
 6 -12.44708925522552 -0.80956836693669 -1.62267307580758
 6 -12.32811029942994 -1.22118452965297 -3.15487060566057
 7 -7.27085655395540 -1.47071668526853 -0.15028970597060
 6 -8.29315955575558 -2.29123429552955 -0.53282823802380
 6 -7.82340848644864 -3.64836310381038 -0.48874615191519
 6 -6.43719760386039 -3.63291762876288 -0.06328806070607
 6 -6.13649624602460 -2.19631791309131  0.07812061626163
 6 -8.56551401880188 -5.00726356875688 -0.73685216361636
 6 -5.24202867316732 -4.34560844434443  0.16891976457646
 8 -5.05726456435644 -5.50228471187119  0.11007803850385
 6 -4.15807938733873 -3.21926771657166  0.61495136043604
 6 -3.49726035693569 -3.61943716501650  1.86529690259026
 8 -3.75877747834783 -3.13633036923692  2.89620230133013
 8 -2.50924211791179 -4.64929965236524  1.75625420632063
 6 -2.12050263816382 -5.06207043614361  3.00848578407841
 6  2.83131564326433 -0.57024481908191 -1.19790099049905
 6  4.16170825982598 -0.38000617691769 -0.66688683768377
 6  5.13754723912391  0.46757302270227 -0.99198897159716
 6  5.05373379637964  1.37815046434643 -2.14935910121012
 6  6.42612694549455  0.54432628282828 -0.22809929512951
 6  7.71221875977598 -0.01550189708971 -0.99907685818582
 6  8.96985885848585  0.04945981558156 -0.17690950375038
 6  10.21839246374637 -0.51053812551255 -0.86002697319732
 6  10.08944564476448 -2.02955389148915 -1.32833629862986
 6  11.47214009090909 -0.25752953375338 -0.04591372277228
 6  12.82963787148715 -0.46130018111811 -0.79168919181918
 6  13.99930939933993 -0.24529573237324  0.24218128562856
 6  15.39189531443144 -0.28722245134513 -0.49322756255626
 6  15.73021469036904 -1.73274090789079 -0.96409602730273
 6  16.51058516441644  0.21103546354635  0.58204271147115
 6  17.85231982138214  0.48964036243624 -0.17667348194819
 6  18.93448381788179  1.12188040504050  0.83747418041804
 6  20.36745541474147  1.16953728722872  0.18828359155916
 6  20.41567292109211  2.05082337953795 -1.02252324502450
 6  21.33109404020402  1.64082701900190  1.37953331673167
 1 -4.15511699619962  3.57206272767277  1.53708829572957
 1 -10.21847223992399  3.75085592059206 -0.51474686618662
 1 -10.15696898629863 -2.71414075487549 -1.10854750695069
 1 -2.44779123602360 -0.94629294319432  1.91076176737674
 1 -2.13998760396040  1.87197077967797  1.27615826622662
 1 -2.10219467696770  0.92976342924292  3.76204991849185
 1 -3.15393045304530  2.10251430893089  3.60837300270027
 1 -3.83745718841884  0.57949263326333  3.38756116891689
 1 -1.97357984288429 -1.38826878727873 -0.57256116531653
 1 -2.13417509000900  0.34449169956996 -0.88321836143614
 1 -0.42160567796780  0.85202981688169  0.91516191529153
 1 -0.23777157915792 -0.93333784898490  1.33743769896990
 1 -6.10897967336734  6.80079872397240  0.66933264246425
 1 -5.71926891629163  6.11689505260526  2.25216151325132
 1 -4.58935289128913  5.96039720612061  1.07564073967397
 1 -9.26327838033803  6.05595174327433 -0.79924015221522
 1 -9.29426064196420  7.98789952885289  0.61717133893389
 1 -8.02131159695969  7.41496789628963  1.40122850835083
 1 -12.49351345644565  2.80152047804780 -2.32925593029303
 1 -13.19699936913691  1.78829272047205 -1.25190638213821
 1 -12.69252098319832  3.01420007470747 -0.38601984598460
 1 -12.67111188958896 -1.66161560666067 -1.02718767366737
 1 -13.45594431333133 -0.40491722852285 -1.38036356385639
 1 -13.08451480408041 -1.86660134633463 -3.58285817031703
 1 -12.22521608580858 -0.30703524112411 -3.89895339103910
 1 -11.40148642794280 -1.77959282638264 -3.25404402440244
 1 -8.89858946194620 -5.11106184908491 -1.82801606570657
 1 -7.93654301910191 -5.82681268546855 -0.38645825882588
 1 -9.57860774567457 -5.06425144644465 -0.13243506610661
 1 -3.48326902280228 -3.29108235893589 -0.20848612011201
 1 -1.35265343184318 -4.39162560226023  3.43732664796480
 1 -3.05782539113911 -5.12548416601660  3.59837267616762
 1 -1.48961707320732 -5.89044831803180  2.85655960886089
 1  2.49285858995900 -1.61749358525853 -1.79312327732773
 1  2.64443192079208  0.04186846644664 -2.09871302350235
 1  4.46921782738274 -0.81855407060706  0.30351356735674
 1  4.01405036853685  1.43196190659066 -2.51526989668967
 1  5.35745115681568  2.30645090399040 -1.82501897009701
 1  5.73644095169517  1.08135924342434 -2.92963169416942
 1  6.55018708160816  1.54114811481148 -0.03606096329633
 1  6.50048416781678  0.12883484608461  0.75792550925092
 1  7.47859524422442 -0.95408464366437 -1.56263758735874
 1  7.69196163206321  0.67869107720772 -1.84846777037704
 1  9.25287733933393  1.11424930993099  0.29229686188619
 1  8.90004849354936 -0.54227973417342  0.77588545224522
 1  10.52811036243624 -0.14150161246125 -1.86997188668867
 1  9.11196618211821 -2.04786276277628 -2.09523544834483
 1  10.96466902260226 -2.24272105600560 -1.97807205110511
 1  9.85126801280128 -2.75274721672167 -0.48486792649265
 1  11.76491417231723  0.68648087828783  0.49467095459546
 1  11.45504855825583 -1.04430039133913  0.90528114971497
 1  12.90927424632463 -1.45397355855586 -1.13606127372737
 1  12.99188294079408  0.27316800780078 -1.57375073637364
 1  13.90820225692569  0.81620417641764  0.69412675567557
 1  14.04362711581158 -1.05069467416742  1.00973749024903
 1  15.45776906540654  0.36439592459246 -1.33478783678368
 1  16.02858030093009 -2.48544883698370 -0.00376183008301
 1  14.88937198789879 -2.24271664726473 -1.64554196929693
 1  16.50604023342334 -1.55314083898390 -1.43991546104611
 1  16.17522272297230  1.15367320102010  1.05493203750375
 1  16.60264471167117 -0.42094126922692  1.36691945314531
 1  18.16082702140214 -0.37854440184018 -0.46969030943094
 1  17.67727479197920  1.23315063396340 -1.00478405420542
 1  18.40332112471247  2.12564672237224  1.06849485478548
 1  19.15759291959196  0.44008818981898  1.67353735403540
 1  20.29916482918292  0.16775292349235 -0.10846378237824
 1  20.06257036363636  3.12197575947595 -0.65191878527853
 1  21.34946919901990  2.13287994079408 -1.50800216351635
 1  19.65874977937794  1.57576938773877 -1.76187315631563
 1  21.21884785998600  1.09219732883288  2.28124774197420
 1  22.39082078837884  1.39667089678968  1.28037300360036
 1  21.25035476537654  2.69499958325833  1.37664810531053

