%nproc=4
%Mem=3GB
# td=(NStates=1) iop(3/107=0140000000,3/108=0140000000) CAM-B3LYP/6-31G(d,p) 

TD

0 1
12 -7.07928261996200  0.66711509500950 -0.04014764476448
 6 -4.87899671617162 -2.05898312891289  0.42164756715672
 6 -4.69777580818082  2.80597931583158  1.06762686788679
 6 -9.37075383988399  3.12638019101910 -0.43089556485649
 6 -9.57643374137414 -1.66495826152615 -0.88551535643564
 7 -5.08471550275028  0.31167725832583  0.66379420342034
 6 -4.26895914321432 -0.81664280748075  0.79510740544054
 6 -2.93316953755376 -0.44268266626663  1.27384305340534
 6 -3.00719394629463  0.98604730633063  1.65885216451645
 6 -4.32915315001500  1.44673932503250  1.04691908580858
 6 -2.96564274507451  1.12013483278328  3.21797711231123
 6 -1.88462419211921 -0.64194018321832  0.13681749204920
 6 -0.40580628982898 -0.47603085108511  0.54946832913291
 6  0.51837376057606 -0.74348096999700 -0.53484327442744
 8  0.25562577937794 -0.86654043174317 -1.75344273737374
 8  1.73457205560556 -0.53124306270627 -0.16415180278028
 7 -7.01665930933093  2.57718092799280  0.20441136523652
 6 -5.97078722252225  3.32844661206121  0.70692656875688
 6 -6.35984089248925  4.72496936053605  0.83747200590059
 6 -7.69239402470247  4.86418822402240  0.33185931233123
 6 -8.04538406590659  3.46281322012201 -0.02587458885889
 6 -5.38999103300330  5.87402687638764  1.15408556375638
 6 -8.46211621962196  6.12011228082808  0.11901251375138
 6 -8.22468087808781  7.23948309800980  0.73088714801480
 7 -9.09152819391939  0.72533952835284 -0.56430300420042
 6 -9.92217970427043  1.82339566386639 -0.63316613011301
 6 -11.25165911861186  1.60238968346835 -0.97630248994899
 6 -11.29532902010201  0.12106965276528 -1.08302833113311
 6 -9.95846344994500 -0.31092128552855 -0.81268346964696
 6 -12.36687762546255  2.55840108150815 -1.25092454515452
 6 -12.41239503240324 -0.77145326912691 -1.65618494909491
 6 -12.29013092199220 -1.01175136743674 -3.12731338253825
 7 -7.15008797119712 -1.36850168586859 -0.18701137623762
 6 -8.34441876817682 -2.26127467296730 -0.47952953285329
 6 -7.95418745854585 -3.60923147454745 -0.49029932973297
 6 -6.58428621912191 -3.57282026412641 -0.14421650335034
 6 -6.21848558025803 -2.26888484428443  0.03601543694369
 6 -8.72837517701770 -4.79486558495850 -0.68807219031903
 6 -5.36735219811981 -4.43323688708871  0.24781975607561
 8 -5.39671066336634 -5.69867672467247  0.28325427402740
 6 -4.25070957355736 -3.33393084048405  0.41807012861286
 6 -3.55428960576058 -3.67486542924292  1.75885185368537
 8 -3.82791557495750 -3.00389774767477  2.76184954315432
 8 -2.69972532533253 -4.74877349584959  1.65421445894589
 6 -2.19787874487449 -5.22788799469947  2.97427482788279
 6  2.91963828422842 -0.51308959785979 -1.14946846404640
 6  4.13130401560156 -0.33423869176918 -0.43136569936994
 6  5.18142363366337  0.32897942594259 -0.93731660866087
 6  5.17397112271227  1.14926260156016 -2.20129426442644
 6  6.38290456915692  0.44434505050505 -0.11112163656366
 6  7.59648110071007 -0.12668121612161 -0.95865619431943
 6  8.89030674227423 -0.08366018211821 -0.05968207060706
 6  10.24584004460446 -0.55092675587559 -0.80217593759376
 6  9.96632990959096 -1.94107198709871 -1.42423938993899
 6  11.43087775157516 -0.38346323742374  0.05191722922292
 6  12.81402913841384 -0.55378541204120 -0.68070557565757
 6  13.97512878467847 -0.26019173347335  0.17502391399140
 6  15.37477346834683 -0.37045612921292 -0.44807045954595
 6  15.74755102610261 -1.81410979927993 -0.81958378467847
 6  16.41758875157516  0.33179969726973  0.43191792649265
 6  17.80877846554656  0.55056878647865 -0.20988751575158
 6  18.76998741734173  1.43610168866887  0.71600485718572
 6  20.18316112051205  1.48441787428743  0.18037474347435
 6  20.31619446524653  2.35492279737974 -1.06400109600960
 6  21.02994806180618  1.99889158905891  1.31497543754375
 1 -3.96324668816882  3.40334358575858  1.57177327312731
 1 -9.97586971027103  3.92806508100810 -0.63149767596760
 1 -10.44091851595159 -2.34873040814081 -1.26559437883788
 1 -2.50956824402440 -1.15215541824182  2.12897938863886
 1 -2.11292475877588  1.44383644474447  1.26553020202020
 1 -2.16259934633463  0.65965507190719  3.76603694109411
 1 -2.93962107120712  2.20685990879088  3.67117513971397
 1 -3.78154095459546  0.73507866216622  3.78094978017802
 1 -1.77593271227123 -1.78756942774277 -0.32611061816182
 1 -2.21213758275828 -0.06504888508851 -0.54334106870687
 1 -0.27714314301430  0.41106069336934  0.98266212921292
 1 -0.20808922922292 -1.26814758135814  1.41523498179818
 1 -5.69221339903990  6.62833034503450  0.24949478077808
 1 -5.59773124442444  6.28901178257826  2.18640065256526
 1 -4.44862970757076  5.73010727872787  0.95351608420842
 1 -9.22391265106511  5.77475085708571 -0.61211256395640
 1 -8.62486154985499  8.18524824582458  0.52809258495850
 1 -7.42665059715972  7.29477631403140  1.25244420472047
 1 -11.91607208020802  3.05173432053205 -2.23151898339834
 1 -13.35004230193019  2.27510625302530 -1.44709043724372
 1 -12.65630666336634  3.18853618771877 -0.40792123162316
 1 -12.41455342024202 -1.80959188198820 -1.19321282218222
 1 -13.30873317241724 -0.36027873837384 -1.28566432083208
 1 -12.99556475567557 -1.89766342844284 -3.37028798689869
 1 -12.67217762346235 -0.10100857215722 -3.66832581098110
 1 -11.18850368976898 -1.41642266946695 -3.29446772497250
 1 -8.97032165076508 -4.69561606240624 -1.62863892689269
 1 -8.17462184738474 -5.77417337063706 -0.63423337843784
 1 -9.60977515651565 -4.86177462586259 -0.14413668236824
 1 -3.45225274377438 -3.63979058465847 -0.47826556465647
 1 -1.65114850245025 -4.51749396279628  3.14744646224623
 1 -3.03160959825983 -5.38317784268427  3.70498153585359
 1 -1.58100862136214 -6.23029381418142  2.92232559365937
 1  2.73185123992399 -1.37689431223122 -1.83245469416942
 1  2.79289573087309  0.20860894569457 -1.86744780228023
 1  4.21960244694470 -0.73049146294629  0.67974937513751
 1  4.19019433093309  1.15684122682268 -2.66184667036704
 1  5.50901783398340  2.27006743064306 -2.14258169656966
 1  5.77926749524953  0.66989818071807 -3.07166342324232
 1  6.59985816971697  1.63509348994900  0.17087670157016
 1  6.29828770087009  0.02128479177918  0.82348854435444
 1  7.37149927272727 -1.07640831383138 -1.16852160936094
 1  7.77341990049005  0.44163326632663 -1.70133095599560
 1  8.94976102040204  0.91689118661866  0.18609103720372
 1  8.75055817661766 -0.63920227292729  0.82681880528053
 1  10.39426405820582 -0.05501935413541 -1.57570272827283
 1  8.99023863296330 -1.79043732723272 -1.94966334823482
 1  10.88498763936394 -2.22647604690469 -2.05720107820782
 1  9.90800299739974 -2.63617773247325 -0.73084047774777
 1  11.07741938353835  0.68688512191219  0.43148091889189
 1  11.56304389988999 -1.22422371997200  0.81027734783478
 1  12.95246319881988 -1.63639105840584 -1.20434270577058
 1  12.77558338823882  0.16595153115312 -1.61340567426743
 1  13.75688710901090  0.71011637493749  0.62922775147515
 1  14.01344965556556 -0.92051843074307  0.85745811981198
 1  15.26381678307831  0.30951434843484 -1.25388665746575
 1  15.95347914471447 -2.47147648884888  0.06364822932293
 1  14.96836848124812 -2.51030555055506 -1.46171754525452
 1  16.64663294289429 -1.69079997699770 -1.53918043134313
 1  16.00362363586359  1.33214154785479  0.56641255755576
 1  16.36355043284328 -0.10040632543254  1.58647714241424
 1  18.23332006970697 -0.44255076907691 -0.27846804240424
 1  17.71800911051105  1.12934182828283 -1.23257900150015
 1  18.38355741264126  2.37076834483448  0.87122906970697
 1  18.50551651415142  0.82858769826983  1.57256050155016
 1  20.56548638093809  0.61168216581658  0.06386227842784
 1  20.03806062456246  3.55296607310731 -0.86170835553555
 1  21.37399119991999  2.33472461456146 -1.35022300350035
 1  19.59210760836084  2.01204149434944 -1.78560694509451
 1  21.11820567406740  1.29058469936994  2.16569023782378
 1  22.03052094489449  2.04863533423342  0.96838349194920
 1  20.66499657815782  3.04609072627263  1.76085322202220

