%nproc=4
%Mem=2GB
# td=(NStates=1) CAM-B3LYP/6-31G(d,p) 

TD

0 1
12 -7.12631320432043  0.55526427452745  0.14524221162116
 6 -4.92803742174217 -2.02761393979398  0.49033556625663
 6 -4.69416934583458  2.82157060436044  1.14929129402940
 6 -9.36461119661966  3.09321481698170 -0.39941280098010
 6 -9.68666898059806 -1.74305981698170 -0.88137456655666
 7 -5.11509493409341  0.41976179427943  0.75866628492849
 6 -4.34728443454345 -0.76454627662766  0.84049207240724
 6 -2.85112411781178 -0.50660008570857  1.25614596879688
 6 -3.07434087248725  1.02177484578458  1.73174390509051
 6 -4.26831382628263  1.42582333113311  1.10796782668267
 6 -3.10199528162816  1.15189747784778  3.22673408230823
 6 -1.92533599459946 -0.70682594399440  0.10004396269627
 6 -0.56294371697170 -0.58214256145615  0.50239436873687
 6  0.52154329152915 -0.63869738263826 -0.65829120962096
 8  0.23109434953495 -0.92562797039704 -1.83192952465247
 8  1.76495830633063 -0.44674207060706 -0.24712150105011
 7 -7.08565901380138  2.53296888668867  0.42016071157116
 6 -5.97068634763476  3.29428040384038  0.79731326492649
 6 -6.32747000010001  4.72620691009101  0.74286497369737
 6 -7.61466417341734  4.73979461096110  0.32688107940794
 6 -8.10449472107211  3.44061325662566  0.03409595589559
 6 -5.41883984068407  5.88202066796680  1.02271703220322
 6 -8.36671446904690  6.11892292599260 -0.02640565516552
 6 -8.38319221052105  7.27502362096210  0.60679692949295
 7 -9.14656692929293  0.70463332443244 -0.53123715741574
 6 -9.87622388208821  1.86234618771877 -0.70885720982098
 6 -11.15594469106911  1.49213755285529 -1.10244196369637
 6 -11.27877028092809  0.11310667476748 -1.26648536253625
 6 -9.93857953865387 -0.33081505580558 -0.83674869096910
 6 -12.13267209090909  2.44803537453745 -1.57320409520952
 6 -12.48433297959796 -0.72354976507651 -1.64740554905491
 6 -12.49074656305631 -0.96223863506351 -3.16689180778078
 7 -7.21167063536354 -1.35265487908791 -0.28512318931893
 6 -8.33264350415041 -2.22670784288429 -0.57653260846085
 6 -7.86208235383538 -3.60816908440844 -0.40021729902990
 6 -6.56184006810681 -3.53283762076208 -0.08437016891689
 6 -6.26220881728173 -2.21155943724372  0.12805560976098
 6 -8.76233370077008 -4.82927576997700 -0.78601708010801
 6 -5.43194766506651 -4.43154703820382  0.27563043564356
 8 -5.33416225412541 -5.62263674707471  0.23670070077008
 6 -4.23805738513851 -3.31336712651265  0.52556242154215
 6 -3.63495412631263 -3.66371159245925  1.91037141004100
 8 -3.80008160876088 -3.18771550775078  2.95764844594459
 8 -2.91383257695770 -4.83381810421042  1.73974255515552
 6 -2.27841842974297 -5.43908813791379  3.00190512601260
 6  2.87829034073407 -0.71341913651365 -1.27604880528053
 6  4.18953104210421 -0.38849702600260 -0.57818796779678
 6  5.14948843324332  0.39203546894689 -0.94815458815882
 6  5.11932035503550  1.32546519581958 -2.15205937123712
 6  6.45329966276628  0.49431128132813 -0.13861034623462
 6  7.58883642154215 -0.22398274517452 -0.82990994149415
 6  8.88828070067007  0.02267713731373 -0.10690250305031
 6  10.12327295179518 -0.59599667136714 -0.87567853835384
 6  10.17319401960196 -2.03423435953595 -1.21014447944794
 6  11.36749962686269 -0.15783956475648  0.05508637723772
 6  12.77324223192319 -0.45013906500650 -0.64718474137414
 6  13.97543701210121 -0.01875307810781  0.28418548604860
 6  15.33676980188019 -0.06140987008701 -0.52749098889889
 6  15.70207187608761 -1.43681131493149 -0.97962758045805
 6  16.50898500440044  0.48519287928793  0.36664117131713
 6  17.84485907530753  0.58887028542854 -0.18674448904890
 6  18.94094446394639  1.27424564156416  0.69684011701170
 6  20.37175584478448  1.34556488998900  0.09814457765777
 6  20.48862021582158  2.14048234543454 -1.06673766646665
 6  21.24769570037004  1.89237217351735  1.29610497389739
 1 -3.97113859835984  3.42435795719572  1.75548013491349
 1 -10.25368576127613  3.87953878887889 -0.48146353785379
 1 -10.22976626602660 -2.48342768356836 -0.99355600780078
 1 -2.62084854175418 -0.97991630553055  2.26474716591659
 1 -2.14797840304030  1.56063964656466  1.44657530793079
 1 -2.23971842934293  0.76432688558856  3.70484419791979
 1 -3.21916697669767  2.21046510401040  3.57471963736374
 1 -3.98830227292729  0.60139482348235  3.91613402620262
 1 -2.15082756765677 -1.73956391679168 -0.05040895009501
 1 -1.99762143464346  0.07675492589259 -0.60642068166817
 1 -0.62291580898090  0.34990960486049  0.81567196629663
 1 -0.33285108710871 -1.35501001620162  1.19343329852985
 1 -6.01353012841284  6.48428707280728  0.42650836003600
 1 -5.43392038143814  6.26911027412741  2.02419871697170
 1 -4.35941989798980  5.66596776317632  0.77320049564957
 1 -9.00146219871987  5.82794894299430 -0.85302553075307
 1 -9.17090830673067  7.95514625352535  0.20712033383338
 1 -7.72976244204420  7.32926932643264  1.50598898439844
 1 -11.88717282238224  3.13548387438744 -2.41112411711171
 1 -13.15686535573557  2.17507139833983 -1.91249244074407
 1 -12.55627735883589  3.26902555725573 -0.77033827782778
 1 -12.28942372077208 -1.83010245534553 -1.26074102900290
 1 -13.29072779167917 -0.01473821062106 -1.28822434993499
 1 -13.34424077667767 -1.61076576277628 -3.39223910841084
 1 -12.40683424762476 -0.00504504210421 -3.82714621032103
 1 -11.56363264256426 -1.28539340644064 -3.57731635163516
 1 -8.90985058805881 -4.74261500440044 -2.05676894099410
 1 -7.79775914071407 -5.52813281748175 -0.72867248024803
 1 -9.62382226712671 -5.02052707400740 -0.30168199079908
 1 -3.36824752065206 -3.50599385008501 -0.05075034653465
 1 -1.69571773827383 -4.65451189088909  3.44890780608061
 1 -3.26628623722372 -5.77044866246625  3.68511135003500
 1 -1.70454856635664 -6.34553382658266  2.54347830073007
 1  2.70371967606761 -1.65229706560656 -1.63228719371937
 1  2.65304278187819  0.16384066366637 -1.97321047324732
 1  4.27169807540754 -1.07259947514751  0.38519173517352
 1  4.01961092459246  1.45327403780378 -2.47557592729273
 1  5.66427183888389  2.25733599249925 -1.99000546874687
 1  5.51485879347935  0.70734184168417 -2.93838256925693
 1  6.48634069696970  1.53262726272627 -0.10889824702470
 1  6.42548666806681 -0.04280231763176  0.85128484518452
 1  7.29567695239524 -1.40861009620962 -1.16714803840384
 1  7.66006844274427  0.27072028012801 -1.99796271987199
 1  9.12730478207821  1.03457134213421  0.15035266746675
 1  8.86333482218222 -0.39686519271927  0.85208307200720
 1  10.31668922032203  0.19623216091609 -1.77835272477248
 1  9.44346933243324 -2.45491346784678 -1.60371629642964
 1  11.10414296999700 -2.49451623552355 -1.64342858675868
 1  9.98193107910791 -2.41854379637964 -0.07413685338534
 1  11.38914659555956  0.81949417961796  0.43577506500650
 1  11.26222927632763 -0.57917387868787  0.93907452905291
 1  13.00411373027303 -1.52756091729173 -0.89788745634563
 1  12.74498825132513  0.19125981698170 -1.51100446174617
 1  13.88353979067907  1.07481003700370  0.45110245324532
 1  14.00581333443344 -0.66738634333433  1.23722023852385
 1  15.33575686418642  0.57483696869687 -1.37561191919192
 1  16.01114855775577 -2.17872816491649 -0.08799025292529
 1  15.11211426212621 -1.96527890349035 -1.82389980508051
 1  16.72180180958096 -1.34570009490949 -1.46798826832683
 1  16.21900710141014  1.37335516921692  0.95973251755175
 1  16.42114656185618 -0.11034020912091  1.23445620682068
 1  18.17827876657666 -0.34623117051705 -0.40724406480648
 1  17.86491355585559  1.08589590849085 -1.17790136593659
 1  18.48801959455946  2.19855401310131  0.75841384668467
 1  19.19291645194519  0.63698787978798  1.73654365466547
 1  20.74659957265727  0.37108325652565 -0.12500543654365
 1  19.96829093569357  2.95982954485449 -1.10642423582358
 1  21.58477272937294  1.96465311811181 -1.39212057535754
 1  20.00355425982599  1.78300011081108 -2.03127009600960
 1  21.34306028122812  1.27321543064306  2.15937555475548
 1  22.29316102240224  1.90941217091709  0.90557552385238
 1  20.88206793669367  2.94091417471747  1.54779522002200

