%nproc=4
%Mem=2GB
# td=(NStates=1) CAM-B3LYP/6-31G(d,p) 

TD

0 1
12 -7.12629320232023  0.57078582668267  0.04689237663766
 6 -4.86287090509051 -1.93026420482048  0.52980951365136
 6 -4.81461139003900  2.84075252255226  1.14330069496950
 6 -9.43836857235724  3.13002849834983 -0.42644550425042
 6 -9.55854616831683 -1.69481499249925 -0.88220464956496
 7 -5.07190061466147  0.47045686378638  0.65712613091309
 6 -4.43264297039704 -0.68016783878388  0.84394241744174
 6 -2.96470547594759 -0.38919834553455  1.20946130033003
 6 -3.05461890029003  1.00617328562856  1.67807853855386
 6 -4.35309230413041  1.51531228002800  1.13540056995700
 6 -2.90494557665767  1.14664695279528  3.10353176207621
 6 -1.83041650265026 -0.61350661206121  0.17154111241124
 6 -0.35451287388739 -0.49494384158416  0.60510463976398
 6  0.61814295149515 -0.72950646354635 -0.56494187468747
 8  0.21535277537754 -0.90441584918492 -1.69278561026103
 8  1.93893570407041 -0.66025342174217 -0.07928471737174
 7 -7.04843529142914  2.69290488028803  0.37537623312331
 6 -6.05259453845385  3.40564153995400  0.73667720132013
 6 -6.35764301740174  4.79101339073907  0.81831251845185
 6 -7.73433614061406  4.90409104060406  0.36465485678568
 6 -8.08166243784379  3.47839703500350  0.18396094239424
 6 -5.49861781848185  5.97307977387739  1.32830759125913
 6 -8.57360515811581  6.01047208090809  0.12387937333733
 6 -8.65143903520352  7.06181229982998  0.81454770457046
 7 -9.11189346194620  0.65878873997400 -0.56508054175418
 6 -9.86484274397440  1.86791674477448 -0.65149147324732
 6 -11.17402649924992  1.53740207930793 -1.14303602310231
 6 -11.22586499039904  0.14864022812281 -1.29812852685269
 6 -9.90530621132113 -0.30876285058506 -0.90768578467847
 6 -12.22523134683468  2.54712528352835 -1.46888366316632
 6 -12.39044359065907 -0.67549495959596 -1.76134694319432
 6 -12.29623711211121 -1.15497790899090 -3.28008312691269
 7 -7.18625809410941 -1.42510212381238 -0.18403308030803
 6 -8.21207144694469 -2.24870004210421 -0.66312126732673
 6 -7.83683982958296 -3.58226649414941 -0.56768404570457
 6 -6.54260814491449 -3.58334267126713 -0.08402013391339
 6 -6.17579017541754 -2.19589787108711  0.09796260046005
 6 -8.61401886928693 -4.84272711511151 -0.93489196759676
 6 -5.35617008730873 -4.32931681518152  0.23032590519052
 8 -5.23264210211021 -5.45363984738474  0.16158318901890
 6 -4.17962154155416 -3.26647243704370  0.54924478977898
 6 -3.59853048394839 -3.67642286358636  2.01134150705070
 8 -3.84065566616662 -3.13251998819882  3.03264594569457
 8 -2.89980117381738 -4.87073179557956  1.89544812571257
 6 -2.43717430533053 -5.28890311941194  3.15711064656466
 6  2.78932144384438 -0.81847964256426 -1.20826202660266
 6  4.17495958495850 -0.53160133643364 -0.51540168916892
 6  5.06807029142914  0.26241250665066 -1.09656942964296
 6  5.01559998299830  1.03413606290629 -2.40175434073407
 6  6.36095042784278  0.31871372157216 -0.24058054325433
 6  7.72834037193719 -0.16861720862086 -1.05181213171317
 6  8.87670954355436 -0.10054518491849 -0.29185099789979
 6  10.29978060256026 -0.57121419311931 -0.82687365786579
 6  10.14164086428643 -2.10671160726073 -1.22687615261526
 6  11.44247712461246 -0.37223100390039  0.09758062666267
 6  12.78025293299330 -0.50316436753675 -0.77119714261426
 6  14.01844131253125 -0.00570177297730  0.07434450195020
 6  15.40018614351435 -0.08869259835984 -0.49635787558756
 6  15.64504617351735 -1.59009664346435 -0.84581419911991
 6  16.39935404130413  0.56735109510951  0.47275178237824
 6  17.84444903430343  0.66405780418042 -0.16700251485149
 6  18.77263763326333  1.41836005300530  0.71194162716272
 6  20.31507017621762  1.38430876437644  0.25397016021602
 6  20.52118347214721  2.04125242244224 -1.20353134583458
 6  21.25831676247625  2.06139907620762  1.30710607400740
 1 -4.20960244474447  3.57898341974197  1.57318190509051
 1 -10.20406079877988  3.87545838083808 -0.58299369086909
 1 -10.37435072447245 -2.34574391519152 -1.35543219541954
 1 -2.78539499639964 -1.10867918181818  1.94698538973897
 1 -2.29068267346735  1.68556213881388  1.13016366676668
 1 -1.92261671917192  0.92317277017702  3.25120883438344
 1 -3.16504156415642  2.13795785328533  3.56137830323032
 1 -3.73852729542954  0.68909359335934  3.65866827962796
 1 -2.09731221612161 -1.74286424682468 -0.11809571877188
 1 -1.88094976747675 -0.03321607120712 -0.77068710831083
 1 -0.30806432383238  0.50157477137714  1.05319571867187
 1 -0.26857465946595 -1.22038655385539  1.46144009920992
 1 -5.83421219661966  6.91756040014001  0.71661737093709
 1 -5.66829381878188  6.27716107920792  2.28835513261326
 1 -4.38889284528453  5.91847301370137  1.06246942254225
 1 -9.24539659215922  5.78721486958696 -0.73221344954495
 1 -9.25897711361136  7.90046078497850  0.59427904970497
 1 -8.02536200200020  7.14844124362436  1.68377676317632
 1 -12.28587269236924  2.69290961696170 -2.76001900660066
 1 -13.17355702490249  1.87398128932893 -1.20245143664366
 1 -12.18551028212821  3.38345700040004 -0.65325656965697
 1 -12.61920669906991 -1.54514395949595 -1.12728768366837
 1 -13.36776549544954 -0.24474121092109 -1.71515704320432
 1 -13.13565991859186 -1.87891257745775 -3.46754663916392
 1 -12.27104066826683 -0.32494703230323 -3.95332882858286
 1 -11.37168344764476 -1.62590745784578 -3.32611123112311
 1 -8.89394899789979 -4.68073881678168 -2.00294355845584
 1 -8.11687105190519 -5.90946095029503 -0.87289690269027
 1 -9.48017790269027 -5.03708873017302 -0.36159798239824
 1 -3.40635133103310 -3.39120237093709 -0.30697596909691
 1 -1.76853502000200 -4.66094253395339  3.55271818711871
 1 -3.09422903150315 -5.61944356195620  3.97740057895790
 1 -1.70426853835384 -6.04873414661466  2.89145309820982
 1  2.78557786188619 -1.85784762066207 -1.38757272227223
 1  2.51822930053005 -0.26012173257326 -1.94374752695270
 1  4.41876278187819 -1.03407562276228  0.25884910091009
 1  3.90369933343334  0.88079679007901 -2.77115548524853
 1  5.05284069576958  2.26169642854285 -2.19771623982398
 1  5.81054836243624  0.92850395789579 -3.29075780678068
 1  6.63430549344934  1.32998699869987  0.04516715951595
 1  6.21452557195720 -0.33043108050805  0.60022973967397
 1  7.43474085878588 -1.17717695289529 -1.59325064866487
 1  7.69000143604360  0.58387159525953 -1.71206413001300
 1  9.07134918651865  0.86402428742874  0.10321795399540
 1  8.64047253595360 -0.77766327252725  0.55778364206421
 1  10.41904945634563 -0.15495295759576 -1.78749363886389
 1  9.30792577807781 -2.37451542804280 -1.99867579237924
 1  11.02942549824983 -2.33873065696570 -1.78382262616262
 1  10.06554944094409 -2.65993793579358 -0.17630707040704
 1  11.38966664756476  0.70974320452045  0.50081156865687
 1  11.45689874327433 -1.04048000930093  1.07568819041904
 1  12.85356867576758 -1.63927208840884 -1.25648331593159
 1  12.49468322082208  0.06547723872387 -1.63508686998700
 1  13.80462189888989  1.11090364636464  0.55338268126813
 1  13.94639739283928 -0.61574117881788  0.93435995249525
 1  15.41361464996500  0.43159264426443 -1.41228558655865
 1  15.53106054895490 -1.94353464556456  0.08042658875888
 1  14.96775982668267 -1.84424680028003 -1.68664607970797
 1  16.72100172957296 -1.58851437633763 -1.19352082158216
 1  15.95328052875288  1.54511234493449  0.80100664496450
 1  16.29643409060906 -0.04328350345034  1.52884564576458
 1  18.30572151085109 -0.36816336373637 -0.43602694309431
 1  17.56399346384639  0.94613193209321 -1.27823139893989
 1  18.39859065166517  2.36562071977198  0.84677268256826
 1  18.73039019931993  0.95631981298130  1.79131913221322
 1  20.52525743844384  0.34201034923492  0.14196126012601
 1  20.55811991859186  3.27127068896890 -1.08382197559756
 1  21.58650290239024  1.76189284208421 -1.55032639593959
 1  19.81981588598860  1.53189500030003 -1.92591956095610
 1  21.16770274547455  1.27842595169517  2.12689230643064
 1  22.33019472577258  2.09391062076208  0.88435340164016
 1  20.85138486838684  3.03482356565657  1.73448388888889

