%nproc=4
%Mem=3GB
# td=(NStates=1) iop(3/107=0140000000,3/108=0140000000) CAM-B3LYP/6-31G(d,p) 

TD

0 1
12 -7.12739743144314  0.62498088158816  0.25303167316732
 6 -4.87997681418142 -1.91811904250425  0.48771417381738
 6 -4.75757178777878  2.86171488938894  1.10507061226123
 6 -9.47063382788279  3.09064661766177 -0.37690016531653
 6 -9.53493959195920 -1.72327409310931 -0.79508631353135
 7 -5.03658068926893  0.49948603920392  0.69063688768877
 6 -4.37192944024402 -0.63107425062506  0.77858575327533
 6 -2.89691591219122 -0.36959535753575  1.15775144424442
 6 -3.01689491639164  1.08872757435744  1.71099737903790
 6 -4.32829306400640  1.57266191729173  1.13589798369837
 6 -2.91216739753975  1.16242906220622  3.36507182178218
 6 -1.90787651735174 -0.71759774897490  0.06953076337634
 6 -0.45539124832483 -0.38341158915892  0.46752013431343
 6  0.52839476267627 -0.65254187608761 -0.72709249934994
 8  0.15863608040804 -0.91852563026303 -1.83959135223522
 8  1.82145074347435 -0.56310624902490 -0.28979436703670
 7 -7.04904254765477  2.56370958085809  0.19332025612561
 6 -6.02287243104310  3.34628839623962  0.69486536263626
 6 -6.30001490989099  4.78297516111611  0.70220847954795
 6 -7.65318010331033  4.90542234743474  0.28696482288229
 6 -8.10972049954995  3.46168310711071 -0.02652465386539
 6 -5.40777281118112  5.80486996069607  1.10237039223922
 6 -8.54846485448545  6.03160342994299  0.24786539903990
 6 -8.35061347134713  7.22678182788279  0.90970502980298
 7 -9.11753079417942  0.66173316771677 -0.54202077597760
 6 -9.91739922622262  1.84590791509151 -0.55132794629463
 6 -11.22785673837384  1.54418386288629 -1.05151001070107
 6 -11.23190267746775  0.14482202800280 -1.25192522082208
 6 -9.99381698529853 -0.33600379377938 -0.87752995429543
 6 -12.21292222992299  2.56739198059806 -1.30143959665967
 6 -12.37640143304331 -0.76110223402340 -1.73140247084708
 6 -12.02349425832583 -1.19767996029603 -3.19328998019802
 7 -7.22222518491849 -1.36054088978898 -0.09142181728173
 6 -8.25557988428843 -2.19351789728973 -0.53444502440244
 6 -7.86941898169817 -3.58715926732673 -0.50897119691969
 6 -6.52129992049205 -3.48733171527153 -0.14938702040204
 6 -6.17863159485949 -2.22530048584859  0.15454729012901
 6 -8.68104044354435 -4.72251835023502 -0.81684506760676
 6 -5.35089055195520 -4.34804836823682  0.24669964406441
 8 -5.26556754905491 -5.54491134813481  0.30054600320032
 6 -4.14915941854185 -3.27127457485749  0.55028334993499
 6 -3.60538471527153 -3.64526246894689  1.92549851835183
 8 -3.86384916831683 -3.17122448034803  3.00258361656166
 8 -2.84659001180118 -4.72498111661166  1.71933097059706
 6 -2.34180313731373 -5.32689789568957  2.93746114651465
 6  2.79563588398840 -0.85886417531753 -1.25389890709071
 6  4.12227311251125 -0.66102137003700 -0.73651621442144
 6  5.07949344064406  0.17051357935794 -1.00125300230023
 6  5.00320404600460  1.12226990229023 -2.26044017901790
 6  6.36088236693669  0.17903851985199 -0.26943746814682
 6  7.66791824442444 -0.35418396639664 -1.14444477317732
 6  8.88554626622662 -0.22455427152715 -0.27926402880288
 6  10.21886734733473 -0.53162482568257 -1.00182590259026
 6  10.23003628022802 -2.02098997889789 -1.46399336533653
 6  11.40616528032803 -0.09450434153415 -0.06131409390939
 6  12.76336407190719 -0.45642567606761 -0.71868937403740
 6  13.93373464526453  0.04919920562056  0.23727013861386
 6  15.43806979797980 -0.03869295289529 -0.44012966546655
 6  15.68068433943394 -1.53295168346835 -0.83355518181818
 6  16.36980397309731  0.58958547584758  0.50484521922192
 6  17.80735832353236  0.58406213581358 -0.03846037303730
 6  18.78022844144414  1.24791286978698  0.83329658635864
 6  20.19895269966997  1.33702313481348  0.28359506550655
 6  20.43850669646965  2.16105341044104 -0.99224392029203
 6  21.05150021702170  1.83669536943694  1.40908484848485
 1 -3.97102746624662  3.65560881228123  1.34865096089609
 1 -9.93765588888889  4.03853612811281 -0.51908643484348
 1 -10.27840226432643 -2.45907144224422 -1.22124994439444
 1 -2.70217750495050 -0.99420962366237  2.06248273897390
 1 -2.20034350065007  1.68925098619862  1.35282893189319
 1 -1.91808489488949  0.44477358375838  3.72133247064706
 1 -2.81582869196920  2.01250047284728  3.81580960316032
 1 -3.70482328282828  0.41092624692469  3.61821350655065
 1 -2.16086120512051 -1.91249191999200 -0.02467047414741
 1 -2.35814218321832  0.10775839563956 -0.72506924152415
 1 -0.47254268296830  0.47895748304831  0.52372623562356
 1 -0.23079149944995 -1.05017578417842  1.43366682498250
 1 -5.50803498119812  6.84152166416642  0.48248808010801
 1 -5.31391286258626  6.02534541594159  2.16754876737674
 1 -4.23573841844184  5.57139140714071  1.05793652625263
 1 -9.30616087588759  5.95865924792479 -0.36618797149715
 1 -8.98282734643464  8.11246096709671  0.78638841454145
 1 -7.54561249334933  7.44779161556156  1.42338129842984
 1 -11.54643511651165  3.26476562366237 -2.10655648714872
 1 -13.08969626732673  2.22891163356336 -1.79402513071307
 1 -12.48972000470047  3.17682501660166 -0.41729216871687
 1 -12.41482344724472 -1.78297922072207 -1.24992849374937
 1 -13.37558985808581 -0.24758746924692 -1.73154890929093
 1 -12.87848304750475 -1.86966062816282 -3.81368232633263
 1 -11.72602300800080 -0.37522599389939 -3.66114509290929
 1 -11.13717855725572 -1.94455548274827 -3.45646392459246
 1 -8.84436905550555 -4.86028252905291 -1.82714877787779
 1 -8.43277766296630 -5.73197915121512 -0.39277923302330
 1 -9.69782396139614 -4.71111956035604 -0.22347461616162
 1 -3.33087060556056 -3.32579918551855 -0.08877661576158
 1 -1.73662705030503 -4.35918813221322  3.42368408600860
 1 -3.11457789508951 -5.54492401730173  3.59202023972397
 1 -1.62227274777478 -6.08976976177618  2.65801916301630
 1  2.70883893869387 -1.93866048884889 -1.81225267396740
 1  2.53422986428643 -0.30304221942194 -2.20910196769677
 1  4.55771625832583 -1.42010042384238  0.07490889108911
 1  4.08152346384638  1.25512105480548 -2.78327881358136
 1  5.40591752395239  2.09065948984898 -2.07545498389839
 1  5.60111968046805  0.73407459835984 -3.18057431433143
 1  6.53091127502750  1.18456843744374 -0.02346273237324
 1  6.41112898499850 -0.34285162186219  0.71314751025103
 1  7.46278840164016 -1.40022069506951 -1.33272803000300
 1  7.90723328182818  0.35992509550955 -2.06862768566857
 1  8.81457750205021  0.68990848834883  0.26081850995099
 1  8.96387950875088 -1.00227858055806  0.52312843624362
 1  10.20604523632363  0.14193034083408 -1.92993815181518
 1  9.07956756585659 -2.23661194469447 -1.66071445334533
 1  11.05136427702770 -2.55760916021602 -2.10327568566857
 1  10.31407360446045 -2.65866998169817 -0.56730412411241
 1  11.39035067666767  0.93768020142014  0.35136290709071
 1  11.19509710521052 -0.90525182278228  0.68750507060706
 1  12.90569852235224 -1.54371179047905 -0.98531080258026
 1  12.87995382528253  0.04286922292229 -1.74916925062506
 1  13.73202462276228  1.03459882318232  0.59928475717572
 1  13.97354566516652 -0.61971835073507  1.29383175717572
 1  15.33671407280728  0.57844124112411 -1.34731600040004
 1  15.68518231503150 -2.23877321852185 -0.08265640114011
 1  14.84934657905790 -1.93442796279628 -1.56181755525553
 1  16.76959523912391 -1.53342423942394 -1.43146966026603
 1  16.02161543504350  1.59647798149815  0.85059097539754
 1  16.24278835663566 -0.03758004280428  1.36205470017002
 1  18.09585632333233 -0.41515802980298 -0.28969916551655
 1  17.45257256685668  1.13248214231423 -1.01226697029703
 1  18.48548760566057  2.18414968296830  1.02856480328033
 1  18.91267723022302  0.84175901540154  1.73802704820482
 1  20.40761059335934  0.20492148974898  0.05936182838284
 1  20.06074289278928  3.10996177267727 -0.86211839653965
 1  21.49542334313431  2.13559470157016 -1.11721970317032
 1  19.87895629322932  1.80915120532053 -1.73824220862086
 1  20.96069992349235  1.36464210511051  2.40641431023102
 1  22.15137303010301  1.86785725642564  1.18157481108111
 1  20.61801187968797  3.03021913911391  1.52877001370137

