%nproc=4
%Mem=2GB
# td=(NStates=1) CAM-B3LYP/6-31G(d,p) 

TD

0 1
12 -7.16086665966597  0.61994074217422  0.13119080648065
 6 -4.90670528852885 -1.98282946134613  0.51642817551755
 6 -4.90113004190419  2.81029947724772  1.16896326122612
 6 -9.42441717721772  3.09839533503350 -0.43200606030603
 6 -9.57793810751075 -1.77239275027503 -0.81832826192619
 7 -5.18463188778878  0.52407222532253  0.81025144344434
 6 -4.46376608270827 -0.68297811981198  0.81287931113111
 6 -2.92975198059806 -0.46933635933593  1.09650000420042
 6 -3.09172261066107  1.12646531483148  1.57425815651565
 6 -4.47332432733273  1.49566031483148  1.16501353125313
 6 -2.76803188528853  1.41454374247425  3.12207361626163
 6 -1.92207566856686 -0.60057531893189  0.09667362566257
 6 -0.45604302690269 -0.46967131433143  0.46653078237824
 6  0.50949208640864 -0.69731324422442 -0.63727910841084
 8  0.26595783588359 -0.89282469006901 -1.72537886958696
 8  1.74500631113111 -0.43853124952495 -0.09322611151115
 7 -7.13825427332733  2.54235982578258  0.36296499199920
 6 -6.16222550155016  3.34202517831783  0.80142367596760
 6 -6.52457971107111  4.75269955935594  0.78089877707771
 6 -7.75495820282028  4.83343397489749  0.29717810911091
 6 -8.20349462106211  3.43114230953095 -0.00484793849385
 6 -5.58290624732473  5.90140260616062  1.13112787328733
 6 -8.67848564616462  5.99063009670967  0.16171315671567
 6 -8.57276116741674  7.30269638823882  0.77710396019602
 7 -9.07977024962496  0.62613547464746 -0.58780281398140
 6 -9.85791205090509  1.72799275237524 -0.74847117121712
 6 -11.24539363596360  1.45216355545555 -1.21669338883888
 6 -11.22562496639664  0.11119648374838 -1.27129584358436
 6 -9.95926160686069 -0.41075304960496 -0.80999601570157
 6 -12.39984880858086  2.47399797079708 -1.45969274407441
 6 -12.45367991429143 -0.80118752885289 -1.62708351685169
 6 -12.34227171557156 -1.28855126632663 -3.06105122372237
 7 -7.27856732503250 -1.39165877947795 -0.08513319031903
 6 -8.25429566936694 -2.29999517161716 -0.46948190339034
 6 -7.82896904250425 -3.64117238473847 -0.52649992729273
 6 -6.52634651875188 -3.58417275427543 -0.02633436533653
 6 -6.24828742514251 -2.22150043134313  0.14316712091209
 6 -8.61226869426943 -4.79241208360836 -0.83772225062506
 6 -5.30507497779778 -4.34964884838484  0.23853672627263
 8 -5.11400023792379 -5.55984046744674  0.25183221392139
 6 -4.16661024042404 -3.32009779957996  0.49759962526253
 6 -3.53040367126713 -3.67475269656966  1.87428780168017
 8 -3.70980258085809 -3.11004774097410  2.93204588568857
 8 -2.69580077377738 -4.69394411681168  1.70048862976298
 6 -2.15322591049105 -5.14574880398040  2.89632456795680
 6  2.82033454515452 -0.66459425402540 -1.13478467886789
 6  4.13211530053005 -0.40472864916492 -0.51112126112611
 6  5.11567505190519  0.45313157855786 -0.99940971367137
 6  4.94597302030203  1.23501615091509 -2.22105627092709
 6  6.48563289608961  0.47626947714771 -0.33442992819282
 6  7.74444198209821 -0.08131847874787 -1.09569652015202
 6  8.93076494909491 -0.08671380178018 -0.20802261506151
 6  10.27764838933893 -0.40785785748575 -0.94247521802180
 6  10.14594129432943 -1.91697263336334 -1.45989945494549
 6  11.42002487938794 -0.21169495029503 -0.05828495989599
 6  12.79734464216422 -0.54335838693869 -0.64058408130813
 6  14.07306677507751 -0.00745194799480  0.22731979947995
 6  15.34564068896890 -0.15673940304030 -0.57450569036904
 6  15.57327899679968 -1.63043067686769 -0.84768438613861
 6  16.46174027992799  0.51101546154615  0.33853836103610
 6  17.95672026142614  0.47215861426143 -0.17314312891289
 6  18.97963833333333  1.14570278727873  0.81209164216422
 6  20.46673534273427  1.17183751725173  0.31437620082008
 6  20.57678903270327  1.99302759996000 -0.88356934963496
 6  21.22131306210621  1.74167710401040  1.36600196359636
 1 -4.37339882438244  3.58985450685068  1.53111769866987
 1 -10.03649404210421  3.95929676467647 -0.62505789728973
 1 -10.31710499989999 -2.57089643044304 -0.96825347754775
 1 -2.58165462236224 -1.03249156305631  1.98871956315632
 1 -2.51475508070807  1.78061164376438  1.08921957235724
 1 -1.87214167166717  1.12228268116812  3.38337205070507
 1 -2.91237629762976  2.30667472497250  3.25947811321132
 1 -3.37686112881288  0.44362904690469  3.63270568336834
 1 -1.97694017891789 -1.60498045844584 -0.22945685488549
 1 -1.98574024652465  0.09484673507351 -0.67043708330833
 1 -0.26616013341334  0.51615622952295  1.04489488858886
 1 -0.35454325632563 -1.25443995919592  1.27981193639364
 1 -5.64656343174317  6.77486613071307  0.30965667486749
 1 -5.61567855725573  6.27953131623162  2.11465776287629
 1 -4.46305026102610  5.68314948134814  1.09921309690969
 1 -9.44159621212121  5.85198134623462 -0.51268149634963
 1 -9.47124834073407  7.94454519341934  0.35305492729273
 1 -7.81336080188019  7.47481388088809  1.65982436793679
 1 -11.92084618971897  3.46750707670767 -2.11936494119412
 1 -13.23871354055406  1.80640453165317 -1.71274246574657
 1 -12.68129986108611  2.97656631133113 -0.45561680568057
 1 -12.65209998839884 -1.63644308940894 -0.77781273617362
 1 -13.42878159705971 -0.17341407820782 -1.62359788728873
 1 -13.29014536713671 -1.80154484068407 -3.24325420992099
 1 -12.16940050425043 -0.32776731433143 -3.83984748044804
 1 -11.43738001730173 -1.78171303840384 -3.25589420942094
 1 -9.22924252725273 -4.65987673057306 -1.77819108320832
 1 -7.88543790859086 -5.80803080728073 -1.12330194319432
 1 -9.21943182808281 -4.94205922722272  0.05879405680568
 1 -3.41270196609661 -3.54010726142614 -0.28415368686869
 1 -1.48839700620062 -4.55388182788279  3.36448936423642
 1 -2.98014762336234 -5.53517513511351  3.62366520542054
 1 -1.63597170867087 -6.14203347654765  2.84980893379338
 1  2.74024332843284 -1.69144097999800 -1.40038400340034
 1  2.59381685928593 -0.09844556495650 -2.05455860806081
 1  4.27119802540254 -1.07004922012201  0.34758797479748
 1  3.93238220172017  1.22468117851785 -2.73451182088209
 1  5.34528994069407  2.16486674557456 -2.02650911911191
 1  5.81412872047205  0.86751785928593 -2.97181591259126
 1  6.69955201810181  1.63824782478248 -0.29590694789479
 1  6.62028614801480  0.09183114571457  0.67235695239524
 1  7.27533491819182 -1.15763499869987 -1.44250557415742
 1  7.93417585348535  0.72641584968497 -2.03056598019802
 1  8.99287133873387  0.95875376037604  0.36910454265427
 1  8.88417690639064 -0.75904141034103  0.60814867856786
 1  10.32243979537954  0.00531306900690 -1.96971186068607
 1  9.31639662516252 -2.15134311081108 -2.16212213701370
 1  11.11572412811281 -2.05569235313531 -1.90188443234323
 1  10.01621450745075 -2.53308525052505 -0.69871931163116
 1  11.50674835573557  0.73633586378638  0.33790527802780
 1  11.28814186758676 -0.74414037533753  0.74392501410141
 1  12.93246656555656 -1.49855801700170 -0.71907957555756
 1  13.04363811631163 -0.15151446044604 -1.63401676297630
 1  13.75327676437644  1.10202275827583  0.26588393139314
 1  14.19621237433743 -0.58047765246525  1.05414193069307
 1  15.44295758425842  0.32545203020302 -1.48472283028303
 1  15.44457190009001 -2.34922521462146 -0.03454490839084
 1  14.73735678637864 -2.11502387798780 -1.70220763586359
 1  16.64818444784479 -1.89775530043004 -1.16144761426143
 1  16.00504570527053  1.46320415411541  0.61992853715372
 1  16.21202564976497 -0.08820799589959  1.36945970717072
 1  18.41610254895490 -0.69884643204320 -0.06444978537854
 1  18.02750981548155  0.97944526342634 -1.10678425422542
 1  18.80622141474148  2.27272142984298  0.98500650595059
 1  18.98811597189719  0.61638581958196  1.78328832913291
 1  20.91712662536253  0.26150229842984  0.10574763876388
 1  20.27760186678668  3.03320688258826 -0.57391098449845
 1  21.46082033413341  2.09576622942294 -1.28790015331533
 1  19.86684058845885  1.71442325312531 -1.74546151515152
 1  21.05123109830983  1.46197430653065  2.30672028922892
 1  22.41358306460646  1.73350458015802  1.15492045834584
 1  20.90518024792479  2.93958404170417  1.47680812131213

