%nproc=4
%Mem=2GB
# td=(NStates=1) CAM-B3LYP/6-31G(d,p) 

TD

0 1
12 -7.25507608060806  0.60698944704470  0.04438212561256
 6 -4.85331994999500 -2.00129130753075  0.54254078677868
 6 -4.81870179907991  2.77993644094409  1.10179654455446
 6 -9.38777351285128  3.09148464396440 -0.50878373807381
 6 -9.48346866056606 -1.73603911491149 -0.81862829192919
 7 -5.17635105970597  0.39862968106811  0.80594101240124
 6 -4.36871657775778 -0.69732955495550  0.90457848104810
 6 -2.90868987438744 -0.41723114881488  1.31472182638264
 6 -3.06238967736774  1.12987565586559  1.63608433913391
 6 -4.44042103700370  1.46312706150615  1.10385741564156
 6 -3.06569165126513  1.35475776387639  3.09929133803380
 6 -1.85968942994299 -0.57822308370837  0.19201315961596
 6 -0.39591701430143 -0.54099844704470  0.66576070537054
 6  0.48305944314431 -0.60637415031503 -0.53985936643664
 8  0.18384962506251 -0.92034744234423 -1.64495082678268
 8  1.82199400990099 -0.46576397279728 -0.16080286918692
 7 -7.05253570147015  2.65888147794779  0.20737943344334
 6 -6.04417369636964  3.38282925872587  0.75153868746875
 6 -6.43609086218622  4.75098938833883  0.70455114231423
 6 -7.79877258425843  4.79810044154415  0.33746213751375
 6 -8.15657992959296  3.48828802410241  0.04198674497450
 6 -5.42713066976698  5.84443690959096  1.09137389788979
 6 -8.57635543314331  6.03795482918292  0.31466845224522
 6 -8.31947583888389  7.28254437303730  0.91371762156216
 7 -9.16240851345134  0.64039690079008 -0.53559759345935
 6 -9.95726198589859  1.81563151625163 -0.64395071917192
 6 -11.22425152175217  1.48687702680268 -1.05060678017802
 6 -11.21076348024802  0.08476384048405 -1.24483319731973
 6 -9.88727440814081 -0.40115208950895 -0.85013002910291
 6 -12.40191901560156  2.40308087908791 -1.23164993979398
 6 -12.40903544984498 -0.77153456355636 -1.80465127362736
 6 -12.23820130853085 -0.90168257945795 -3.38906402500250
 7 -7.19277874617462 -1.42001161476148 -0.30471514851485
 6 -8.29002924272427 -2.26222139423942 -0.54700965616562
 6 -7.85991213681368 -3.71918018551855 -0.53268054535454
 6 -6.53157704180418 -3.59889422642264 -0.03080481238124
 6 -6.19757235363536 -2.26888516981698  0.03171597579758
 6 -8.62457992539254 -4.91774461686169 -0.99646812521252
 6 -5.39260373067307 -4.37734161766177  0.26002887548755
 8 -5.17733657155716 -5.56614109750975  0.10772780348035
 6 -4.09827340674067 -3.38866465626563  0.61565143044304
 6 -3.56613724462446 -3.70494571587159  1.87598797169717
 8 -3.70101170177018 -3.09139587578758  2.85882856395640
 8 -2.73722491619162 -4.73314803720372  1.87509609050905
 6 -2.18140872877288 -5.15025925502550  3.12453738923892
 6  2.84549706140614 -0.76041383598360 -1.13147434783478
 6  4.14602669166917 -0.46699487578758 -0.58121827082708
 6  5.13013649804980  0.32429869526953 -1.19724949764976
 6  4.90259868286829  1.06733938323832 -2.31468563386339
 6  6.45441977477748  0.50728257845785 -0.43954043924392
 6  7.69968750665067 -0.20386073297330 -1.07956490699070
 6  8.95527740034003 -0.05880101050105 -0.16365817861786
 6  10.24238486298630 -0.42946001770177 -0.86659763026303
 6  10.08757545774577 -1.93915485158516 -1.32869633463346
 6  11.49290216711671 -0.19859364016402 -0.00413954535454
 6  12.82898780648065 -0.41624567566757 -0.66958698159816
 6  14.04080354875487 -0.03088429122912  0.27027409490949
 6  15.47172329722972 -0.14358808790879 -0.36013425322532
 6  15.64362603150315 -1.59489712351235 -0.77042666036604
 6  16.48652275817582  0.33072743274327  0.48041254845485
 6  17.78481307070707  0.51631302970297 -0.05407122172217
 6  18.86060643014302  1.26314453145315  0.81347178017802
 6  20.36807547674767  1.29969030253025  0.19293405660566
 6  20.32325367916792  2.03660195739574 -1.26335732843284
 6  21.18199913071307  1.94166710301030  1.15286064946495
 1 -4.09940142464246  3.65272079347935  1.34205879277928
 1 -10.18502889558956  3.80023085808581 -0.62854824632463
 1 -10.37342063146315 -2.55484482528253 -0.84385103730373
 1 -2.78457491439144 -0.88604691859186  2.24229492069207
 1 -2.41029463466347  1.71342492509251  1.15774642504251
 1 -1.99455391289129  1.10202065496550  3.56876058955896
 1 -3.56571163116312  2.38320237773777  3.28213037843784
 1 -3.80536397909791  0.72458714271427  3.79303171597160
 1 -1.86477896279628 -1.58376833723372 -0.24435834503450
 1 -2.05252692519252  0.01180843124312 -0.68736877647765
 1 -0.13281679907991  0.39183379727973  1.32419281838184
 1 -0.18074587658766 -1.39800431563156  1.41822577777778
 1 -5.81466024142414  6.80671931603160  0.64012972217222
 1 -5.32978996839684  6.06690005310531  2.13021931903190
 1 -4.60797475347535  5.72135330173017  0.85564874047405
 1 -9.41024307680768  6.01310745884588 -0.45914614281428
 1 -9.08647986388639  8.07669840874087  0.77124674647465
 1 -7.61223068886889  7.47818421792179  1.61013939943994
 1 -12.18033213831383  3.12638296429643 -2.04902790749075
 1 -13.39287895709571  1.81240513171317 -1.55075626712671
 1 -12.69810154125413  3.10779943464346 -0.37180842484248
 1 -12.35349012741274 -1.74999444454445 -1.53310826572657
 1 -13.38842756165617 -0.32741947874787 -1.42744827232723
 1 -13.08591494409441 -1.35372005820582 -4.02563244774477
 1 -12.41938550275028  0.20903636603660 -3.75131862756276
 1 -11.47300357965797 -1.53824869196920 -3.58134675467547
 1 -8.92749235223522 -4.67949869276928 -1.96799006310631
 1 -7.70169953475347 -5.75073507770777 -0.93642325532553
 1 -9.44857474237424 -5.20132515381538 -0.38680050265026
 1 -3.35384608050805 -3.24324757545755 -0.16930220172017
 1 -1.57798596509651 -4.24668110781078  3.55861877717772
 1 -3.07147675627563 -5.15255687328733  3.89249208810881
 1 -1.49420753225323 -6.07886715991599  3.08363231613161
 1  2.77638694279428 -1.78029986588659 -1.27743170817082
 1  2.40375785338534 -0.38248396879688 -2.11916506870687
 1  4.32261316691669 -0.92282449764976  0.31986520252025
 1  3.89444840834083  1.00294900530053 -2.67345571527153
 1  5.31070648234823  2.02132239113911 -2.07460392859286
 1  5.60682799039904  0.75883699119912 -3.14937366836684
 1  6.72765482838284  1.55823982398240 -0.28896625382538
 1  6.42663678307831  0.03864582718272  0.47092680938094
 1  7.51846923162316 -1.37197643284328 -1.22747407100710
 1  8.03701613751375  0.23567677577758 -2.06746967056706
 1  8.89249130073007  0.87983586858686  0.33590122232223
 1  8.55668415711571 -0.77796330253025  0.72559042274227
 1  10.31222877427743  0.01523406110611 -1.94388927842784
 1  9.20504549004901 -1.97155513201320 -1.92279820462046
 1  10.86200875657566 -2.45453223712371 -1.84863910781078
 1  9.95483836983698 -2.56204814681468 -0.36388582828283
 1  11.20677835873587  0.97085931613161  0.35004649214922
 1  11.39519257265727 -0.88934489578958  0.83392401400140
 1  12.95010832973297 -1.65362352355236 -1.04660232783278
 1  12.99742349484948  0.19528021902190 -1.64197755905591
 1  13.72202363906391  1.05181773777378  0.67727507050705
 1  13.99379213231323 -0.77249685438544  1.07993450995099
 1  15.43473676217622  0.44239372437244 -1.27731208920892
 1  15.55469291219122 -2.24411470357036  0.05937448354835
 1  15.02082513321332 -1.88587096269627 -1.45816323142314
 1  16.50285991539154 -1.89458498339834 -1.12538400790079
 1  16.31340654135413  1.29926776047605  1.07879442374237
 1  16.80916536373637 -0.23187236233623  1.39581234243424
 1  18.40614155285528 -0.45977252465247 -0.35706904730473
 1  17.63551061556156  0.74316163506351 -1.14289786558656
 1  18.39537032963296  2.31102526022602  0.91412941824182
 1  18.78686584688469  0.92681686268627  1.90669066936694
 1  20.57308222092209  0.09591573977398 -0.02208514451445
 1  20.01369547614761  2.99853341524152 -0.93020661406141
 1  21.33982823492349  2.03827047984799 -1.57133849714971
 1  19.55042894729473  1.54705651645165 -1.87593456245625
 1  21.11398737393739  1.37339544864486  2.15151476867687
 1  22.36492819911991  2.17150838053805  0.73104807110711
 1  20.66543627352736  2.96588667196720  1.42363280378038

