%nproc=4
%Mem=2GB
# td=(NStates=1) CAM-B3LYP/6-31G(d,p) 

TD

0 1
<<<<<<< HEAD
12 -7.07800837383738  0.54153290139014  0.11502919031903
 6 -4.84487910591059 -1.95449662806281  0.52802933563356
 6 -4.86794672357236  2.78739718701870  1.29567593249325
 6 -9.46566130163016  3.10717621312131 -0.39652251195120
 6 -9.54304461816182 -1.80559607060706 -0.75749217831783
 7 -5.14194761936194  0.41704152225223  0.69851026932693
 6 -4.32294200030003 -0.75791561356136  0.84424244744474
 6 -2.89619862526253 -0.37193661936194  1.17164751895190
 6 -3.01267470587059  1.14930759905991  1.67814854555456
 6 -4.39843683858386  1.53225397419742  1.12756978687869
 6 -2.90793587568757  1.32533482158216  3.19815122402240
 6 -1.85306876787679 -0.56858211961196  0.06386034433443
 6 -0.41803922652265 -0.33746809400940  0.49485361466147
 6  0.57724886208621 -0.60588410131013 -0.71757713821382
 8  0.26335757585759 -0.91078648624863 -1.83612994469447
 8  1.77519933043304 -0.33725112151215 -0.29599638853885
 7 -7.07621806970697  2.61563715351535  0.36868556405641
 6 -6.10528980798080  3.33741471727173  0.77653118671867
 6 -6.46746399949995  4.77624191359136  0.76917760496050
 6 -7.83896660366037  4.86907753925392  0.35913430473047
 6 -8.20637490909091  3.43761295659566  0.05470801710171
 6 -5.52618057475748  5.87238970487049  1.21931669216922
 6 -8.67891568916892  6.01001203490349  0.18536552195220
 6 -8.63093698499850  7.20601672027203  0.83107935773577
 7 -9.08930120272027  0.59898275937594 -0.48308234193419
 6 -9.88717497719772  1.73621357445745 -0.67670399449945
 6 -11.20569966656666  1.38833717281728 -1.22669438893889
 6 -11.22306471037104  0.08658402250225 -1.34758347234723
 6 -9.90984666536654 -0.40818279257926 -0.93049806590659
 6 -12.25325414911491  2.45730630163016 -1.44776155095510
 6 -12.31887643394339 -0.78497590769077 -1.85129593809381
 6 -12.27745523392339 -1.14941735293529 -3.36342146074607
 7 -7.21491095939594 -1.38799841344134 -0.21939661666167
 6 -8.21893213301330 -2.23439861196120 -0.49556451165117
 6 -7.81621776737674 -3.65141340884088 -0.52399967726773
 6 -6.45654953905391 -3.58714305130513 -0.10061179307931
 6 -6.17968056445645 -2.17456573787379  0.11373417761776
 6 -8.68862633003300 -4.81362420482048 -0.69511799019902
 6 -5.32079654995500 -4.34767865136514  0.23682655525553
 8 -5.09814865276528 -5.55411989538954  0.39795682638264
 6 -4.16178975837584 -3.36795258505851  0.62945281058106
 6 -3.53354398529853 -3.69361458275828  1.86830720362036
 8 -3.80555215581558 -3.13518025422542  2.94039672077208
 8 -2.61751294499450 -4.71456617901790  1.78020660156016
 6 -2.00837142504250 -5.27769199829983  2.95218015351535
 6  2.79682219391939 -0.46476427102710 -1.32527372777278
 6  4.11073316231623 -0.30933911021102 -0.68446859585959
 6  5.12052553695369  0.44547081248125 -1.06624639733973
 6  5.06230465346535  1.35904855415542 -2.36505067036704
 6  6.42407674047405  0.51493334353435 -0.25276176137614
 6  7.66497403530353 -0.01763211011101 -0.95564251475148
 6  8.84151602420242 -0.05074020442044 -0.06314812761276
 6  10.18819944444444 -0.53731080278028 -0.60265123562356
 6  10.03922062226223 -1.90071100720072 -1.20782424742474
 6  11.40805368226823 -0.26457023782378  0.18014888348835
 6  12.73242815051505 -0.53076712781278 -0.66818684158416
 6  13.93823329172917 -0.15847705050505  0.32826989448945
 6  15.39885601050105 -0.33560728982898 -0.39395763556356
 6  15.63827549644964 -1.72831046484648 -0.85282490019002
 6  16.44491859775978  0.23356771677168  0.51118562576258
 6  17.86035062446244  0.35252665106511 -0.22105792039204
 6  18.84737510701070  1.08619683668367  0.69306973997400
 6  20.28862753195319  1.32890322382238  0.08827359055906
 6  20.20645199899990  2.18476677387739 -1.16704769746975
 6  21.25859679047905  1.89031196749675  1.16097146054605
 1 -4.33114459895990  3.49425494689469  1.80588517541754
 1 -10.19976036873687  3.94904573957396 -0.45278066956696
 1 -10.23169645904590 -2.68132747354736 -1.05064171637164
 1 -2.85341179807981 -0.92697101100110  2.11300199139914
 1 -2.11874547974798  1.79536311891189  1.21513216361636
 1 -1.84921937943794  1.02960341324132  3.59562327582758
 1 -3.14573963396340  2.38362241974197  3.49054121952195
 1 -3.75329877257726  0.75625030903090  3.74326673947395
 1 -2.05414789968997 -1.56626658705871 -0.31838574777478
 1 -2.11868354085408  0.07316456685669 -0.89252929252925
 1 -0.43398691609161  0.76070068396840  0.78564896399640
 1 -0.06608441044104 -0.78525304050405  1.32070602580258
 1 -5.70672944834484  6.80435908000800  0.62106781598160
 1 -5.71521851125112  6.00562392549255  2.08514481158116
 1 -4.53203715971597  5.59806097249725  1.06368954455446
 1 -9.51337338983898  5.87955410351035 -0.57676790499050
 1 -9.35210642654265  7.88819955885589  0.45738536033603
 1 -7.94986445224522  7.46122252175218  1.72031041654165
 1 -12.15065917101710  3.15142546854685 -2.33119612431243
 1 -13.26364603380338  1.96198008920892 -1.45679687118712
 1 -12.21966369746975  3.22443109780978 -0.68311955595560
 1 -12.33780855925593 -1.76259570467047 -1.22396735163516
 1 -13.34629334823482 -0.36076281308131 -1.86013154065407
 1 -13.07905425802580 -1.78739342554255 -3.49784966946695
 1 -12.36648021222122 -0.22263680128013 -4.07338083378338
 1 -11.39402568186819 -1.71019588668867 -3.77499611961196
 1 -8.90777038003800 -4.85820656355636 -1.70176344044404
 1 -8.27455682048205 -5.88554855905590 -0.35134474747475
 1 -9.58214809970997 -4.82326734803480  0.06199437683768
 1 -3.25303599949995 -3.27554080478048 -0.01152642414241
 1 -1.53701186768677 -4.49935637533753  3.52731564686469
 1 -2.75526513511351 -5.72473409100910  3.47168000690069
 1 -1.16863497499750 -5.96435570877088  2.48534248714872
 1  2.65066437053705 -1.62145398129813 -1.57801176617662
 1  2.61270874847485 -0.05226094649465 -2.25848900110011
 1  4.04008491409141 -0.80775299049905  0.20390360636064
 1  4.07901686518652  1.19506821722172 -3.07343571327133
 1  5.07279269096910  2.55539579847985 -1.90794726292629
 1  5.80141744934493  1.08660976847685 -3.06736546754675
 1  6.44557662056206  1.53897789778978 -0.00045740294029
 1  6.18314243364336 -0.12599063646365  0.63746346304630
 1  7.42113949864987 -1.09298853405341 -1.38644996859686
 1  8.05104754065406  0.40854406250625 -1.96132905650565
 1  9.07771982358236  0.95793367836784  0.18669630183018
 1  8.62906139483948 -0.58705421162116  0.70214807850785
 1  10.42776032743274 -0.07712517481748 -1.74475936543654
 1  9.16091107660766 -2.05562353885389 -1.82852877767777
 1  10.82369492519252 -2.29837662156216 -1.82508675257526
 1  10.10895378137814 -2.49273121512151 -0.24002344204420
 1  11.44015169606961  0.65159738993899  0.60245173267327
 1  11.38152120552055 -0.84123008430843  1.18835945754576
 1  12.97061037993799 -1.52392055325533 -0.82915058265827
 1  12.75913966646664  0.26257694869487 -1.69533289458946
 1  13.92143358005801  0.99043159915992  0.57572491549155
 1  14.00356310941094 -0.93015261996200  1.24750126662666
 1  15.34014730323032  0.35034451945195 -1.23377773577358
 1  15.59524696759676 -2.30741103320332 -0.09076052995300
 1  14.71481453215322 -2.13428580418042 -1.28325574067407
 1  16.48650828022802 -1.88237376227623 -1.31411288078808
 1  16.20524572527253  1.20348818251825  1.03588013231323
 1  16.73660810801080 -0.47184635973597  1.26742950415042
 1  17.90743168186819 -0.75109165656566 -0.61578491889189
 1  17.78534559905991  0.70934825372537 -1.23721729752975
 1  18.33594438703870  1.85523968166817  1.05021302660266
 1  19.18783594389439  0.29646382738274  1.69955995629563
 1  20.69297421012101  0.34217036523652  0.04829189318932
 1  19.63491759835983  3.13059662156216 -1.09741333473347
 1  21.24091834393439  2.46304295709571 -1.57628899219922
 1  19.62049595399540  1.43976578737874 -1.83382035103510
 1  21.04534050925093  1.36208431753175  2.12709232643264
 1  22.26524823112311  1.74859608930893  0.96032099839984
 1  20.98321805170517  2.97535761906191  1.58660910141014
=======
12 -7.17159773277328  0.64466321442144 -0.05573788638864
 6 -4.80611522952295 -1.98166934533453  0.50367690039004
 6 -4.81535146404641  2.91371981928193  1.24898126302630
 6 -9.44625936143614  3.09005450095009 -0.38652151185119
 6 -9.55567588128813 -1.72937844884488 -0.77354378347835
 7 -5.06986041064106  0.55061487958796  0.75601601990199
 6 -4.43018272437244 -0.63135295729573  0.77801582478248
 6 -2.93927293269327 -0.33900332603260  1.19333968816882
 6 -3.10212365076508  1.09379204750475  1.74491522222222
 6 -4.35859285418542  1.58019876867687  1.15497252715272
 6 -2.97019210131013  1.28421070917092  3.34772618151815
 6 -1.88606206720672 -0.56776203760376 -0.00660670237024
 6 -0.45602302490249 -0.45890023722372  0.59598372767277
 6  0.48790992819282 -0.68429194209421 -0.52676805730573
 8  0.23416465656566 -1.07685309290929 -1.67326365806581
 8  1.85773758425843 -0.42280967736774 -0.14679146804680
 7 -7.09540998889889  2.57075266506651  0.27269596509651
 6 -6.08873815281528  3.32791376717672  0.72114564816482
 6 -6.41646889999000  4.67660194959496  0.79792047924793
 6 -7.76519922692269  4.84063469496950  0.36912530383038
 6 -8.20217448904891  3.41649084438444  0.04505705200520
 6 -5.43243119981998  5.84318678457846  1.04791955245525
 6 -8.51913971157116  5.98515954965497  0.08286527192719
 6 -8.44791868316832  7.20292641124112  0.69089533933393
 7 -9.11152342494249  0.64261712281228 -0.55519955365537
 6 -9.80277653735373  1.81599155225523 -0.66444276837684
 6 -11.17505660226023  1.42309064816482 -1.15825754525453
 6 -11.22364476837684  0.04644000810081 -1.20426914091409
 6 -9.92569825052505 -0.42248422272227 -0.80282529862986
 6 -12.22971179487949  2.42628319931993 -1.39553632843284
 6 -12.30319486578658 -0.70283769386939 -1.66827763626363
 6 -12.41052854125413 -1.16815922712271 -3.16863198179818
 7 -7.26703617191719 -1.35411502510251 -0.21171584858486
 6 -8.22105234503450 -2.25140031213121 -0.55225018021802
 6 -7.78567471307131 -3.63097136463646 -0.56103338063806
 6 -6.41527541164116 -3.51971630863086 -0.07715944784478
 6 -6.09549214561456 -2.18169645094509  0.06833963816382
 6 -8.57048451585158 -4.95399824222422 -0.83094157255726
 6 -5.30831530183018 -4.43597748124813  0.18033090569057
 8 -5.11370020792079 -5.61413589698970  0.12216924762476
 6 -4.18046162556256 -3.32863865366537  0.57520738603860
 6 -3.59820045094509 -3.62184740604060  1.94961533443344
 8 -3.76689829042904 -3.14373110931093  2.99632231333133
 8 -2.72034322802280 -4.72055677807781  1.75513409430943
 6 -2.06023661156116 -5.33067729682968  2.89551448694869
 6  2.76707921962196 -0.65848364296430 -1.18639984038404
 6  4.08903099209921 -0.40290846714671 -0.47561771077108
 6  4.99360284468447  0.43304957035704 -0.86565633833383
 6  5.01583000600060  1.38467111641164 -2.17505167046705
 6  6.41728606140614  0.46684853505351 -0.22484897009701
 6  7.61247878577858 -0.01072141904190 -0.95837278777878
 6  8.90163203580358  0.06394126372637 -0.19063087588759
 6  10.20397102160216 -0.45386245794579 -0.98236920742074
 6  10.14396109630963 -1.92431336743674 -1.32655612061206
 6  11.38565144204420 -0.12138591939194 -0.15815494689469
 6  12.78650355805581 -0.48327237833783 -0.72649267216722
 6  13.85356482488249 -0.25192639543954  0.13506057355736
 6  15.33555968086809 -0.30991472057206 -0.44583282308231
 6  15.82664433333333 -1.68625625942594 -0.90061967966797
 6  16.29766387228723  0.37621198119812  0.47988249544954
 6  17.72736732613261  0.62140353875388 -0.12227804240424
 6  18.79082945244524  1.32691090809081  0.84737517051705
 6  20.27647631683168  1.21305163866387  0.28770353355336
 6  20.39890124392439  1.85432372957296 -1.17154814751475
 6  21.18772970377038  1.92311524782478  1.27287265066507
 1 -4.18610009450945  3.79885540694069  1.60797538443844
 1 -10.26924731743174  3.93277411241124 -0.39359475097510
 1 -10.44762805220522 -2.36977631843184 -0.97196384858486
 1 -2.59735619251925 -0.88508682258226  1.96656734793479
 1 -2.28719232443244  1.66093967656766  1.30551120152015
 1 -1.95443990149015  1.09730018291829  3.61785549904990
 1 -3.08049310931093  2.47729178667867  3.49321148654865
 1 -3.58274171687169  0.46586127012701  3.62800521332133
 1 -2.16999948484848 -1.45717567796780 -0.51017492669267
 1 -1.98107978047805  0.10175742614261 -0.83321336093609
 1 -0.37125064246425  0.49184379827983  1.07464786388639
 1 -0.34095189718972 -1.35231974717472  1.29378333353335
 1 -5.57926670207021  6.76617526162616  0.29744545374537
 1 -5.80180717011701  6.11089445254525  2.14274057115712
 1 -4.29684364036404  5.39877104350435  1.06073924952495
 1 -9.19692174467447  5.99189533763376 -0.82256248444844
 1 -9.07474869076908  7.95428616751675  0.39651927372737
 1 -7.70713017881788  7.35439183868387  1.45897428292829
 1 -11.79802390749075  3.10846117211721 -2.26286929162916
 1 -13.17415708490849  1.87425131633163 -1.59306049754975
 1 -12.59479121022102  2.96463511821182 -0.45911715571557
 1 -12.40740551895190 -1.72430187528753 -1.14848980388039
 1 -13.32702142104210 -0.31408814561456 -1.41076660416042
 1 -13.31253760636064 -1.79351403760376 -3.34849473397340
 1 -12.55747931213121 -0.34478901650165 -3.78460195589559
 1 -11.56041232053205 -1.68177304440444 -3.47108572857286
 1 -8.82820242324232 -4.97089783268327 -1.77864112821282
 1 -7.95356472127213 -5.74162416661666 -0.54851446444644
 1 -9.44262414731473 -5.01719674097410 -0.17902972557256
 1 -3.18078877477748 -3.10883413411341 -0.17900317181718
 1 -1.68090625712571 -4.67359379907991  3.49616253155316
 1 -2.80891049964996 -5.62527414501450  3.55634847374738
 1 -1.51678979047905 -6.26745601880188  2.51656560946095
 1  2.75736504060406 -1.60649248514851 -1.62986695169517
 1  2.81537901550155 -0.03007872827283 -2.20326347854785
 1  4.13924483008301 -1.03558577377738  0.43428664466447
 1  4.01833079657966  1.55782449284929 -2.63131150085008
 1  5.26024143584358  2.35397565646565 -1.85553202140214
 1  5.54749205680568  0.77561866936694 -2.91635036603660
 1  6.65277734063406  1.49129312931293  0.12333497629763
 1  6.25813993339334 -0.22412044944494  0.67831754845485
 1  7.27380476517652 -0.99871910711071 -1.22763408700870
 1  7.77313974987499  0.40813402150215 -1.93325624922492
 1  9.10277232883288  1.05233311831183  0.24216184838484
 1  8.80125861456146 -0.50304581078108  0.78169603330333
 1  10.12132968436844 -0.09002646494649 -1.88516340584058
 1  9.18118310381038 -2.04151212771277 -1.81315724052405
 1  10.95999855555556 -2.14426121002100 -2.01858610251025
 1  10.36983986998700 -2.58972091409141 -0.42234167386739
 1  11.20829851075108  1.03149537973797  0.04703619111911
 1  11.30710376377638 -0.57276323762376  0.88606922852285
 1  12.72938625752575 -1.65696385758576 -1.08237590519052
 1  12.88228198069807  0.22264295529553 -1.78620198149815
 1  13.67609904660466  0.92037459345935  0.57609495249525
 1  13.98961171427143 -0.84369397409741  1.09707622412241
 1  15.58309159765976  0.35907539253925 -1.38067242524252
 1  15.86214365726573 -2.30993128522852  0.00549909600960
 1  15.10885393609361 -2.20939331493149 -1.53738115321532
 1  16.69712934233424 -1.75193071797180 -1.21016248574857
 1  15.80387558825882  1.25380321402140  0.93397994229423
 1  16.50323477067707 -0.49704887998800  1.25830859205921
 1  18.27284822352235 -0.52166871427143 -0.34717805820582
 1  17.62732979747975  1.03059037793779 -1.13782735853585
 1  18.57785857845785  2.31292545024502  0.99672767806781
 1  18.59882704300430  0.80928510951095  1.82229222952295
 1  20.57245215791579  0.09959610781078  0.40008707270727
 1  19.89650375697570  2.84077763966397 -1.04332792619262
 1  21.34518877097710  1.57430408320832 -1.53446480978098
 1  19.75775968036804  1.39231104190419 -1.84244121312131
 1  21.14614058925893  1.42063017211721  2.24897451465147
 1  22.30803250955096  1.95455668536854  0.94957992429243
 1  21.21018074797480  3.01923200650065  1.22750319081908
>>>>>>> 8e03b5b5abfc0030b3aa597dc0de36371bfbd096

