%nproc=4
%Mem=2GB
# td=(NStates=1) CAM-B3LYP/6-31G(d,p) 

TD

0 1
<<<<<<< HEAD
12 -7.08808938193819  0.57362611071107  0.06611429882988
 6 -4.80855547354736 -2.00272145054505  0.55648218091809
 6 -4.77699762866287  2.77342578987899  1.22443880878088
 6 -9.41668640414041  3.05973146864686 -0.43942680238024
 6 -9.38814912861286 -1.77599311031103 -0.96823325242524
 7 -5.16474989958996  0.41105092319232  0.75073549184918
 6 -4.34329403550355 -0.73340316231623  0.94271229442944
 6 -2.95681468686869 -0.51696112181218  1.32037239143914
 6 -3.04328776717672  1.08929159745975  1.77917864856486
 6 -4.34637163206321  1.49689043784378  1.22835986588659
 6 -2.88433351545155  1.34294658275828  3.26078748764877
 6 -1.92206566756676 -0.68797405880588  0.14799875817582
 6 -0.47023444604460 -0.30580492769277  0.49340346964696
 6  0.51671280848085 -0.70947446034603 -0.59384476497650
 8  0.25243648374838 -0.98668407600760 -1.75703203490349
 8  1.82353416391639 -0.44699209560956 -0.16788357725773
 7 -7.11527197509751  2.65699128892889  0.37217591309131
 6 -6.04085336433643  3.38979995579558  0.79675320892089
 6 -6.36952420552055  4.78857314671467  0.81099178637864
 6 -7.68696140314031  4.86332696419642  0.31236962826283
 6 -8.09017328892889  3.53156235153515  0.08813135943594
 6 -5.37883584028403  5.88463092899290  1.04784954545455
 6 -8.49667746534653  5.99337037073707  0.07729471487149
 6 -8.41754564586459  7.22850896949695  0.70916716651665
 7 -9.11518379097910  0.67874073517352 -0.50899493319332
 6 -9.85726198589859  1.81585153825383 -0.63931025512551
 6 -11.20254935153515  1.46781512061206 -1.02055377487749
 6 -11.13940634453445  0.15569093319332 -1.32397111111111
 6 -9.93025870657066 -0.42725469976998 -0.88529354545455
 6 -12.19524834853485  2.49712028302830 -1.40188696349635
 6 -12.28925347164716 -0.72202961306131 -1.73652446094609
 6 -12.23560104850485 -0.99687209840984 -3.27036215481548
 7 -7.15843531183118 -1.37178679227923 -0.13773845084508
 6 -8.20586082588259 -2.21476664876488 -0.53587854305431
 6 -7.83441958755876 -3.61494976247625 -0.57213449074907
 6 -6.54213809790979 -3.60157449444945 -0.18350008190819
 6 -6.11378397479748 -2.15128340964096  0.08906171037104
 6 -8.67280474787479 -4.78038088048805 -0.90999947834783
 6 -5.33421789208921 -4.44423830733073  0.20685355795580
 8 -5.14216305420542 -5.66776125952595  0.11146817751775
 6 -4.08487206660666 -3.41429721952195  0.69249911521152
 6 -3.65302593349335 -3.75673089438944  2.01589196209621
 8 -3.85940754135414 -3.10022675887589  3.03525620672067
 8 -2.74889608330833 -4.69896461886189  2.04222280318032
 6 -2.22657324522452 -5.18061229032903  3.19118405390539
 6  2.75142765446545 -0.71926972157216 -1.15821702210221
 6  4.14218630763076 -0.41279945624562 -0.55153530253025
 6  5.12115559996000  0.32928919431943 -1.11953172587259
 6  4.98707713071307  1.13458610791079 -2.40562472777278
 6  6.45807013981398  0.36901875207521 -0.38798528372837
 6  7.54588212611261 -0.33531387828783 -1.10392734323432
 6  8.91641351395140 -0.18525365576558 -0.31973378617862
 6  10.13753437793779 -0.60034710641064 -0.98033900440044
 6  10.10586728692869 -1.98668960506051 -1.67821128612861
 6  11.34448732563256 -0.29946372717272 -0.15571470287029
 6  12.74839974767477 -0.56466051715172 -0.78297832073207
 6  14.01184065246525 -0.11684288708871  0.05675274277428
 6  15.29857598249825 -0.24928865796580 -0.61840007980798
 6  15.68241991089109 -1.72317995179518 -0.98039765746575
 6  16.39901400730073  0.27594195419542  0.35327983518352
 6  17.69855444484448  0.58076947534753 -0.24333014761476
 6  18.69685005450545  1.25381359835984  0.89489992299230
 6  20.10418908810881  1.53417375087509  0.46619138233823
 6  20.33087444124412  2.44104240144014 -0.81919291199120
 6  20.98262919371937  2.08184112041204  1.59237460086009
 1 -3.95227671217122  3.40767628902890  1.39429401630163
 1 -10.17144753745375  3.84821565656566 -0.59829522102210
 1 -10.33827711711171 -2.24989433023302 -1.37769442164216
 1 -2.61379783668367 -1.11070938483848  2.24687537873787
 1 -2.30768437363736  1.62362594519452  1.26521717211721
 1 -1.76002045954595  1.20173062596260  3.65610932443244
 1 -3.07300236023602  2.47556161366137  3.32865503090309
 1 -3.59421286398640  0.72342702670267  4.18437084988499
 1 -1.97278976387639 -1.68851881228123 -0.18070197939794
 1 -2.34939661216122 -0.14820757035704 -0.77304734433443
 1 -0.27258077547755  0.84522913681368  0.66345674477448
 1 -0.22401020302030 -0.85694020922092  1.55649960516052
 1 -5.48414719011901  6.87686633073307  0.64850055925593
 1 -5.41259824922492  6.03422678577858  2.12436873397340
 1 -4.38840279627963  5.48340950735073  1.03378655425543
 1 -9.16630868336834  6.03603975207521 -0.78176840504050
 1 -8.84168538443844  8.00141087998800  0.35419504130413
 1 -7.70785025082508  7.32230863036304  1.66632501800180
 1 -11.91446555165517  3.17263758975898 -2.31637464216422
 1 -12.98846851605160  1.97433132433243 -1.72747393889389
 1 -12.39340107120712  3.33600225492549 -0.45634687868787
 1 -12.32025680408041 -1.65386483158316 -1.34461941684168
 1 -13.22692141104110 -0.11233797059706 -1.57115264276428
 1 -13.06923327592759 -1.66996168236824 -3.48389827432743
 1 -12.31975553975398 -0.06897143474347 -3.87676117181718
 1 -11.19371565086509 -1.51109597669767 -3.59459807980798
 1 -9.15670527352735 -4.73540428332833 -1.97608087218722
 1 -8.07486685148515 -5.68889889408941 -0.70633024602460
 1 -9.41203108800880 -4.75057007830783 -0.09909173177318
 1 -3.31209190509051 -3.57792104280428  0.14260898939894
 1 -1.75753391989199 -4.41461790149015  3.93048596389639
 1 -3.12505211381138 -5.69379099669967  3.87655049394939
 1 -1.43941205270527 -5.76786605980598  2.97442139503950
 1  2.95203450755076 -1.74905674157416 -1.41878584358436
 1  2.62592006960696 -0.19169488988899 -2.10514366656666
 1  4.33994490009001 -1.05625784098410  0.29847306330633
 1  3.97223618711871  1.09974868526853 -2.92097046674667
 1  5.33819923162316  2.19353961286129 -2.28319478767877
 1  5.63228053565356  0.74970607810781 -3.00320905190519
 1  6.66780884378438  1.39157315731573  0.05032767556756
 1  6.25006912631263 -0.14687272467247  0.70868058475848
 1  7.38230561526153 -1.48419765496550 -1.22010333393339
 1  7.84373680958096  0.21428463656366 -2.05817874147415
 1  8.97472952455245  0.85728361336134  0.02261989418942
 1  8.74478296699670 -0.87149265546555  0.58003586728673
 1  10.18348589999000  0.26947948564856 -1.79137402690269
 1  9.32185717121712 -2.07600557705771 -2.37639356415642
 1  11.03113566926693 -2.22459924382438 -2.27651189508951
 1  10.06179906590659 -2.73454539653965 -1.01613105280528
 1  11.26786446734673  0.91400363056306 -0.02196070857086
 1  11.27756080948095 -0.92151811311131  0.96251687328733
 1  12.97275059395940 -1.65553371457146 -0.67052472007201
 1  12.67626137863786 -0.12127143614361 -1.74159752105211
 1  13.72597403410341  0.99603215921592  0.21346868986899
 1  14.15153790689069 -0.63949355405541  0.88550506700670
 1  15.32188547704770  0.32464194919492 -1.45109946794680
 1  15.47806524942494 -2.41750204230423 -0.28625007890789
 1  14.85929898059806 -1.96206858245825 -1.96415383048305
 1  16.79626925632563 -1.68727425232523 -1.13836530603060
 1  16.14329953065306  1.30927876157616  0.79510605490549
 1  16.32745719291929 -0.26359553465347  1.27439020022002
 1  18.17930886958696 -0.28675522292229 -0.70392373277328
 1  17.62799986448645  1.35920323922392 -1.05820939673967
 1  18.33589438203821  2.22026618431843  1.34374237953795
 1  18.80464762506251  0.39092327332733  1.68416841714171
 1  20.40800571327133  0.50751689988999  0.12813987798780
 1  20.02144625122512  3.43849741164116 -0.45865945934593
 1  21.47734198629863  2.36761341414141 -1.08595995929593
 1  19.91573547794779  1.90117192799280 -1.75616258525853
 1  20.89707568276827  1.57262537163716  2.54771438863886
 1  22.21641334763476  2.06466769646965  1.47817278357836
 1  20.72447217711771  3.17433751705171  1.66796723722372
=======
12 -7.20842141514151  0.59147789588959  0.16190387778778
 6 -4.88094271227123 -1.97673885228523  0.47857439013901
 6 -4.84060398929893  2.92665111241124  1.06319268416842
 6 -9.40533526902690  3.13992948844884 -0.41260412011201
 6 -9.58843915761576 -1.74062957395740 -0.78253468256826
 7 -5.13181660626063  0.42069188728873  0.78603902220222
 6 -4.35410511661166 -0.68302812481248  0.77646566976698
 6 -2.97202620802080 -0.40375980168017  1.29061941614161
 6 -2.91623506190619  1.10837350565057  1.63996472717272
 6 -4.44905190009001  1.54061481028103  1.14167119701970
 6 -2.92949803190319  1.35815810391039  3.14663607250725
 6 -1.88149161016102 -0.62743800520052  0.17604156245625
 6 -0.45309273187319 -0.34337868506851  0.54919904920492
 6  0.43408454565457 -0.65715922882288 -0.57285266576658
 8  0.14548578867887 -0.89768517611761 -1.74667099879988
 8  1.76036784728473 -0.56131352775278 -0.18593538243824
 7 -7.14779522742274  2.64373996379638  0.24646334183418
 6 -6.14066334533453  3.36746772257226  0.77980151375138
 6 -6.45103235633563  4.80346463586359  0.76934762196220
 6 -7.85419812681268  4.92057268876888  0.48760715201520
 6 -8.13377764936494  3.49642883818382  0.15096764306431
 6 -5.55976393309331  5.86412887878788  1.25844060456046
 6 -8.53014081168117  6.16679771347135  0.16233321872187
 6 -8.52969686098610  7.30862698129813  0.74589083888389
 7 -9.11491376397640  0.63514637573757 -0.55437947164716
 6 -9.82254851455146  1.81825177827783 -0.76057238133813
 6 -11.16765586218622  1.44554289338934 -1.18987070657066
 6 -11.15861826572657  0.09491485558556 -1.37378609260926
 6 -9.91964764546455 -0.36546852115212 -0.94931994809481
 6 -12.29530835453545  2.39594016501650 -1.51786856165617
 6 -12.27375192149215 -0.79232664276428 -1.75643645214521
 6 -12.31401889028903 -0.96080849204920 -3.30755587418742
 7 -7.27762723102310 -1.46494610821082  0.05022034503450
 6 -8.30021026082608 -2.21950712281228 -0.39033398859886
 6 -7.85668181378138 -3.64697296479648 -0.45403268056806
 6 -6.46768065216522 -3.61281561856186  0.00541880998100
 6 -6.20698329472947 -2.21770005130513  0.25515832003200
 6 -8.61321878927893 -4.84067691009101 -0.99297777617762
 6 -5.26418088838884 -4.36765064856486  0.29011188378838
 8 -5.15065390329033 -5.53817830123012  0.25641267196720
 6 -4.17851143054305 -3.31326711651165  0.47430729602960
 6 -3.47499813071307 -3.68436365766577  1.80829120202020
 8 -3.68615021562156 -3.18136487268727  2.93707638873887
 8 -2.61714290799080 -4.68532325472547  1.75186376727673
 6 -2.16106669456946 -5.34164839393939  2.86732166766677
 6  2.73476598829883 -0.72652044664466 -1.19206040644064
 6  4.12785487448745 -0.52813098939894 -0.61757190619062
 6  5.18919240364036  0.24636090149015 -1.08600837353735
 6  5.07960638363836  1.01171382068207 -2.40430459575958
 6  6.41898623142314  0.39715156535654 -0.26399288448845
 6  7.75024256215622 -0.17700804770477 -0.92773972447245
 6  8.98358023062306 -0.13609874027403 -0.06663847664766
 6  10.26339696419642 -0.53011008270827 -0.81640261076108
 6  10.19526622682268 -1.99080001610161 -1.38160162516252
 6  11.46990986788679 -0.26935071587159  0.06024689328933
 6  12.82807771547155 -0.50124417551755 -0.71444146704670
 6  13.98365783418342 -0.17147835063506  0.16443351085109
 6  15.33160928582858 -0.22810653975398 -0.46941518131813
 6  15.71084275317532 -1.74788242204220 -0.68531814951495
 6  16.37304141004100  0.47030139013901  0.39972447964796
 6  17.69606419581958  0.61778317671767 -0.12572838743874
 6  18.77556792629263  1.33663188018802  0.62570300330033
 6  20.21563023222322  1.39126946044604  0.15870063326333
 6  20.35122647644765  2.20108840604060 -1.01063205590559
 6  21.19793072387239  1.89827276357636  1.27735309870987
 1 -4.04648613311331  3.49976549794979  1.46958154505450
 1 -10.33360375307531  3.74520535553555 -0.41841723322332
 1 -10.38110139953995 -2.42903224402440 -0.92726937913791
 1 -2.59795625252525 -1.13836215011501  2.26998768996900
 1 -2.34820842604260  1.86249983258326  0.99754040444044
 1 -1.79444390189019  1.29883033593359  3.41492520602060
 1 -3.13150821082108  2.38105216271627  3.44538670407041
 1 -3.53044648734874  0.76815149914992  3.64625703850385
 1 -2.11457394229423 -1.73292325272527 -0.05017892709271
 1 -2.19028070057006 -0.10171292089209 -0.80501054065407
 1 -0.28674219161916  0.67127174107411  0.69656005510551
 1 -0.14236203820382 -0.88288280348035  1.48090204540454
 1 -5.71364013941394  6.62326097019702  0.44407011621162
 1 -5.98352534193419  6.17306066916692  2.45274157125713
 1 -4.49356331233123  5.48961012741274  1.63506668226823
 1 -9.41246329882988  6.03921006910691 -0.42063229142914
 1 -9.22440365626563  8.03438417731773  0.30513013481348
 1 -7.83996346214621  7.65796219571957  1.59759814531453
 1 -12.05408951405141  2.89953027902790 -2.44015702040204
 1 -13.36081575077508  1.62241613281328 -1.72316350785079
 1 -12.65924765586559  3.09757841254125 -0.75798704270427
 1 -12.19351412981298 -1.85630507560756 -1.36462141704170
 1 -13.23900261916192 -0.30789752655266 -1.33266879437944
 1 -13.18633498609861 -1.48980366656666 -3.68002788728873
 1 -12.23425698989899 -0.09362389999000 -3.77601109680968
 1 -11.58183446274628 -1.70782564966497 -3.58321694169417
 1 -8.84859446244625 -4.83151389428943 -2.03404666876688
 1 -8.00870023482348 -5.79985999019902 -0.69742935593559
 1 -9.53518340324032 -5.17397241854185 -0.46044786738674
 1 -3.39732042794279 -3.37793104380438 -0.32489776127613
 1 -1.39455762226223 -4.50484692439244  3.36009892519252
 1 -3.06203581218122 -5.61913353095310  3.35069790869087
 1 -1.50531864336434 -6.24552382558256  2.67792174507451
 1  2.69799910401040 -1.83264510041004 -1.48970293529353
 1  2.49258673627363  0.11806608620862 -2.02780593279328
 1  4.32239314491449 -1.05801801700170  0.38814203020302
 1  4.15059402290229  0.88798750915091 -3.00562893259326
 1  5.18518393009301  2.02865312421242 -2.11262773097310
 1  5.72976028362836  0.62611371887189 -3.09017774877488
 1  6.63229529242924  1.49244324432443 -0.26434379157916
 1  6.38318243764377 -0.16997503490349  0.70180989768977
 1  7.60680806550655 -1.09555879107911 -1.38027935153515
 1  7.75753818971897  0.53288649674967 -1.79312223582358
 1  9.17360941254125  0.84862274727473  0.42596022822282
 1  8.93113160186019 -0.87788329452945  0.82118998269827
 1  10.09755730713071  0.03052559025903 -1.77034192369237
 1  9.48973395889589 -2.17935591209121 -1.83813973877388
 1  10.99236179187919 -2.33914069796980 -2.20766501040104
 1  10.25489837583758 -2.70366230823082 -0.60578001770177
 1  11.41470915181518  0.73201543174317  0.50240172767277
 1  11.46112916631663 -0.98444440574057  0.87412803440344
 1  12.74127744664466 -1.50076823802380 -1.09863753135313
 1  12.87946169866987  0.04660535153515 -1.58930229152915
 1  13.96843828052805  0.78226078207821  0.57723506650665
 1  13.99088184128413 -0.78930853555356  0.99674619111911
 1  15.33840712921292  0.36621610661066 -1.57107146514651
 1  15.56745418831883 -2.14832512461246  0.24637318341834
 1  15.22010506120612 -2.42589496509651 -1.47909532463246
 1  16.81724135353535 -1.97352287718772 -1.03914538403840
 1  15.86493169386939  1.44632246594659  0.74452099639964
 1  16.51656610381038  0.13696452135214  1.39152191339134
 1  18.13822476117612 -0.61837838523852 -0.39248258865887
 1  17.67316438093810  1.28712603150315 -1.06802037783778
 1  18.25084587718772  2.40710486818682  0.56835484078408
 1  18.65089224952495  0.84601878287829  1.69234923522352
 1  20.52650756345635  0.35518166636664 -0.09263219921992
 1  20.21259536613661  3.37757131903190 -1.29071266466647
 1  21.36925117721772  2.14128078087809 -1.36003736703670
 1  19.75097900230023  1.73475528632863 -1.93522049104910
 1  21.33739971517152  1.34101221032103  2.23414303150315
 1  22.21154286058606  1.99767099679968  1.04417938423842
 1  20.97959768966897  2.94318440174017  1.47750819131913
>>>>>>> 8e03b5b5abfc0030b3aa597dc0de36371bfbd096

