%nproc=4
%Mem=3GB
# td=(NStates=1) iop(3/107=0140000000,3/108=0140000000) CAM-B3LYP/6-31G(d,p) 

TD

0 1
12 -7.03412810451045  0.63725210871087 -0.05719934993499
 6 -4.81482029852985 -1.94615184578458  0.47475287768777
 6 -4.81728775937594  2.85880459835984  1.17116722192219
 6 -9.34306107060706  3.09196674967497 -0.36716919221922
 6 -9.53325942394240 -1.80464222992299 -0.86611341624162
 7 -5.16006303750375  0.42410850145014  0.74491231523152
 6 -4.36066831413141 -0.68453959715972  0.82500039473947
 6 -2.89720594119412 -0.32271066906691  1.13218888798880
 6 -3.03891711861186  1.13447214881488  1.76947322662266
 6 -4.45188542324232  1.51002565366537  1.12826722062206
 6 -3.05781196199620  1.23844666396640  3.25948126272627
 6 -1.83132886258626 -0.42549853905391  0.07426123642364
 6 -0.45648135733573 -0.37695094309431  0.56905028732873
 6  0.53309523272327 -0.62257887978798 -0.58986877697770
 8  0.17743796059606 -0.97154093179318 -1.70814820792079
 8  1.88526712511251 -0.36847678607861 -0.24677006460646
 7 -7.08853649704970  2.65231844174417  0.30175109920992
 6 -6.00864100790079  3.45080884828483  0.80820669676968
 6 -6.47939284768477  4.86204306790679  0.97260551925193
 6 -7.72997778307831  4.74639644484448  0.42116824322432
 6 -8.08800832833283  3.42117905670567  0.08631663026303
 6 -5.46984901880188  5.92713218691869  1.29583973917392
 6 -8.55248525652565  5.94215448504850  0.13295390789079
 6 -8.37984639463946  7.21440058975898  0.56466052535254
 7 -9.19874891599160  0.60276727112711 -0.52843941784178
 6 -9.86523400970097  1.77708103240324 -0.63973678717872
 6 -11.19250320302030  1.43902334683468 -1.05994085378538
 6 -11.29730921812181  0.04579212501250 -1.20411043934393
 6 -9.99600720432043 -0.44097429082908 -0.89629183048305
 6 -12.37577851555156  2.38454369576958 -1.38481793449345
 6 -12.49614340724072 -0.75938206200620 -1.65627495809581
 6 -12.43026493539354 -1.14655484778478 -3.11173182438244
 7 -7.17074003640364 -1.47637247294729 -0.15529820492049
 6 -8.23201752805281 -2.23678222372237 -0.56784836473647
 6 -7.82528456825683 -3.58393894529453 -0.58372867266727
 6 -6.52487027752775 -3.55533851595160 -0.16268835053505
 6 -6.12370610231023 -2.20042799859986  0.05068690409041
 6 -8.64695703520352 -4.80488658705871 -0.88827221032103
 6 -5.30386584948495 -4.28352191559156  0.11975694979498
 8 -5.02347333963396 -5.51494835183518  0.08095404400440
 6 -4.13107761036104 -3.30678812621262  0.53468178977898
 6 -3.57811198799880 -3.63586152885288  1.91034700320032
 8 -3.82194497789779 -3.05077243514351  2.91995535373537
 8 -2.74638999179918 -4.68355697419742  1.76619565706571
 6 -2.12611156815682 -5.23359856575658  2.99197659805981
 6  2.89987630803080 -0.68834712361236 -1.17714123132313
 6  4.25587647284728 -0.31120638853885 -0.49869243204320
 6  5.23736922822282  0.35483201120112 -1.03073595059506
 6  5.18559228482848  1.25735341064106 -2.16063019801980
 6  6.41269754845485  0.41233184918492 -0.14053457785779
 6  7.71429288188819 -0.05598414641464 -0.94795512421242
 6  8.99188690029003 -0.08710052615262 -0.13617972037204
 6  10.19371483208321 -0.57715937913791 -0.90431615161516
 6  10.04512778937894 -2.03591147104710 -1.34298126412641
 6  11.43921858565857 -0.40419531063106  0.00082211971197
 6  12.71402913841384 -0.57336737023702 -0.76802430753075
 6  13.94229550135013 -0.19825553985399  0.25466187778778
 6  15.34660065106511 -0.40831991559156 -0.49650530303030
 6  15.68064433543354 -1.76044443274327 -0.89745157145715
 6  16.27619461216122  0.29868638593859  0.42428716341634
 6  17.76967455515551  0.41272500210021 -0.13712023902390
 6  18.71356177477747  1.28368644714471  0.76064932163216
 6  20.19506231063106  1.33938337083708  0.15164187018702
 6  20.27564040984099  2.26483378847885 -1.12024672057206
 6  21.11682674967497  1.84716641654165  1.38162210221022
 1 -3.97033739723972  3.46104935633563  1.59392548834883
 1 -10.12116423972397  3.78062033653365 -0.61514604080408
 1 -10.15294971907191 -2.78726426152615 -0.93572139153915
 1 -2.59260654785479 -0.97849805250525  2.17838432913291
 1 -2.09324279057906  1.56402846394639  1.39758340734073
 1 -2.32654574097410  1.08224733113311  3.70374071147115
 1 -3.06453356245625  2.33066228902890  3.52334035623562
 1 -3.86990979147915  0.79344449874988  3.78469015421542
 1 -2.08606372537254 -1.35573624442444 -0.74401240834083
 1 -2.15595196419642  0.40418803860386 -0.65204193879388
 1 -0.35947137583758  0.68100768806881  0.95961982498250
 1 -0.24850327062706 -1.06606737333733  1.35058851715172
 1 -5.42890706840684  6.60187769976998  0.39131896319632
 1 -5.76779825112511  6.68659154055405  2.29995200770077
 1 -4.49562440704070  5.42053632163216  1.63006373897390
 1 -9.44052431223122  5.78956233823382 -0.58559991269127
 1 -9.32319138283828  7.93890361136114  0.18096787248725
 1 -7.48667659975998  7.78322515891589  1.04944390469047
 1 -12.25041551455145  3.07001614871487 -2.21965779727973
 1 -13.20053735143514  1.64636337873787 -1.59492522072207
 1 -12.61365239793979  3.05533286738674 -0.59676011551155
 1 -12.52248421332133 -1.70447136993699 -1.07100060096010
 1 -13.25958825792579 -0.35134784528453 -1.55849160356036
 1 -13.13037823702370 -1.66394005610561 -3.56916787488749
 1 -12.26133653935393 -0.30310878217822 -3.74537351575158
 1 -11.54127896729673 -1.65972699989999 -3.37830610881088
 1 -9.16283090169017 -4.89489599039904 -1.76933299629963
 1 -8.17298168336834 -5.54777073037304 -0.69670962606261
 1 -9.52955713471347 -4.97525597399740 -0.17925019371937
 1 -3.35964348284829 -3.68512511811181 -0.26505424352435
 1 -1.70698408600860 -4.41756396979698  3.51451316891689
 1 -2.96632306960696 -5.52619214411441  3.58516955465547
 1 -1.56520704120412 -6.08357914271427  2.78663202430243
 1  2.88268632343234 -1.67993461626163 -1.25603705240524
 1  2.67576401770177 -0.01052296749675 -1.88213927142714
 1  4.30521100780078 -0.85973438723872  0.44999639983998
 1  4.33320863236324  1.16331187388739 -2.81553203890389
 1  5.22155908810881  2.16657708160816 -1.80419785818582
 1  6.05546511501150  1.26256744764476 -2.99771602850285
 1  6.56934511841184  1.48061804240424  0.14322393629363
 1  6.50742861496150  0.07801046434644  0.82787898339834
 1  7.44916703950395 -1.00455112811281 -1.48002275947595
 1  7.98567112561256  0.80837994099410 -1.85288611151115
 1  9.16242228652865  1.06177567506751  0.15296772487249
 1  8.74985810661066 -0.55879423212321  0.88417454085409
 1  10.21568620042004  0.07729387718772 -1.80822598059806
 1  9.10405001410141 -2.42771105460546 -1.74613299519952
 1  10.79394853545354 -2.17653105240524 -2.06766212431243
 1  10.29982217931793 -2.68341245594559 -0.36944433813381
 1  11.55686732833283  0.67048348174817  0.50873864466447
 1  11.53009060456046 -1.10922221982198  0.82467878797880
 1  12.86203415591559 -1.65288270757076 -1.11678394989499
 1  12.72842867276728  0.23681861786179 -1.61280561426143
 1  13.73000442074207  0.95316067936794  0.41114594329433
 1  14.02001031163116 -0.82225860476048  1.17304967896790
 1  15.20914131553155  0.15754915191519 -1.49653092189219
 1  15.69445324212421 -2.58521786298630  0.07867973247325
 1  15.08553019741974 -2.14066858685869 -1.72039341284128
 1  16.57386566616662 -1.55216611361136 -1.42713922722272
 1  16.05393866736674  1.36671500520052  0.76968288458846
 1  16.25994007180718 -0.24140042484248  1.27039553425343
 1  18.29562630033004 -0.75060157415742 -0.31865206080608
 1  17.49766707630763  0.91088998309831 -1.23152889648965
 1  18.17902695959596  2.29528079607961  0.94337628442844
 1  18.69488545104511  0.70115495499550  1.72506575207521
 1  20.55586541884189  0.18386938453845  0.03719961216122
 1  19.99220603910391  3.20509128562856 -1.04204638933893
 1  21.25992979377938  2.38020916301630 -1.34661264246425
 1  19.74124252185219  1.78712900310031 -2.00490887528753
 1  21.28527238073807  1.03879952085208  2.15324899369937
 1  21.92932082488249  2.11159162986299  0.68326498009801
 1  20.63310338883889  2.64263038023802  1.86529366606661

