%nproc=4
%Mem=3GB
# td=(NStates=1) iop(3/107=0140000000,3/108=0140000000) CAM-B3LYP/6-31G(d,p) 

TD

0 1
12 -7.09372406410641  0.67651603510351  0.08107447744774
 6 -4.78846766326633 -1.93323055365537  0.51927733013301
 6 -4.84126015661566  2.90863958185819  1.27274737993799
 6 -9.34870163466347  3.16065361836184 -0.33801627692769
 6 -9.52686878487849 -1.77976974267427 -0.95549235413541
 7 -5.09812684388439  0.44134022462246  0.71236906090609
 6 -4.39926217351735 -0.61668281148115  0.87932582728273
 6 -2.91300752135214 -0.34100249824982  1.29695536463646
 6 -3.04818804570457  1.14186288788879  1.68464474377438
 6 -4.39971020572057  1.58659331043104  1.21130552445245
 6 -2.97682386318632  1.21650446974697  3.24739005360536
 6 -1.89628535823582 -0.53333932313231  0.18354216451645
 6 -0.44594030323032 -0.39863311131113  0.45119850215021
 6  0.45119704290429 -0.61995861776178 -0.65743553365337
 8  0.12471268806881 -0.99044282198220 -1.77833522662266
 8  1.68990758915892 -0.42355229362936 -0.26089147674767
 7 -7.09588723212321  2.74415762566257  0.28488941304130
 6 -6.12663280708071  3.45368913631363  0.89377525362536
 6 -6.48923383178318  4.90155701930193  0.99612787148715
 6 -7.75854063936394  4.99656146134613  0.43273940034003
 6 -8.16815634313431  3.61296823562356  0.00866886548655
 6 -5.52903493739374  5.93636311001100  1.30593074827483
 6 -8.60362037003700  6.07777804740474  0.12017262976298
 6 -8.45275368536854  7.26980613031303  0.71521558085809
 7 -9.08108714981498  0.67116411081108 -0.58151472537254
 6 -9.77210469676968  1.83907723202320 -0.68139095259526
 6 -11.11589554225423  1.42000144464446 -1.14502936263626
 6 -11.18176766396640  0.06361390719072 -1.17451748004800
 6 -9.87158476207621 -0.42888308170817 -0.91832403370337
 6 -12.19648058575858  2.37093233463346 -1.44593404610461
 6 -12.26126991989199 -0.75266138993899 -1.64356368696870
 6 -12.06675858475848 -1.28105829812981 -3.12375302650265
 7 -7.21557451985198 -1.47812264796480 -0.07603027812781
 6 -8.12123644994499 -2.28594714021402 -0.56441802170217
 6 -7.71713375317532 -3.61253180458046 -0.59781008080808
 6 -6.44838262876288 -3.53804678677868 -0.24759684138414
 6 -6.15303903560356 -2.26591454725473  0.15450728612861
 6 -8.48089042854286 -4.88848494689469 -1.08344172727273
 6 -5.21309677257726 -4.28829239263926  0.13775874997500
 8 -4.99326031833183 -5.51066792379238  0.17996394499450
 6 -4.08989349194920 -3.23723117051705  0.58626694829483
 6 -3.52159633643364 -3.67871581428143  1.91692766126613
 8 -3.62573535693569 -3.13699105700570  3.02505586378638
 8 -2.68708406120612 -4.75364398289829  1.74278331583158
 6 -2.09339829682968 -5.10376558245825  3.08143554395440
 6  2.69825614601460 -0.76444473337334 -1.28237175437544
 6  4.09633051825183 -0.62707797569757 -0.72593515631563
 6  5.01688718001800  0.31940846884688 -1.06001887888789
 6  4.93279700530053  1.20552822812281 -2.34213834883488
 6  6.35772205090509  0.34743535953595 -0.46916744114411
 6  7.49697114971497 -0.24694324232423 -1.10443077177718
 6  8.88929664126413 -0.16364818091809 -0.25289139153915
 6  10.08041350195020 -0.68006967016702 -0.93765948594859
 6  9.97079035563556 -2.16012389228923 -1.38310527652765
 6  11.34730939473947 -0.50415530663066 -0.02150011251125
 6  12.72037977347735 -0.53735376887689 -0.73934143924392
 6  13.92277354915491 -0.31200691499150  0.16867327892789
 6  15.27225321632163 -0.20370945454545 -0.50415606810681
 6  15.60302657365737 -1.73891227952795 -0.89944177047705
 6  16.33966095879588  0.35182169946995  0.51687642234223
 6  17.87841542924292  0.43768749834983 -0.06484301130113
 6  18.72381279987999  1.32291036953695  0.86584984168417
 6  20.20269307370737  1.37427686018602  0.34578128412841
 6  20.27257010281028  2.19079638473847 -0.95563025892589
 6  21.04552961996200  2.01973367326733  1.38161210121012
 1 -4.05771613511351  3.50686393779378  1.76382247804780
 1 -10.18581070437044  3.96854912941294 -0.58960348654866
 1 -10.19121354545454 -2.58005354045405 -1.36784460386039
 1 -2.72559984718472 -0.96977718041804  2.20247673837384
 1 -2.29327279357936  1.62443450455046  1.27080072907291
 1 -2.04328741514151  1.04431353775378  3.65585592299230
 1 -3.33390049914992  2.36450567336734  3.62430045224522
 1 -3.47919071957196  0.46076123042304  3.76961864706471
 1 -2.04953007200720 -1.64135480628063 -0.08089609670967
 1 -2.11317768676868  0.17146476627663 -0.60163689828983
 1  0.06576114741474  0.57583717101710  0.85060892389239
 1 -0.27609602990299 -1.13156392299230  1.34422788108811
 1 -5.76500067776778  6.87539505150515  0.87793762506251
 1 -5.51040251155116  6.33830671207121  2.33094510701070
 1 -4.45541038563856  5.78212248024802  1.16256698929893
 1 -9.45979623942394  5.83218660066006 -0.60466181888189
 1 -9.15706477017702  8.07828754975498  0.34110388608861
 1 -7.70421835393539  7.63577041344134  1.51079003930393
 1 -11.94008448144814  3.16330547764777 -2.18604443594359
 1 -13.09445674337434  1.96231497389739 -1.88807453565357
 1 -12.50752178487849  2.91795913001300 -0.67403784328433
 1 -12.48463042794279 -1.68343926672667 -0.90080358125813
 1 -13.12300459955996 -0.17334004450445 -1.41275703010301
 1 -12.91221642084209 -1.90691435353535 -3.27401835993599
 1 -12.46793719941994 -0.34908337963796 -3.82998197659766
 1 -10.96407124652465 -1.60213124032403 -3.11724000220022
 1 -9.06769138773877 -4.49060556135614 -2.10265632863286
 1 -7.69757414261426 -5.78128408170817 -0.92802275737574
 1 -9.29530370937094 -5.02306075447545 -0.05106737543754
 1 -3.23184070257026 -3.25257186278628 -0.19272701080108
 1 -1.57194058165817 -4.18038025142514  3.50833255085509
 1 -2.70428686598660 -5.40908043294329  3.89253029072907
 1 -1.57552807330733 -5.94834561936194  2.81768512961296
 1  2.58165622042204 -1.80809743254325 -1.58092954165417
 1  2.74563100440044 -0.06136805200520 -2.31795285278528
 1  4.23541402810281 -1.12063047684768  0.16104750495050
 1  3.97488279977998  1.13939948264826 -2.87672815851585
 1  5.20931786398640  2.35968639253925 -2.27764520292029
 1  5.64197376587659  0.83116430733073 -3.01979823672367
 1  6.60653883778378  1.42461244184418 -0.14974536063606
 1  6.24913278537854  0.03139580288029  0.66226242174217
 1  7.41422354515452 -1.41958263126313 -1.39360411761176
 1  7.80422298079808  0.23310241324132 -2.17200802370237
 1  8.68964500880088  0.80264976247625  0.03827625572557
 1  8.82170529132913 -0.65923427612761  0.82214833823382
 1  10.23571820362036 -0.25285913811381 -1.83943910191019
 1  9.03522313141314 -2.11166945044504 -1.86354473637364
 1  10.81813095369537 -2.51638503780378 -2.03176853495350
 1  9.82588478557856 -2.71270538523852 -0.38548594229423
 1  11.12714435603560  0.55510194359436  0.57649542034203
 1  11.35759335483548 -1.26151744934494  0.87344366446645
 1  12.93214116661666 -1.46964438373837 -1.39874214571457
 1  12.65442127202720  0.40754569056906 -1.48490282398240
 1  13.72823424372437  0.82648801210121  0.77058188688869
 1  13.87796610721072 -1.08438481738174  0.84411678567857
 1  15.17864826622662  0.53714711171117 -1.40512178097810
 1  15.84757855465547 -1.95946528772877  0.16908877337734
 1  14.79274091849185 -2.18494301430143 -1.39998137163716
 1  16.45252353195319 -1.79085998299830 -1.66193270657066
 1  15.97161043454345  1.37964629832983  0.53588950525053
 1  16.43829790759076 -0.16862314711471  1.47756625132513
 1  18.62221895959596 -0.46099261326133 -0.20991118671867
 1  18.00415772537254  0.78693758785879 -1.03701944554455
 1  18.31844090099010  2.35193646164616  0.86048799559956
 1  18.69987595009501  0.86873171267127  1.77995124062406
 1  20.61707153945395  0.38858985658566  0.27721361356136
 1  20.21608842734274  3.34453523002300 -0.85497768246825
 1  21.22726652745274  2.17468861096110 -1.36259424062406
 1  19.65110350795079  1.81734202440244 -1.74316270067007
 1  21.13083693719372  1.47361300220022  2.24344801360136
 1  22.02381027382738  2.24194466516652  0.94719137273727
 1  20.55120519901990  3.10673679087909  1.47755489218922

