%nproc=4
%Mem=2GB
# td=(NStates=1) CAM-B3LYP/6-31G(d,p) 

TD

0 1
12 -7.21880245324532  0.59214796289629  0.12281996939694
 6 -4.96955157315732 -1.94822600100010  0.53424995769577
 6 -4.89265919481948  2.91377982528253  1.13693005790579
 6 -9.50448518401840  3.11150664616462 -0.26983984368437
 6 -9.50879119281928 -1.73466897789779 -0.83105953505351
 7 -5.14110753535354  0.43653347144714  0.70990140844084
 6 -4.38686839293929 -0.73718354035404  0.73562158535854
 6 -2.97458646404640 -0.36008543424342  1.17438779297930
 6 -3.00088352675268  1.12493516181618  1.56320705140514
 6 -4.43711070597060  1.52997374617462  1.13661069096910
 6 -2.81831691379138  1.48020030813081  3.03155456435644
 6 -1.95032849384938 -0.68039330073007  0.08484244254425
 6 -0.47474489708971 -0.55088943614361  0.50576470577058
 6  0.56782791999200 -0.69189270217022 -0.55821120162016
 8  0.21707294739474 -1.11729713731373 -1.62201853355336
 8  1.77652946344634 -0.38599599599960 -0.19417620652065
 7 -7.15604605250525  2.64041963176318  0.28692738823882
 6 -6.15239451845185  3.43143411921192  0.75939947354735
 6 -6.42272952605260  4.79196348574857  0.83989467666767
 6 -7.85044775177518  4.83307393889389  0.36887527882788
 6 -8.27212148374837  3.50855005030503  0.10585313161316
 6 -5.50867882458246  5.85741820772077  1.05229999049905
 6 -8.72905070267027  5.92003303700370  0.16698368376838
 6 -8.58324221552155  7.09506562516252  0.80477672747275
 7 -9.13951622422242  0.61859472057206 -0.43391742544254
 6 -9.88924518421842  1.80912086518652 -0.64666099019902
 6 -11.13838293489349  1.44711305040504 -1.08270999049905
 6 -11.22394479837984  0.08694405850585 -1.28600731473147
 6 -9.97196287698770 -0.43887586188619 -0.80048506460646
 6 -12.28766759045905  2.40405097609761 -1.41275805060506
 6 -12.28147269356936 -0.70132754285429 -1.88640944944494
 6 -12.22610009840984 -0.96154856605661 -3.33075819441944
 7 -7.28739820812081 -1.43405301890189 -0.09685436243624
 6 -8.23157339713971 -2.29133430553055 -0.49261421662166
 6 -7.81636778237824 -3.63992225972597 -0.54152142944294
 6 -6.53157704180418 -3.60753509050905 -0.05399713161316
 6 -6.24060665706571 -2.24934321562156  0.14876768096810
 6 -8.68172563996400 -5.00613345574557 -0.75440391879188
 6 -5.31803627392739 -4.33853773727373  0.20299317191719
 8 -5.13483232113211 -5.57437192059206  0.14654168486849
 6 -4.23217679707971 -3.28706449624962  0.57025689098910
 6 -3.54880551145114 -3.64603982528253  1.84697507040704
 8 -3.77699930053005 -3.09576631283128  2.99843252435244
 8 -2.55542673637364 -4.53243796619662  1.75748432933293
 6 -2.07163775167517 -5.01597582668267  2.97784271977198
 6  2.84614712641264 -0.56331412601260 -1.20803200360036
 6  4.23173526252625 -0.47782595889589 -0.54098424742474
 6  5.15775926032603  0.37465373077308 -0.93667344004400
 6  5.17149557255726  1.33688633793379 -2.13698786408641
 6  6.45902023482348  0.35706755695570 -0.17515400060006
 6  7.67583512141214 -0.22963331023102 -0.98002495299530
 6  8.96126799939994 -0.06211134153415 -0.17379919271927
 6  10.21904252875287 -0.52819989168917 -0.88381935243524
 6  10.20775747594759 -1.98348928502850 -1.19020248524852
 6  11.45576845374537 -0.28756253705371 -0.05309444084408
 6  12.83980888858886 -0.68491254235424 -0.68805882878288
 6  14.01013048144814 -0.16552775557556  0.02919998749875
 6  15.34064018891889 -0.34716844594459 -0.59259749954995
 6  15.67016868576858 -1.80829846364636 -0.91648126582658
 6  16.45813991989199  0.29046340634063  0.28810331753175
 6  17.86770135953595  0.50738213661366 -0.17555336993699
 6  18.80874124362436  1.23330154715472  0.71566199919992
 6  20.26608527772777  1.36442677617762  0.29654441764176
 6  20.41119247304730  2.29317761496150 -0.96924791749175
 6  21.13305423622362  2.01334427072707  1.39673503690369
 1 -4.10918240274027  3.59189471087109  1.16597118401840
 1 -10.36932732543254  3.64107494249425 -0.47440283178318
 1 -10.25784907430743 -2.47169651045104 -1.36528318051805
 1 -2.73014947184718 -1.02704101800180  2.03345403660366
 1 -2.23685729092909  1.87974155675568  0.83052370277028
 1 -1.51211566906691  1.29501995489549  3.15329904340434
 1 -3.45206026602660  2.36842089958996  3.47684985038504
 1 -3.24557800050005  0.55145982998300  3.79463187598760
 1 -2.00710319521952 -1.69065902630263 -0.33458736793679
 1 -2.13615528802880 -0.02516526612661 -0.64785482508251
 1 -0.34940845824582  0.18390300420042  0.96869726882688
 1 -0.24358216021602 -1.22804731993199  1.52331628682868
 1 -5.94284305970597  6.98174681878188  0.70814652385238
 1 -5.34879186858686  5.94612797589759  2.20175647274727
 1 -4.56395035103510  5.75736690309031  0.44804798039804
 1 -9.60436248874888  5.61352750085008 -0.54343457165717
 1 -9.57218843474347  7.75905664456446  0.85275489728973
 1 -7.94626409220922  7.05920231973197  1.56664505000500
 1 -11.96122022712271  3.53485381138114 -1.87253025772577
 1 -13.09588925812581  1.82350624182418 -1.77409860136014
 1 -12.76285801690169  2.85677433213321 -0.48456970097010
 1 -12.54420919931993 -1.64901434653465 -1.51622657755776
 1 -13.29139785868587 -0.11700843764376 -1.83786931443144
 1 -13.15031138373837 -1.43776846304630 -3.52365224972497
 1 -12.13120668486849 -0.06740127772777 -3.90637413311331
 1 -11.29758603790379 -1.29326419351935 -3.92437105710571
 1 -9.12551215421542 -5.18059880278028 -1.75815908000800
 1 -8.11100046484649 -5.76132613681368 -0.54510412341234
 1 -9.37132701760176 -4.89921494279428  0.11194937233723
 1 -3.59071976787679 -3.66697994869487 -0.42960823232323
 1 -1.51852001850185 -4.14383082278228  3.65404832013201
 1 -2.90335994459446 -5.68508012561256  3.48982182108211
 1 -1.26532464396440 -5.65704497769777  2.73731768466847
 1  2.62052135623562 -1.76647848374837 -1.43389735473547
 1  2.74597207480748  0.26237051665167 -2.17585073727373
 1  4.34190509610961 -1.06881909710971  0.29282249824983
 1  4.17571653515352  1.65054376477648 -2.70042841254125
 1  5.52865827752775  2.22498275717572 -1.76946341454145
 1  6.12427973557356  1.01903301080108 -2.75349408040804
 1  6.87398946184618  1.53040704070407 -0.00698805600560
 1  6.21368548794880 -0.15129316671667  0.59849956665667
 1  7.45434281898190 -1.15924515971597 -1.20898222182218
 1  7.72111454735474  0.22073528162816 -1.85922884648465
 1  9.13522557415742  1.04061194619462  0.10213784598460
 1  8.78630711941194 -0.73049855605561  0.53078094179418
 1  10.25868341974197  0.22511504920492 -1.74754964446445
 1  9.28524350985098 -2.09793777027703 -1.91643756855686
 1  11.11032358805881 -2.31930871477148 -1.79048329222922
 1  10.17322020802080 -2.78448039003900 -0.45318475817582
 1  11.59664734563456  0.82485471567157  0.12898438593859
 1  11.38138119151915 -0.74633059435944  0.93075369696970
 1  12.97298061696170 -1.52837099829983 -1.38975664326433
 1  12.82494624712471 -0.07089639863986 -1.48762212351235
 1  13.87333877057706  0.93015557155716  0.35230257325733
 1  14.35892864596460 -0.65876548124812  1.05888240474047
 1  15.36781006950695  0.26778626362636 -1.67349170717072
 1  15.62797023992399 -2.33352364446445  0.12125067116712
 1  15.16259931063106 -2.25255763136314 -1.65720313541354
 1  16.68910854025403 -1.99949547444745 -1.15400687018702
 1  16.03681888258826  1.06965479917992  0.67724426872687
 1  16.55478992619262 -0.37433660876088  1.14194695589559
 1  18.38365930463046 -0.61056760416042 -0.37602094249425
 1  17.67198426292629  0.87649496839684 -1.11381495729573
 1  18.56614740734073  2.10353451115112  1.10517852315232
 1  18.71363852415242  0.67300148114811  1.51433143344334
 1  20.83109802250225  0.39043519171917  0.00283734773477
 1  20.21077518411841  3.40952451435144 -0.54325791919192
 1  21.45209946204621  2.41371802460246 -1.18120948424842
 1  19.73037694209421  1.96916872767277 -1.83936090509051
 1  21.21389736493649  1.35758386748675  2.21977159435944
 1  22.28122982928293  2.15700693039304  1.09577454375438
 1  20.65891562146215  2.97629771307131  1.70869130963096

