%nproc=4
%Mem=2GB
# td=(NStates=1) CAM-B3LYP/6-31G(d,p) 

TD

0 1
<<<<<<< HEAD
12 -7.14261483448345  0.61157990609061  0.07499518691869
 6 -4.82725734373437 -1.91155233363336  0.51588812151215
 6 -4.79763969286929  2.81742018931893  1.16166253115312
 6 -9.31241597709771  3.00535603110311 -0.35154801450145
 6 -9.59864017771777 -1.73167867886789 -0.76370279937994
 7 -5.03166659125913  0.42544236233623  0.65538595689569
 6 -4.29139884598460 -0.67158698069807  0.79468749194919
 6 -2.85068407380738 -0.40959038473847  1.21353170737074
 6 -2.97248068646865  1.09224189248925  1.53783451415142
 6 -4.30269726462646  1.54251500030003  1.14883191309131
 6 -2.93276835893589  1.38849113721372  3.08876028492849
 6 -1.94644810581058 -0.61238650005000  0.02326628492849
 6 -0.46460388298830 -0.37878222542254  0.44038816811681
 6  0.48204934213421 -0.70882439533953 -0.63820920142014
 8  0.28475971607161 -1.09003441104110 -1.81168750045005
 8  1.79220103060306 -0.44173156955696 -0.21307809670967
 7 -7.06425687358736  2.64045963576358  0.27068576407641
 6 -6.08019729872987  3.37048802460246  0.74571810541054
 6 -6.40775802890289  4.77735202460246  0.76327701490149
 6 -7.74746745374537  4.83317394889489  0.38601699299930
 6 -8.11200547214722  3.51918111341134 -0.00183763746375
 6 -5.66323428012801  5.87546001190119  1.24388914941494
 6 -8.59379717731773  5.97213824752475  0.17018400380038
 6 -8.27456134743474  7.20838695729573  0.76287253705371
 7 -9.14755702830283  0.63801666276628 -0.47119115281528
 6 -9.87652391209121  1.73495344844484 -0.67282360646065
 6 -11.16831592819282  1.45760409950995 -1.09272099159916
 6 -11.34125652955296  0.06339170327033 -1.23813252725273
 6 -9.95742142284228 -0.44394636893689 -0.86731174727473
 6 -12.36813563726373  2.44297486848685 -1.30365714051405
 6 -12.36123066936694 -0.77571498159816 -1.69908071657166
 6 -12.39489697809781 -1.00243265446545 -3.21949706830683
 7 -7.16894636293629 -1.42765237883788 -0.21740641764176
 6 -8.33411365116512 -2.25418059015902 -0.60768572377238
 6 -7.81900804640464 -3.70892916041604 -0.49027630493049
 6 -6.55745963006301 -3.59527386438644 -0.07163889578958
 6 -6.14107670407041 -2.12886116741674  0.02081488568857
 6 -8.63295076247625 -4.89633247564757 -0.87780625902590
 6 -5.34789926022602 -4.41700558405841  0.27792066466647
 8 -5.19145798369837 -5.68400288368837  0.32777980868087
 6 -4.17850142954295 -3.29124491429143  0.48533839913991
 6 -3.65441607250725 -3.72530775207521  1.81901227412741
 8 -3.87628922952295 -3.05975271147115  2.85390807190719
 8 -2.86758795249525 -4.80724544694469  1.84386296719672
 6 -2.26740732863286 -5.15131936103610  3.10737567306731
 6  2.80119263096310 -0.54103189778978 -1.21010221062106
 6  4.19542163116312 -0.38609678597860 -0.58029817881788
 6  5.19889337373737  0.46065233063306 -0.98805857855786
 6  5.15092351535153  1.35672832213221 -2.13684785008501
 6  6.51777611041104  0.25459730993099 -0.13303978917892
 6  7.68032557045705 -0.15040538743874 -0.89834678517852
 6  8.97265913851385 -0.18699382978298 -0.07030884368437
 6  10.24394501900190 -0.58635570727073 -0.97861883238324
 6  10.13427012721272 -2.03920485658566 -1.30945441044104
 6  11.47025990289029 -0.18864264506451 -0.11499063046305
 6  12.87751265896590 -0.55670972207221 -0.71412143504350
 6  14.01308077647765 -0.21857306010601  0.06816388388839
 6  15.32878900380038 -0.32804653375338 -0.57317555735574
 6  15.67626929582958 -1.80493812761276 -0.79842946064606
 6  16.35769987588759  0.45285964596460  0.36604111131113
 6  17.74822941234123  0.55706710511051 -0.14748056265627
 6  18.66979734923492  1.33297151415142  0.74742517551755
 6  20.24590325952595  1.44477481098110  0.22426718991899
 6  20.43878523232323  2.28776707390739 -0.98753974667467
 6  21.21085201600160  1.98699163546355  1.41216658005801
 1 -4.10747223172317  3.55838135953595  1.46196078297830
 1 -10.21607199989999  3.67770860586059 -0.15622101360136
 1 -10.33675696509651 -2.69508884968497 -0.60811746394639
 1 -2.55920237713771 -0.95831414531453  2.14439513071307
 1 -2.24867847304731  1.83246682928293  1.10357100750075
 1 -2.07563202070207  1.27347780068007  3.52739645314531
 1 -3.20967602760276  2.52256631413141  3.13852601800180
 1 -3.68136157885789  0.80032471647165  3.77582999579958
 1 -1.70995348024802 -1.49962992339234 -0.47817172637264
 1 -2.13090476297630  0.18123537393739 -0.76357639723972
 1 -0.12934645204520  0.63176779067907  0.76421682078208
 1 -0.14116191819182 -0.95733024822482  1.26524047924792
 1 -5.88643741914191  6.90093873797380  0.52928863806381
 1 -5.70388737813781  6.15733909700970  2.37096339343934
 1 -4.60770472647265  5.60630179657966  1.10543371897190
 1 -9.52712476497650  5.77816396449645 -0.41971219941994
 1 -8.91758297419742  7.95527626652665  0.39886950875087
 1 -7.40509997579758  7.47892429192919  1.36041442694269
 1 -12.25721982708271  3.33656398239824 -2.11514451915192
 1 -13.42425209440944  1.95865975717572 -1.45203639513951
 1 -12.35713744484448  3.04026268096810 -0.46670791479148
 1 -12.37679245764576 -1.68606805190519 -1.19434438933893
 1 -13.42375109400940 -0.55244198099810 -1.47376290379038
 1 -13.30420677327733 -1.67300198639864 -3.32814269876988
 1 -12.56471003520352 -0.05000953855386 -3.82987648334833
 1 -11.56617289658966 -1.43624849194919 -3.73682230223022
 1 -9.04259386238624 -4.78584932783278 -1.78695195929593
 1 -8.08082744754475 -5.73984398859886 -0.53134274727473
 1 -9.50437032193219 -4.89642466376638 -0.11837365996600
 1 -3.08798949484949 -3.43911716241624 -0.17055232673267
 1 -1.62278044454445 -4.33780021972197  3.43548646394639
 1 -2.94874448304831 -5.38421003860386  3.83278611751175
 1 -1.74029214071407 -6.10613988718872  2.85930988388839
 1  2.73479278337834 -1.48092992889289 -1.83481744674467
 1  2.83060053765377  0.54774905450545 -1.99967311951195
 1  4.26973787938794 -0.91236345154516  0.46524974097410
 1  4.24378334183418  1.63142185258526 -2.59487785748575
 1  5.24274968666867  2.44302456135614 -1.75396186438644
 1  5.77796510411041  1.04348545604560 -3.01396012701270
 1  6.64742680558056  1.26547054705470  0.29955259805981
 1  6.10968508790879 -0.31322936033603  0.67380709740974
 1  7.42790017471747 -1.24557379257926 -1.46059738333833
 1  7.85499793569357  0.65927913601360 -1.79652257585759
 1  9.00961301290129  0.84950283528353  0.28226585878588
 1  8.90200868956896 -0.84319982618262  0.85422328602860
 1  10.58018556995700 -0.05073253555356 -1.93741863136314
 1  9.16207119261926 -2.30319829632963 -1.65165108990899
 1  10.92445500120012 -2.30105688958896 -1.95180942484248
 1  10.23992687868787 -2.79104104610461 -0.45564500420042
 1  11.38035571647165  0.79622185238524  0.20799228672867
 1  11.36947000040004 -0.74470043134313  0.92908352995300
 1  12.81104442334233 -1.69458761996200 -1.03556122372237
 1  12.87428118061806 -0.19844915391539 -1.61297465876588
 1  13.73924536123612  0.89661221722172  0.53542088508851
 1  13.82708546164617 -0.96572617731773  0.92225874237424
 1  15.42204549304930  0.21122060706071 -1.46536089408941
 1  15.63345078797880 -2.24807509960996  0.09575812191219
 1  14.79140219091909 -2.34540691629163 -1.27736515161516
 1  16.56110573997400 -2.02133765866587 -1.57162863236324
 1  16.03134833553355  1.45743357705771  0.37299384368437
 1  16.35362981018102 -0.09408858395840  1.28000076127613
 1  18.27862880158016 -0.39203575097510  0.02960962056206
 1  17.75201226572657  1.00332765166517 -1.28413198899890
 1  18.20027081968197  2.24010816851685  0.92347035233523
 1  18.62528968926893  0.87566174717472  1.76082608290829
 1  20.47299221192119  0.39147529572957 -0.06580951695169
 1  20.08440254685468  3.24426798869887 -0.82917651105110
 1  21.45834008610861  2.16554320712071 -1.37640900420042
 1  19.75504940934094  1.65115692649265 -1.75462243124312
 1  21.34009998519852  1.67753586268627  2.33243286048605
 1  22.14612631893189  2.11732296199620  0.84855982228223
 1  21.11208093799380  3.00430051335134  1.60650109060906
=======
12 -7.09870044304430  0.61882063016302  0.08050573797380
 6 -4.89242386038604 -1.95542672107211  0.46954348704871
 6 -4.73688361726173  2.87451589888989  1.08136450135014
 6 -9.36636137163716  3.08542403790379 -0.56124898459846
 6 -9.52524283798380 -1.74986049704971 -0.86438286738674
 7 -5.10551397599760  0.39002882098210  0.70156057435744
 6 -4.35531523762376 -0.67307712971297  0.87498552175218
 6 -2.97487649304931 -0.40465989168917  1.29858021222122
 6 -3.09454289268927  1.07119978827883  1.77643837453745
 6 -4.30590758565857  1.50738148694870  1.12822985288529
 6 -3.11758684078408  1.11534382248225  3.30130153905391
 6 -1.94267772877288 -0.64336959835984  0.19440339863986
 6 -0.44003142574257 -0.43384773197320  0.71059518881888
 6  0.57967910511051 -0.70932444534453 -0.49947532803280
 8  0.24118535863586 -1.16513192079208 -1.62305863756376
 8  1.79784159465947 -0.49529692609261 -0.10631742064206
 7 -6.99415986388639  2.65834142394239  0.36883557905791
 6 -6.02568184718472  3.40226120192019  0.80261379497950
 6 -6.39243649674968  4.75546983638364  0.79517020422042
 6 -7.67846055305530  4.82161279277928  0.31153954525453
 6 -8.14668894049405  3.51639083438344 -0.01103855755576
 6 -5.52277023372337  5.98783124902490  1.20563532403240
 6 -8.47453525112511  6.10677171087109  0.18392537793779
 6 -8.47364125542554  7.24749086768677  0.90174642444244
 7 -9.09601187378738  0.63997685878588 -0.52860689438944
 6 -9.93165942564256  1.75328528162816 -0.67012333643364
 6 -11.17238633523352  1.41601994109411 -1.12952467196720
 6 -11.20247265116512  0.11139650375038 -1.28450716471647
 6 -9.87876355705571 -0.42828480278028 -0.95761077717772
 6 -12.30647947164716  2.47627819881988 -1.45949272407241
 6 -12.32804735103510 -0.79031644174417 -1.80831163966397
 6 -12.29213670207021 -1.05182759395940 -3.31673679227923
 7 -7.25465493379338 -1.37685729932993 -0.20487516451645
 6 -8.25919615941594 -2.22269744184418 -0.48960391559156
 6 -7.87164330993099 -3.64323259075908 -0.42310958825883
 6 -6.51919580368037 -3.61608594559456 -0.08851058295830
 6 -6.19677227362736 -2.20263854515452  0.11968477267727
 6 -8.74324179157916 -4.87000984338434 -0.77431590999100
 6 -5.41156562686269 -4.39520340384038  0.21825469806981
 8 -5.37931676957696 -5.57226170957096  0.21633866456646
 6 -4.27042062146215 -3.34474026382638  0.58671853715372
 6 -3.57528815971597 -3.66650187148715  1.91152152505251
 8 -3.57567916851685 -3.05707244344434  2.91996467756776
 8 -2.81039223292329 -4.74798952135214  1.71293987488749
 6 -2.37317790569057 -5.40707493659366  2.86075101060106
 6  2.79503201490149 -0.70916871147115 -1.13900510091009
 6  4.16308839783978 -0.34742291859186 -0.57676782578258
 6  5.11161464586459  0.36473273867387 -1.16131590429043
 6  5.11663008600860  1.15271792109211 -2.44274844014401
 6  6.44452878567857  0.45215706590659 -0.34676116131613
 6  7.66062360026003 -0.11099144604460 -0.98402535303530
 6  8.94599647224723 -0.05266039643964 -0.16645845864586
 6  10.27364798929893 -0.49318639033903 -0.89925089558956
 6  10.10576727692769 -2.04510544664466 -1.16239970497050
 6  11.50367324422442 -0.34607838863886 -0.09783891529153
 6  12.83378828652865 -0.45038909000900 -0.70930095299530
 6  14.02762223062306 -0.02142334513451  0.09233630113011
 6  15.43846997189719 -0.26344007310731 -0.51491973177318
 6  15.64307597649765 -1.78123575737574 -0.74764438213821
 6  16.45715982188219  0.56881124112411  0.30678518571857
 6  17.82529711911191  0.67623902230223 -0.21956777137714
 6  18.76431680118012  1.44608282528253  0.80435086808681
 6  20.26533520272027  1.37540787428743  0.26978174137414
 6  20.37612896669667  1.95271356855686 -1.11719271197120
 6  21.18863979477948  2.07322025832583  1.32339770317032
 1 -3.89538102260226  3.63606912831283  1.47184177107711
 1 -10.07414780748075  4.01166200120012 -0.81776716821682
 1 -10.45726901630163 -2.47335667646765 -1.19569622182218
 1 -2.64916137303730 -0.94860317421742  2.08830952215221
 1 -2.24691829702970  1.54678826142614  1.36650730113011
 1 -2.34347880538054  0.58834928782878  3.62506622012201
 1 -3.33110817081708  2.01240529802980  3.73363552895289
 1 -3.90895433813381  0.41534621862186  3.65265767856786
 1 -1.87140962586259 -1.52226218661866 -0.38146205540554
 1 -1.99735140764076  0.15738298869887 -0.65957599719972
 1 -0.22510602800280  0.50777539143914  1.06016641574157
 1 -0.12431023302330 -1.08454296949695  1.57757171237124
 1 -5.62636141154116  6.82812145624562  0.56137184638464
 1 -5.72697968736874  6.21438480158016  2.28134443154315
 1 -4.46533048904890  5.59210037643764  0.96304948054806
 1 -9.30017206970697  6.27065321342134 -0.51740196839684
 1 -9.03884510041004  8.37004774367437  0.55611523332333
 1 -7.79237870367037  7.08027442694269  1.88969735523552
 1 -12.00153425852585  3.14916524252425 -2.46582958765877
 1 -13.31919158835884  1.99893378457846 -1.70520171167117
 1 -12.47316904800480  3.16350500520052 -0.53163440744074
 1 -12.43232801120112 -1.73658310341034 -1.10320527542754
 1 -13.35568428732873 -0.37853459025903 -1.49582511001100
 1 -13.18825517811781 -1.69105379157916 -3.59164904940494
 1 -12.45495906010601 -0.16529106670667 -3.76565006070607
 1 -11.37987426672667 -1.56705157225723 -3.84316293629363
 1 -9.44393399639964 -4.66664740764076 -1.67035029912991
 1 -8.21518088288829 -5.72078208240824 -0.89579919291929
 1 -9.37357724262426 -4.96717173847385 -0.02217404000400
 1 -3.46294699059906 -3.47198044874487  0.08191291979198
 1 -1.68042620912091 -4.71523796349635  3.40011292659266
 1 -3.31430103870387 -5.71192280988099  3.45607844674467
 1 -1.82008011951195 -6.23995326852685  2.63642759565957
 1  2.77269657375738 -1.65036687258726 -1.41372533753375
 1  2.54947242484248 -0.23619934033403 -1.98251140334033
 1  4.33855476107611 -0.78543075827583  0.45186840284028
 1  4.01656061956196  1.23546225662566 -2.73501187088709
 1  5.47481289298930  2.20814107300730 -2.16982345054506
 1  5.74520182778278  0.64511561906191 -3.09836856785679
 1  6.53217528042804  1.47086108610861 -0.12570992819282
 1  6.32345646504650 -0.00535857325733  0.62885260196020
 1  7.40120750545054 -1.12288152335234 -1.45566689028903
 1  7.99514195009501  0.41709491759176 -1.95879880348035
 1  9.21194324592459  0.86049393439344  0.27351498369837
 1  8.92596108480848 -0.68613411961196  0.76878474217422
 1  10.16828437983798  0.05738827652765 -1.99590447994799
 1  9.44619960546055 -2.25482345884588 -2.06503242804280
 1  10.99706226192619 -2.47615439933993 -1.61045528942894
 1  9.95080796679668 -2.67754969696970 -0.23627306700670
 1  11.58508618951895  0.69783201340134  0.48705019251925
 1  11.54559761316132 -1.24183014431443  0.71531215281528
 1  13.08098141704170 -1.52730089128913 -0.96438410601060
 1  12.90443419591959  0.25054574557456 -1.60059342064206
 1  13.99049048574858  1.13592614861486  0.50560790379038
 1  14.01648440154015 -0.57061666636664  0.99626614311431
 1  15.59890317881788  0.18337782278228 -1.53504786278628
 1  15.87182462536254 -2.29756004810481  0.23442198829883
 1  14.63158620932093 -2.38896127172717 -1.10088750385039
 1  16.49848947834784 -1.90073559845985 -1.41370283978398
 1  16.02810801150115  1.39747758145815  0.48001454575458
 1  16.56226067326732 -0.05708488358836  1.33015577677768
 1  18.17989892859286 -0.42042859025903 -0.38927226762676
 1  17.69547661216122  1.33146046494649 -1.14405798159816
 1  18.31522231483148  2.45188934663466  0.86015402070207
 1  18.78714587488749  1.00708488948895  1.72661266156616
 1  20.59001391409141  0.25193134133413  0.24118118211821
 1  19.74883899049905  3.00426398829883 -1.29104269766977
 1  21.41304555665567  2.11663831663166 -1.42881424472447
 1  19.96980088448845  1.29701151195119 -1.89623659265927
 1  21.15089106430643  1.58821693079308  2.47525714291429
 1  22.26815852215221  1.89002023172317  0.87361232753275
 1  20.80978070797080  3.12170225352535  1.52963340384038
>>>>>>> 8e03b5b5abfc0030b3aa597dc0de36371bfbd096

