%nproc=4
%Mem=2GB
# td=(NStates=1) CAM-B3LYP/6-31G(d,p) 

TD

0 1
<<<<<<< HEAD
12 -7.04854542754275  0.57671641974197 -0.02255456805681
 6 -4.73863848184818 -1.99280045844584  0.44466099879988
 6 -4.83663359225923  2.86055450275027  1.07460382528253
 6 -9.47509224472447  3.01373686918692 -0.18414127382738
 6 -9.52463277697770 -1.68398390939094 -0.90019644874487
 7 -5.03714713931393  0.43791360946095  0.72312273057306
 6 -4.28559826592659 -0.68736855885589  0.82400042324232
 6 -2.92070107550755 -0.36921634733473  1.35150550475048
 6 -3.05343878227823  1.11814448274827  1.71246197689769
 6 -4.39872686758676  1.51840258905891  1.16169319921992
 6 -2.90836591869187  1.36692898099810  3.18643005190519
 6 -1.99606306730673 -0.59436469786979  0.13623758205821
 6 -0.47932535513551 -0.41447579477948  0.53195732503250
 6  0.46633777097710 -0.57443095599560 -0.59860524102410
 8  0.19809104920492 -0.76295170277028 -1.83957028872887
 8  1.82430424092409 -0.55032242864286 -0.18326511541154
 7 -7.21229167706771  2.62819840964096  0.38919761526153
 6 -6.13150242924292  3.28888986478648  0.76304983858386
 6 -6.36021327442744  4.75295958535854  0.78350903810381
 6 -7.80329303630363  4.80950158165817  0.43861225252525
 6 -8.19735400700070  3.52073126842684  0.02968551485149
 6 -5.43711166786679  5.91667413331333  1.25328008850885
 6 -8.60600839843984  5.95860689438944  0.23162014741474
 6 -8.52098598989899  7.15971208980898  0.82458870867087
 7 -9.09841211381138  0.67007986908691 -0.56732076577658
 6 -9.86341260096009  1.79855980908091 -0.57533385748575
 6 -11.23396249284928  1.47465580468047 -1.18834055355536
 6 -11.22818522242224  0.12116748084808 -1.37237595159516
 6 -9.92656833753375 -0.36637861216122 -0.86531154725473
 6 -12.28708753245325  2.41031160216022 -1.50468724352435
 6 -12.38435298159816 -0.77292470257026 -1.79879068756876
 6 -12.21408889728973 -1.29122153335334 -3.26450156875688
 7 -7.22625209350935 -1.37764737833783 -0.02957763476348
 6 -8.25082532233223 -2.25229040114011 -0.49736469166917
 6 -7.84801094669467 -3.57376564406441 -0.52709998729873
 6 -6.51477536163616 -3.55731006800680 -0.01508324022402
 6 -6.18801139753975 -2.21693997529753  0.25575838003800
 6 -8.56263373077308 -4.84703754615462 -0.82132061046105
 6 -5.28685315561556 -4.31047493099310  0.12304517711771
 8 -5.07607644554455 -5.51127561096110  0.08846587728773
 6 -4.15098867826783 -3.30762655245525  0.60508037333733
 6 -3.45903653455346 -3.54181940324032  1.92699307220722
 8 -3.75974757535754 -2.99063579977998  2.90059274037404
 8 -2.68460965466547 -4.66577129952995  1.73639222012201
 6 -2.06931751965197 -5.17634186328633  2.93056799229923
 6  2.77815032673267 -0.72126992159216 -1.17264846524652
 6  4.10929301830183 -0.51699987628763 -0.67783793279328
 6  5.10653413781378  0.31245751115112 -0.97992776547655
 6  5.09853827682768  1.00225287458746 -2.36794095939594
 6  6.43980831363136  0.41538338853885 -0.19430591579158
 6  7.60095763366337 -0.19125947284728 -0.95283223372337
 6  8.89012088468847 -0.15894102450245 -0.20940275307531
 6  10.12931355585559 -0.70099717141714 -0.87385835633563
 6  10.22765946614661 -2.15076601270127 -1.15960942594259
 6  11.38308118501850 -0.20403418421842 -0.03095222662266
 6  12.70907581528153 -0.49980403150315 -0.65497552045205
 6  13.92238170657066  0.00079887708771  0.20731779927993
 6  15.29865599049905 -0.21551528062806 -0.42467070687069
 6  15.60334200310031 -1.55239287308731 -0.91523114081408
 6  16.43647775367537  0.41359571957196  0.53723823102310
 6  17.74899948934893  0.56376777517752 -0.08775459005901
 6  18.78703907340734  1.32876109310931  0.74095452845285
 6  20.17601627082708  1.31971230473047  0.22811757495750
 6  20.40083143694369  1.97700599779978 -1.18848984168417
 6  21.10498142894290  1.90275321162116  1.18819418281828
 1 -3.97363884838484  3.62658818021802  1.46993158005801
 1 -10.31429182188219  3.56558739373937 -0.36048143964396
 1 -10.09985327472747 -2.44143348414842 -1.33751040324032
 1 -2.68230468736874 -0.86704501840184  2.15991668286829
 1 -2.27021062626263  1.59971355395540  1.41951260166017
 1 -1.97922237973797  0.93749420232023  3.53782749624962
 1 -2.97267232723272  2.29292334983498  3.48308047344735
 1 -3.90116355905591  0.97799248324832  3.73507592039204
 1 -2.28576106100610 -1.40053001340134 -0.41081499069907
 1 -2.04049572207221  0.24557180758076 -0.65441548114811
 1 -0.31645516291629  0.51863647754775  0.90648104720472
 1 -0.24722252425243 -1.02170668586859  1.41558551375137
 1 -5.82033080848085  6.77436608070807  0.63608931813181
 1 -5.41688867826783  5.94626798989899  2.38181447854785
 1 -4.49755371137114  5.64567573397340  1.05039821542154
 1 -9.47726977947795  5.66249239733973 -0.53231345954596
 1 -8.95622683858386  8.07177791669167  0.42443206500650
 1 -7.67659712551255  7.31014741424142  1.53232161766177
 1 -12.51401550665067  2.90068039403940 -2.54793779847985
 1 -13.15917558675867  1.90528441964196 -1.57818901040104
 1 -12.25542727382738  3.38853750845085 -0.77274851885189
 1 -12.26815159355936 -1.51399084418442 -0.94526948184818
 1 -13.37506622552255 -0.18782551935194 -1.50834636213621
 1 -13.03980033263326 -1.73264795099510 -3.76961684618462
 1 -12.20722428662866 -0.26667120472047 -3.88198169386939
 1 -11.25084136343634 -1.64255912301230 -3.30175879587959
 1 -8.68775837883788 -4.88321906480648 -2.03944720882088
 1 -8.00436980178018 -5.65214521872187 -0.67763737673767
 1 -9.61559144404441 -4.95042006330633 -0.21459328192819
 1 -3.33336403230323 -3.44988823952395 -0.26981225272527
 1 -1.35599376587659 -4.41203764346435  3.46055897119712
 1 -2.81587119571957 -5.52486410401040  3.71747458635864
 1 -1.25135324682468 -6.01439071227123  2.68324227712771
 1  2.61283058715872 -1.74926676257626 -1.70739470447045
 1  2.33735121272127  0.05750002960296 -1.99955310751075
 1  4.31906281188119 -0.99684189938994  0.24997821382138
 1  4.07074603810381  1.07141585198520 -2.99010738043804
 1  5.71919733143314  1.90039029792979 -2.11224769296930
 1  5.88575588318832  0.41718282578258 -3.00445917691769
 1  6.65263732663266  1.50847484748475 -0.09365672287229
 1  6.28422254165417  0.16479844244424  0.73107282398240
 1  7.38408579327933 -1.12310154535454 -1.16873819741974
 1  7.72055449134913  0.35938914701470 -2.00456337993799
 1  8.97849990159016  0.88591647664766  0.18567619981998
 1  8.65033352205221 -0.70616612281228  0.70186805050505
 1  10.26687423882388 -0.12569003130313 -1.81928681818182
 1  9.48484346984698 -2.20562853935393 -1.95512143694369
 1  11.08489104480448 -2.46332311621162 -1.53079732363236
 1  9.98636152215222 -2.72813475547555 -0.24943438313831
 1  11.17946562746275  0.78210044024402  0.23777526502650
 1  11.36755980938094 -0.67883384468447  0.98835945754575
 1  12.98196151505151 -1.58500666186619 -0.82388005560556
 1  12.87152090459046  0.00505119611961 -1.59084244554455
 1  13.89167060376038  0.97005956195620  0.72461980498050
 1  14.10033278637864 -0.47959756445645  1.00857737423742
 1  15.17779106760676  0.35047453245325 -1.33851820982098
 1  15.49563700660066 -2.14791508360836 -0.00965241914191
 1  14.91088413911391 -1.87907028262826 -1.83253066816682
 1  16.69410904030403 -1.60350587548755 -1.33162463196320
 1  16.15030023072307  1.32407024072407  1.26831337563756
 1  16.67987243444344 -0.30246942204220  1.33054581578158
 1  18.17069800850085 -0.46642318971897 -0.23435677607761
 1  17.72832989748975  0.99016633553355 -1.13351692749275
 1  18.41983277587759  2.35512967066707  0.83567157245725
 1  18.75214237453746  1.00373455445545  1.81465146544654
 1  20.49314422712271  0.17971411961196  0.06705376937694
 1  20.09745385198520  3.00725428732873 -1.19256284968497
 1  21.46947119921992  1.85268192099210 -1.48144950825082
 1  19.86457036143614  1.80218202900290 -2.14093106210621
 1  20.88739471467147  1.46196430553055  2.12636225342534
 1  22.22020372667266  1.82972420212021  1.02512747904790
 1  21.05909563946395  2.96606668996900  1.35942638313831
=======
12 -7.18641921492149  0.54185293339334  0.25856354375438
 6 -4.88378299629963 -1.97354853325333  0.57246377907791
 6 -4.69702963186319  2.81263971127113  0.99422578747875
 6 -9.38559329482948  3.20458595409541 -0.33577643734373
 6 -9.55137545124512 -1.63293880488049 -0.95981241034103
 7 -5.08276170077008  0.42790260836084  0.75231564986499
 6 -4.33248295439544 -0.69541936393639  0.91154917811781
 6 -2.93625263066307 -0.39360878657866  1.20869122332233
 6 -3.00547398579858  1.15378804710471  1.61263199389939
 6 -4.33430042494249  1.49428017681768  1.03866089598960
 6 -2.94024910701070  1.31138342644264  3.11102251115112
 6 -1.97068052905291 -0.62281754315432  0.01698565686569
 6 -0.46241366396640 -0.51099544674467  0.46729085838584
 6  0.48989012621262 -0.82502601550155 -0.63596897739774
 8  0.24960620072007 -1.12849825742574 -1.79331566326633
 8  1.77963977447745 -0.68801619801980 -0.18484527342734
 7 -7.12881332923292  2.60652624242424  0.34317301280128
 6 -6.03356263526353  3.36664764056406  0.71353488708871
 6 -6.42223947704770  4.84240853025303  0.68602929012901
 6 -7.73867657465747  4.81657228872887  0.33505189648965
 6 -8.16547081868187  3.47401659695970  0.07597014331433
 6 -5.51222917961796  5.85512797869787  1.09190395089509
 6 -8.57558535613561  6.01100213391339  0.22045903130313
 6 -8.40416430773077  7.17218333693369  0.85190143994399
 7 -9.07539981258126  0.74378723982398 -0.60249428312831
 6 -9.88318457815781  1.86311626472647 -0.63290961506151
 6 -11.12172126872687  1.52435077417742 -1.22239395889589
 6 -11.23663606750675  0.18860422452245 -1.36457517151715
 6 -9.97984366506651 -0.29279125342534 -0.95208022412241
 6 -12.33159198289829  2.50545111611161 -1.52313908870887
 6 -12.28502304860486 -0.73685109520952 -1.88157896639664
 6 -12.35532302070207 -0.93364577577758 -3.37550266886689
 7 -7.26140560886089 -1.39485909950995 -0.09264394139414
 6 -8.32247248704870 -2.14862003410341 -0.46395135033503
 6 -7.80233637923792 -3.59774804230423 -0.48915619291929
 6 -6.50289417351735 -3.62541687868787 -0.10631236313631
 6 -6.21691428782878 -2.19416769806981  0.11876468066807
 6 -8.79404687208721 -4.72707554995500 -0.80712919131913
 6 -5.32078654895490 -4.39161304480448  0.18713158575858
 8 -5.22459129702970 -5.62065654905490  0.28614564526453
 6 -4.20048362776278 -3.33310910071007  0.53254311961196
 6 -3.49075970687069 -3.76924214551455  1.94022439533953
 8 -3.65882748334833 -3.18046478267827  3.00793347444744
 8 -2.68722991669167 -4.80954567696770  1.70916949784978
 6 -2.02976356425643 -5.27044127322732  2.86093102860286
 6  2.83369588128813 -0.84986278087809 -1.13609480988099
 6  4.10927301630163 -0.55571374767477 -0.44014416341634
 6  5.05233871827183  0.28757502290229 -0.88792856555656
 6  5.07468589158916  1.10758340764076 -2.05464963026303
 6  6.27942227502750  0.45045689588959 -0.00663714891489
 6  7.58159569746975 -0.04968531543154 -0.80261721222122
 6  8.94257613021302 -0.13025815621562  0.02467065426543
 6  10.27373799829983 -0.66307337903790 -0.67562853335334
 6  10.05223192339234 -2.08872980908091 -1.06078954395440
 6  11.49491236813681 -0.32027580838084  0.17211808040804
 6  12.81760666836684 -0.46538058915892 -0.68001802470247
 6  14.00201967036704 -0.10758196099610  0.22598966646665
 6  15.36832295719572 -0.14389811891189 -0.46390463026303
 6  15.63642531143114 -1.55447308110811 -1.03508312601260
 6  16.37340144604460  0.48820318031803  0.43115762296230
 6  17.77443203260326  0.56875827422742 -0.34583039763976
 6  18.77671804130413  1.35743396039604  0.52890332333233
 6  20.19120778997900  1.36802713621362  0.08889365256526
 6  20.37952930673067  2.29578787598760 -1.19709070177018
 6  21.15742667346735  1.95966890319032  1.21213657705771
 1 -3.89910139463946  3.68100362176218  1.10957554445445
 1 -10.21130152285228  4.00556139113911 -0.45263065456546
 1 -10.37693098249825 -2.29155849664966 -1.33551020322032
 1 -2.58262471937194 -0.87993630753075  2.10435112631263
 1 -2.17508111331133  1.72859644224423  1.13991464186419
 1 -1.90761521902190  0.97723817671767  3.49688340184018
 1 -3.19122418241824  2.31046510401040  3.45125729112911
 1 -3.61639508220822  0.59065374937494  3.74993740654065
 1 -2.03495598049805 -1.58408836923692 -0.43335724492449
 1 -2.06083775627563  0.24067131753175 -0.66616665626563
 1 -0.18525204260426  0.37540215411541  1.05942634173417
 1 -0.21458926092609 -1.35249976517652  1.31560551575157
 1 -5.69705848124813  6.81734037813781  0.56732244144414
 1 -5.37812480188019  6.21783514661466  2.12982928002800
 1 -4.51871582758276  5.61938310471047  0.91553472907291
 1 -9.37894994749475  5.86927307540754 -0.55232546074607
 1 -8.98585980188019  8.19878061696170  0.53875349714972
 1 -7.52615208100810  7.47378377787779  1.50581896739674
 1 -12.25768987408741  3.04271459745975 -2.46467947264726
 1 -13.36257592679268  1.78642253345335 -1.68219941144114
 1 -12.67880961206121  3.15382403710371 -0.81329257325733
 1 -12.10937571597160 -1.75047449254926 -1.43475843074307
 1 -13.23083180208021 -0.39512624942494 -1.50429595709571
 1 -13.07171352395240 -1.62528721492149 -3.76008589308931
 1 -12.45162872707271 -0.06402093969397 -3.80110360606061
 1 -11.49044532383238 -1.39513438053805 -3.72236085608561
 1 -9.36188579157916 -4.68634937783778 -1.81176444054405
 1 -8.18204756955696 -5.72411241544154 -1.06029564256426
 1 -9.45014489938994 -4.89942496379638  0.28169634703470
 1 -3.49953064896490 -3.40710396109611 -0.16383165466547
 1 -1.56094426092609 -4.44538097779778  3.34024693999400
 1 -2.64397400600060 -5.67402902050205  3.59400223912391
 1 -1.23399151065107 -6.10597987118712  2.41448540144014
 1  2.63503280738074 -1.84988682458246 -1.70398436343634
 1  2.48868634623462  0.07969224882488 -1.88630178237824
 1  4.31716262186219 -1.05003721892189  0.46106932293229
 1  4.04246320982098  1.48055676607661 -2.43663203290329
 1  5.71635704740474  2.19031929082908 -1.92737920612061
 1  5.47720502810281  0.17764887238724 -2.93561229222922
 1  6.54338640154015  1.51045504550455  0.40559320212021
 1  6.05292941234123 -0.29786782418242  0.84055377207721
 1  7.33508089278928 -0.87873710891089 -1.10302162576258
 1  7.89243167906791  0.51693490159016 -1.60659358295830
 1  9.03346539813981  0.90906879187919  0.40554818701870
 1  8.70143863256326 -0.87567307350735  0.90004786848685
 1  10.24794234563456 -0.02404986728673 -1.56958184768477
 1  9.17020200570057 -2.30787876437644 -1.71773769856986
 1  10.86480903660366 -2.40711749564957 -1.73987823172317
 1  10.06984987098710 -2.66813875587559 -0.21281072077208
 1  11.38625630653065  0.77838006820682  0.44856634413441
 1  11.56242929632963 -0.83397935923592  1.17804842644264
 1  12.92504582348235 -1.42974113531353 -1.13695136273627
 1  12.85963971647165  0.29981067206721 -1.50348370967097
 1  13.72165360206021  0.96014857085709  0.47052439543954
 1  14.09902265536554 -0.70136974167417  1.12419893639364
 1  15.06061935043504  0.38790827582758 -1.25326968496850
 1  15.90815825872587 -2.27609790189019 -0.20572202610261
 1  14.79775282598260 -1.86246862246225 -1.70814822992299
 1  16.56503613301330 -1.85677120202020 -1.56884835433543
 1  16.08352355305530  1.64000183388339  0.65021156545655
 1  16.54658910611061  0.17525835073507  1.47953071427143
 1  18.24757569626963 -0.56627317471747 -0.60568390879088
 1  17.54621168566857  0.94520183908391 -1.35613918971897
 1  18.49275006760676  2.32572673037304  0.62394039933993
 1  18.93708086838684  1.05607978897890  1.45872587288729
 1  20.48794370707071  0.25913206140614 -0.27077001300130
 1  20.32005611221122  3.46041960386039 -0.78229182258226
 1  21.57273152525253  2.23319997279728 -1.52048341164116
 1  19.78875277967797  1.95302711351135 -1.93815078407841
 1  21.15822179737974  1.39649775887589  2.08836845404540
 1  22.29830153645364  2.15255648534854  0.80698566486649
 1  21.01118084798480  3.10197028032803  1.40523096359636
>>>>>>> 8e03b5b5abfc0030b3aa597dc0de36371bfbd096

