%nproc=4
%Mem=2GB
# td=(NStates=1) CAM-B3LYP/6-31G(d,p) 

TD

0 1
12 -7.18979955295530  0.61303005110511  0.15584327172717
 6 -4.86188080608061 -1.94489566796680  0.44795132783278
 6 -4.92718264716472  2.90298874617462  1.15986235113511
 6 -9.38453318881888  3.10886638213821 -0.50547340704070
 6 -9.46813712741274 -1.84424993599360 -0.82106853595360
 7 -5.15629905450545  0.49589940804080  0.83437385568557
 6 -4.32828253435344 -0.68119794179418  0.87140516371637
 6 -2.92800180558056 -0.28315774147415  1.20571092529253
 6 -3.11622506090609  1.15223789208921  1.64290502120212
 6 -4.50917791269127  1.52789353815382  1.19896692659266
 6 -2.93046812891289  1.31740402850285  3.24029543844384
 6 -1.97065052605261 -0.52606786818682  0.03403736203620
 6 -0.52999042164216 -0.44117846504650  0.45671980128013
 6  0.52423356055606 -0.61533504640464 -0.65212059255926
 8  0.29605084518452 -1.09433484108411 -1.80687701940194
 8  1.74967677817782 -0.36006340274027 -0.19066585548555
 7 -7.18830927882788  2.61990758055806  0.29958865436544
 6 -6.09701898089809  3.36222719851985  0.75925945954595
 6 -6.45426267936794  4.77345163456346  0.70143083028303
 6 -7.78219092609261  4.89919055055506  0.38303669496950
 6 -8.15724999659966  3.55182437773777  0.01816436273627
 6 -5.51416937363736  5.80524299019902  1.12715747624762
 6 -8.67630542814281  6.08157919161916  0.24752173757376
 6 -8.72434632593259  7.11922804140414  1.01325757555756
 7 -9.04718699129913  0.64752761386139 -0.56859089278928
 6 -9.80700696039604  1.73939389248925 -0.71199752385239
 6 -11.14193328992899  1.46078441754175 -1.23594531403140
 6 -11.21448385228523  0.04894025812581 -1.29069778377838
 6 -9.86415209590959 -0.46443841814181 -0.96713172927293
 6 -12.30920974467447  2.35260583158316 -1.49585636043604
 6 -12.35494004030403 -0.89212662276228 -1.81352216071607
 6 -12.23899138753875 -1.27676008720872 -3.15960107870787
 7 -7.16485595389539 -1.33938355195520 -0.15671034803480
 6 -8.13134337413741 -2.17578275037504 -0.53006796199620
 6 -7.75794193979398 -3.67107537503750 -0.39173645094509
 6 -6.48216210031003 -3.54660899789979 -0.10983271517152
 6 -6.10370296669667 -2.13289157045705  0.06877968216822
 6 -8.57676514391439 -4.93813665606561 -0.69934841324132
 6 -5.30030450075007 -4.35235911941194  0.29369224182418
 8 -5.11199003690369 -5.54220870427043  0.14734176487649
 6 -4.07311089048905 -3.30653644344434  0.56930679597960
 6 -3.41738236913691 -3.65320054135414  1.85739611251125
 8 -3.63648524912491 -3.09318605480548  3.01330401150115
 8 -2.67448864256426 -4.74472919531953  1.78569715061506
 6 -2.14974556245625 -5.33171740084008  3.05232016751675
 6  2.75533804550455 -0.63035082968297 -1.25820702110211
 6  4.13530561956196 -0.30963914021402 -0.54768491749175
 6  5.10741422582258  0.45139140454045 -1.00965073777378
 6  5.05093351635163  1.15468811811181 -2.31804596989699
 6  6.41924625742574  0.59081093129313 -0.19636612181218
 6  7.61161869976998 -0.02934328122812 -0.95621257175718
 6  8.85906777937794  0.03833870347035 -0.08108992179218
 6  10.23885450995100 -0.49680675237524 -0.85930690119012
 6  10.19746644684468 -1.92317325342534 -1.33292675767577
 6  11.46914979187919 -0.10176395719572 -0.10116924832483
 6  12.76937184488449 -0.40956500760076 -0.79061908480848
 6  13.91942141054105  0.14745354255426  0.17309437693769
 6  15.15939206410641 -0.25636936603660 -0.55507374717472
 6  15.50578224712471 -1.71835946974697 -0.92160177787779
 6  16.43776788268827  0.40880524052405  0.29827433463346
 6  17.89907449684969  0.24033543194319 -0.22495831043104
 6  18.78546891639164  1.01364958195820  0.70418085108511
 6  20.22701137033703  1.17040737423742  0.36110087328733
 6  20.53060441424142  1.95286358355836 -0.95594658735874
 6  21.13243417421742  1.79105204150415  1.36762212561256
 1 -4.26142762726273  3.71346686808681  1.42861744864486
 1 -10.26370676337634  3.92153298829883 -0.50641603310331
 1 -10.20389367876788 -2.55010435123512 -0.97619427162716
 1 -2.38461491839184 -0.83097141104110  2.09757044824482
 1 -2.56109971517152  2.04056763936394  1.10419106950695
 1 -2.12702716021602  0.88847930083008  3.88940265376538
 1 -3.05058011801180  2.30396445394539  3.56910907630763
 1 -3.78520196289629  0.84469915391539  3.69609202200220
 1 -2.18666115101510 -1.60413037343734 -0.25770968016802
 1 -2.25801747424742  0.13487073747375 -0.74401444104410
 1 -0.17895141254125  0.57659227312731  0.91755215431543
 1 -0.27889569156916 -1.10572508770877  1.10269422462246
 1 -5.83760253565357  6.92790143424342  0.75781149034903
 1 -5.44082107150715  5.84050741384138  2.21114741184118
 1 -4.48946290229023  5.70230139653965  0.85099827542754
 1 -9.54859691219122  6.05292144024402 -0.44917514571457
 1 -9.49865108100810  7.90253099199920  0.94533415521552
 1 -7.83132259805981  7.19280568006801  1.84932331783178
 1 -11.90410451555156  3.30237056305631 -2.04375738043804
 1 -13.10562023122312  1.88068195939594 -2.11627281878188
 1 -12.74824655575558  3.09166782148215 -0.63221446544654
 1 -12.40688546694670 -1.73861330643064 -1.10765572047205
 1 -13.07875659455946 -0.28252498929893 -1.44600012751275
 1 -13.24883123572357 -2.05766045224522 -3.39779966446645
 1 -12.51550511471147 -0.42002654025403 -3.76238973467347
 1 -11.32383866316632 -1.83282814991499 -3.53035165516552
 1 -8.97453705670567 -4.91475221812181 -1.74786805090509
 1 -7.96773613841384 -5.86279628382838 -0.69388900190019
 1 -9.36962684758476 -4.97927294859486  0.03682185958596
 1 -3.16112680858086 -3.21589484018402 -0.30266553805381
 1 -1.79520768726873 -4.50583702340234  3.61789470477048
 1 -3.07339694829483 -5.73698531613161  3.65971881078108
 1 -1.59898801030103 -5.97229650285029  2.56336028892889
 1  2.84522382648265 -1.63113494939494 -1.55337930293029
 1  2.59346682428243  0.08095237483748 -1.98038119031903
 1  4.40101100670067 -1.05942815801580  0.19164238023802
 1  4.04263322682268  1.28846755715572 -2.96023439313931
 1  5.55804121582158  2.13586384528453 -2.45885235343534
 1  5.76121342894289  0.62758386588659 -3.09908863986399
 1  6.78825088798880  1.54967896789679  0.04496713951395
 1  6.23992811221122  0.09166112871287  0.64937465416542
 1  7.32767015171517 -1.08659789498950 -1.11234255785579
 1  7.83580601650165  0.39788299639964 -1.95270819441944
 1  9.10965301690169  1.13936182118212  0.28669630183018
 1  8.78208669736974 -0.56547205340534  0.69836770047005
 1  10.27281483288329  0.07743028072807 -1.77189207870787
 1  9.36301128662866 -2.35630360686069 -1.94310023482348
 1  11.15938849454946 -2.10024680858086 -1.89430367426743
 1  10.27099998599860 -2.60661260326033 -0.61816125582558
 1  11.42881056195620  1.00646287648765  0.17757924542454
 1  11.46901995539554 -0.72698866016602  0.84790541214121
 1  12.87367068596860 -1.54882304350435 -0.86218388598860
 1  12.89325307780778  0.00622131313131 -1.67830119141914
 1  13.73064450115012  1.10601315731573  0.41932927592759
 1  13.90752350545055 -0.56056566126613  1.14038055455546
 1  15.38492178067807  0.42912239723972 -1.49411376937694
 1  15.51489893279328 -2.19073936603660  0.07930647674768
 1  14.58250130083008 -2.15771814741474 -1.59057647274727
 1  16.56482611201120 -1.86600212511251 -1.20238170767077
 1  16.43898909960996  1.55068290199020  0.56842338663866
 1  16.52365681288129  0.08262908780878  1.37573033423342
 1  18.06146708540854 -0.90094664206421 -0.24348768916892
 1  17.79989705420542  0.48900621952195 -1.33379695549555
 1  18.33187397999800  1.94894905260526  1.39234724002400
 1  18.66815397569757  0.50321450245025  1.68137813811381
 1  20.57812272497250  0.20831697989799  0.42514957895790
 1  20.29749385598560  3.01256481838184 -0.87492108550855
 1  21.49417366946695  1.91580823362336 -1.19717108040804
 1  20.07850175457546  1.35156696749675 -1.71502847184718
 1  20.83662963816382  1.30180828992899  2.39314893209321
 1  22.23831553785378  1.72219344904490  1.12282724902490
 1  20.75380511041104  2.87397748104810  1.46458689918992

