%nproc=4
%Mem=2GB
# td=(NStates=1) CAM-B3LYP/6-31G(d,p) 

TD

0 1
<<<<<<< HEAD
12 -7.16574714771477  0.55963471157116 -0.03178549114911
 6 -4.88738335633563 -1.86603778217822  0.45475200790079
 6 -4.82285221412141  2.86463491079108  1.11927829272927
 6 -9.53582831833183  3.05597109260926 -0.30861372107211
 6 -9.53372368606861 -1.87832334333433 -0.86196262536254
 7 -5.11697512211221  0.46943676177618  0.69940035833583
 6 -4.34272397849785 -0.55832565456546  0.67498552175218
 6 -2.88501750715072 -0.32389181488149  1.21967232143214
 6 -3.03268670707071  1.12641530983098  1.67870860156016
 6 -4.40295729062906  1.56081683048305  1.14568159805981
 6 -3.02007708980898  1.14745703380338  3.31921333023302
 6 -1.87207066806681 -0.45089035043504  0.00008396669667
 6 -0.40321774437444 -0.33112745994599  0.46545067436744
 6  0.54159529672967 -0.56041955485549 -0.65217059755976
 8  0.24493573367337 -0.75784119171917 -1.79816614831483
 8  1.79412122262226 -0.38398579497950 -0.16714350325033
 7 -7.16236668456846  2.59136472627263  0.30814951045105
 6 -6.12066134513451  3.39688066386639  0.82720625422542
 6 -6.55006225932593  4.78702299169917  0.78355904310431
 6 -7.84274698169817  4.81300193169317  0.30027841914191
 6 -8.25570984258426  3.43417261256126  0.07585013131313
 6 -5.64728268496850  5.88318078397840  1.15783054355436
 6 -8.71283908150815  5.97538857255726  0.14782176757676
 6 -8.71553544484448  7.16502262086209  0.85196144594459
 7 -9.21030330293029  0.54454731583158 -0.43616765046505
 6 -9.99465572527253  1.70014996809681 -0.66812313641364
 6 -11.31179027562756  1.36601494059406 -1.05328704820482
 6 -11.28746115001500 -0.00916555245525 -1.21147986198620
 6 -9.93731941264126 -0.44647662196220 -0.77850286638664
 6 -12.37534635833583  2.36410698169817 -1.45359213401340
 6 -12.34080862716272 -0.84744215431543 -1.83160396889689
 6 -12.29814730313031 -1.26939935113511 -3.25089020762076
 7 -7.28310777907791 -1.42009162276228 -0.08773345034503
 6 -8.29094933473347 -2.28157332943294 -0.50241519671967
 6 -7.74664080968097 -3.55170343784378 -0.57530480778078
 6 -6.41429531363136 -3.58243258025803 -0.14813654555456
 6 -6.14958755515552 -2.14566284758476  0.09381218541854
 6 -8.53762122952295 -4.83321616401640 -0.85608408680868
 6 -5.31205567586759 -4.27974185768577  0.23189606220622
 8 -5.15205404330433 -5.45328981238124  0.14081111181118
 6 -4.05226880628063 -3.17131292109211  0.53497336263626
 6 -3.48664929582958 -3.66266148744874  1.90099047194719
 8 -3.56477807840784 -2.92409914611461  2.90190287138714
 8 -2.71450264396440 -4.74599932233223  1.66315489638964
 6 -2.21312190009001 -5.06638086718672  2.93878881438144
 6  2.95273778547855 -0.55279307390739 -1.16904810521052
 6  4.18659074807481 -0.40692886918692 -0.40694084308431
 6  5.19977346174617  0.31404767016702 -0.90584035673567
 6  5.04973339633963  1.11930457975798 -2.28802296759676
 6  6.54549888268827  0.48754060426043 -0.26691317651765
 6  7.74038157605761 -0.06923727062706 -0.87174412491249
 6  8.91017288988899 -0.13178830923092  0.07621580878088
 6  10.20047067156716 -0.38515558725873 -0.67223819431943
 6  10.17940464066407 -1.92800373647365 -1.13711717671767
 6  11.47240011691169 -0.25594937573757  0.08739960856086
 6  12.76261116881688 -0.39049310041004 -0.60479050195020
 6  13.98661813021302 -0.13306450925092  0.25328239573957
 6  15.30278640354035 -0.20147387648765 -0.48790703050305
 6  15.59359102800280 -1.74277191099110 -0.94907452515252
 6  16.45304941084109  0.30380474047405  0.48199270647065
 6  17.85455004440444  0.41551294969497 -0.15118093269327
 6  18.82100246974698  1.19693791079108  0.59923035603560
 6  20.31440010921092  1.21020135363536  0.11919668286829
 6  20.47373872767277  1.85504380158016 -1.27395838853885
 6  21.27583851465146  1.72640557685769  1.16700206360636
 1 -4.00303178767877  3.45624114551455  1.46923151005100
 1 -10.44150454315431  3.62110294529453 -0.38206359785979
 1 -10.18318160756075 -2.82531187198720 -1.07826447864787
 1 -2.74386084298430 -0.88025633953395  2.08398909010901
 1 -2.14851845704570  1.83215679827983  1.34956560696070
 1 -1.90943540104010  0.78824927782778  3.50506421992199
 1 -3.14348940894089  2.38318237573757  3.51871403680368
 1 -3.89085252795280  0.69027371137114  3.64923733653365
 1 -1.90571305620562 -1.33458341874187 -0.46307021622162
 1 -2.24898657115712  0.39564681508151 -0.76788682828283
 1 -0.29356287368737  0.50926554045404  1.08603900300030
 1 -0.35430323232323 -1.10628514371437  1.36084003920392
 1 -6.02155093049305  6.82679132323232  0.67861357055706
 1 -5.79418640804080  6.12157552065207  2.13196949404941
 1 -4.53484744074408  5.67704887128713  1.19051222682268
 1 -9.36503855635564  5.99924607270727 -0.75246547474747
 1 -9.19267048294829  8.05077581648165  0.47060668246825
 1 -7.92585205100510  7.30572697219722  1.67333571907191
 1 -11.99992409750975  2.71457178317832 -2.41843484818482
 1 -13.39270894009401  2.08431232243224 -1.41830302180218
 1 -12.54984671577158  3.12417107180718 -0.58153939793979
 1 -12.40321509990999 -1.80162960806081 -1.22810776567657
 1 -13.29872859175918 -0.34908164496450 -1.60207573507351
 1 -13.30007636023602 -1.89756444264426 -3.44921480598060
 1 -12.26425999019902 -0.44434897249725 -3.90520401610161
 1 -11.28736501580158 -1.69171403850385 -3.59546816681668
 1 -8.87324692769277 -4.84055479837984 -1.93071633573357
 1 -7.90489985478548 -5.60385038923892 -0.63004261726173
 1 -9.43536342124212 -5.01457647894789 -0.17190901350135
 1 -3.41375207110711 -3.34719797049705 -0.21947721922192
 1 -1.41136930343034 -4.32958939863986  3.42243515881588
 1 -3.02232184078408 -5.27104872247225  3.60307314621462
 1 -1.52124023552355 -5.91944121732173  2.70579453235324
 1  2.80399970407041 -1.66446828272827 -1.54441840684068
 1  2.66712419001900 -0.05568128852885 -1.96795994819482
 1  4.19835074067407 -0.91347356255626  0.49289250525052
 1  4.10817978147815  1.06031474187419 -2.74800317001700
 1  5.36392180388039  2.21981224012401 -2.07121358955896
 1  5.69519682728273  0.63279438693869 -3.12337106810681
 1  6.66939900280028  1.47290129012901  0.02479512231223
 1  6.35931005040504  0.18591055365537  0.86583630033003
 1  7.59888727342734 -0.95238447364736 -1.22684400800080
 1  8.00761319721972  0.52857606570657 -1.80185310891089
 1  8.92553460506051  0.88942682768277  0.68219585178518
 1  8.72236072477248 -0.96816232243224  0.77551541524152
 1  10.47721527292729  0.20345288298830 -1.52580747024702
 1  9.35894087958796 -2.08904688118812 -1.80244616941694
 1  11.04527708340834 -2.40749753365337 -1.74327857175718
 1  9.90878376437644 -2.59509145114512 -0.13742318201820
 1  11.45343302420242  0.74572680288029  0.36832832033203
 1  11.52041509490949 -0.89744570587059  0.96868749034904
 1  12.77526084498450 -1.40783894509451 -0.99370703830383
 1  12.73255700820082  0.29238992999300 -1.56629999129913
 1  13.62808424512451  0.87270982698270  0.56573391639164
 1  13.84600735383538 -0.82195179987999  1.37948446494649
 1  15.35178846734673  0.45041452645265 -1.26541089908991
 1  15.73446088898890 -2.23815410751075 -0.01987344124412
 1  14.80099315001500 -2.12017439303930 -1.52216963206321
 1  16.58798842824283 -1.91922744764476 -1.47816928642864
 1  16.19579478017802  1.34919275297530  0.90047659195920
 1  16.69273372057206 -0.33336251135114  1.42635539673967
 1  18.37803874257426 -0.57030357775778 -0.31035437583758
 1  17.78519558405841  0.93266058495850 -1.20823439923992
 1  18.47005779837984  2.17711186888689  0.71350935623562
 1  19.01528868916892  0.95969015001500  1.62081208150815
 1  20.56448136083608  0.11679782798280 -0.02377531353135
 1  20.39345345194519  2.92415597749775 -1.14481807520752
 1  21.45630988308831  1.63960061286129 -1.62517388068807
 1  19.73737764216422  1.64484629542954 -2.05664263326333
 1  21.17600357555756  1.23646175527553  2.26135575277528
 1  22.29774148044804  1.66703793349335  0.77349231553155
 1  21.11430116001601  2.77711779507951  1.21052149264926
=======
12 -7.04275484848485  0.62058080618062 -0.01314362696270
 6 -4.85080969896990 -1.99186036443644  0.53729026172617
 6 -4.82906283518352  2.80003845114511  1.06120248514851
 6 -9.44771950745075  3.06930242574257 -0.54430729042904
 6 -9.49887020072007 -1.69032454345435 -0.91908833793379
 7 -5.02104552915292  0.44095391349135  0.71922234053405
 6 -4.27070677677768 -0.74340416241624  0.82561058425843
 6 -2.87986699209921 -0.37392681838184  1.20875122932293
 6 -3.00614405280528  1.01254392269227  1.65170590129013
 6 -4.30689768466847  1.43453420222022  1.08379540944094
 6 -3.04050913301330  1.27031932003200  3.11844325322532
 6 -1.88976243724372 -0.71588685008501  0.17826178447845
 6 -0.45330275287529 -0.52830717791779  0.56874100340034
 6  0.43134427162716 -0.71281479437944 -0.53472885338534
 8  0.23605484558456 -1.11815722332233 -1.60978731043104
 8  1.75796760726073 -0.51734913131313 -0.07443423232323
 7 -7.07311775967597  2.53972956275628  0.38901759725973
 6 -6.07393667266727  3.25183615941594  0.83128666226623
 6 -6.45723297639764  4.76757104650465  0.80798148534853
 6 -7.75102780978098  4.80636126762676  0.31721011231123
 6 -8.12351662326233  3.41996119141914  0.00459300560056
 6 -5.48354631133113  5.89438190409041  1.24354911541154
 6 -8.67032483008301  5.90315134883488  0.20300728612861
 6 -8.62431632293229  7.21525764436444  0.80699694949495
 7 -9.06205847844785  0.70472333343334 -0.80363439713971
 6 -9.89512577227723  1.82467242034203 -0.77374369846985
 6 -11.11634073067307  1.46130446954695 -1.17641936143614
 6 -11.24370677457746  0.07119248334833 -1.24283299729973
 6 -9.87288296899690 -0.38610058435844 -0.97001201730173
 6 -12.37630645434543  2.43521409240924 -1.42199897469747
 6 -12.43574812111211 -0.75568297839784 -1.64076488498850
 6 -12.53602109050905 -0.97288970017002 -3.29693481208121
 7 -7.17123659195920 -1.44371398499850 -0.18133281028103
 6 -8.18360860066007 -2.21805697779778 -0.58553350855085
 6 -7.78964511011101 -3.53281154865487 -0.60082736003600
 6 -6.44002788688869 -3.60464480148015 -0.15651738363836
 6 -6.12019461586159 -2.22118039933993  0.10718352255226
 6 -8.72661012841284 -4.82875571797180 -0.84991346974697
 6 -5.23197766806681 -4.31601548504850  0.23376624922492
 8 -5.12443128102810 -5.49156363976398  0.30916794749475
 6 -4.15947952735273 -3.33474926472647  0.59104897019702
 6 -3.46192682358236 -3.64575979727973  1.84094446734673
 8 -3.72775437603760 -3.11465820202020  2.95049773087309
 8 -2.61134232793279 -4.65539026142614  1.82739132003200
 6 -2.26690727862786 -5.22548677777778  3.14037897339734
 6  2.75202771447145 -0.82746054065407 -1.15138633903390
 6  4.06343843284328 -0.47979615591559 -0.58364851385139
 6  5.03900738513851  0.34389065446545 -1.02701247394739
 6  5.00394881788179  1.42330497979798 -2.12680684598460
 6  6.34404873767377  0.50497234743474 -0.19436592179218
 6  7.60817835573557 -0.07062740964096 -0.83754070457046
 6  8.85018689128913  0.03541841144114  0.01187937513751
 6  10.15748637313731 -0.44143121482148 -0.73144411491149
 6  10.13184988518852 -1.89992092819282 -1.06972043704370
 6  11.36290916781678 -0.03548732953295  0.05443631223122
 6  12.65215012271227 -0.36279033013301 -0.65606562946295
 6  13.92269173757376  0.02622141934193  0.13679074657466
 6  15.33600972587259 -0.15935966506651 -0.61959019881988
 6  15.68144981388139 -1.61379901370137 -0.93236285398540
 6  16.46783088898890  0.37977233723372  0.35722022922292
 6  17.79915450485048  0.53542494089409 -0.28334414901490
 6  18.86211658115812  1.10336855385539  0.61233166616662
 6  20.36755542474247  1.18246858035804  0.14854961816182
 6  20.39337069086909  2.11439973717372 -1.13269426212621
 6  21.31549248004801  1.61134407070707  1.26579194259426
 1 -3.88475996049605  3.45981150255025  1.31092567946795
 1 -10.06139653235324  4.10382121712171 -0.51468686018602
 1 -10.13797708710871 -2.43655299609961 -1.07107375957596
 1 -2.59692614951495 -0.98124643854385  2.18805949714971
 1 -2.05463906910691  1.59907348994899  1.33727437783778
 1 -2.37545200270027  1.04000445334533  3.71764547804780
 1 -3.18349340934093  2.46639069656966  3.40755292069207
 1 -3.75619906260626  0.60615529952995  3.58739115191519
 1 -1.80239272417242 -1.74545450585059 -0.39702361156116
 1 -2.18797046954695 -0.19557230683068 -0.83290332993299
 1 -0.23040655805581  0.41853646754675  0.85423582268227
 1 -0.02156995899590 -1.04898941414141  1.34454841004100
 1 -5.69456823222322  6.95047369146915  1.24914062326233
 1 -5.32210920032003  5.96581994509451  2.43204950205021
 1 -4.37470142614261  5.60912207860786  1.02306548214821
 1 -9.37784983748375  5.70528667676768 -0.45218544674467
 1 -9.22045326122612  7.92862360126013  0.26861648344834
 1 -7.88374784058406  7.48549494899490  1.44671305680568
 1 -12.27932203730373  3.04839516551655 -2.38401140584058
 1 -13.39092876207621  1.94395828702870 -1.66345753725373
 1 -12.50341207230723  3.10595925062506 -0.49074031803180
 1 -12.26520129852985 -1.74848429352935 -1.26343129802980
 1 -13.32857157605761 -0.30747748454846 -1.09279480698070
 1 -13.37085343794380 -1.68877356355636 -3.45829571407141
 1 -12.87666123032303  0.03357882028203 -3.92969646534653
 1 -11.66166244554456 -1.38018288538854 -3.69039765976598
 1 -8.87554715771577 -4.96821756465647 -1.95073833793379
 1 -8.26686605140514 -5.87088709290929 -0.54532414541454
 1 -9.69367925282528 -4.96747176847685 -0.47334915751575
 1 -3.61658235413541 -3.63605685638564 -0.37113238473847
 1 -1.61329949644965 -4.41165760546055  3.58838175347535
 1 -3.14137374597460 -5.37452907050705  3.84879771867187
 1 -1.72530064156416 -6.12656192939294  2.83929788268827
 1  2.56805610971097 -1.85918775467547 -1.49323328832883
 1  2.53738121572157 -0.13957967836784 -2.04828798099810
 1  4.33004390999100 -1.12974518971897  0.19830304630463
 1  4.04055301880188  1.54480319071907 -2.74500286998700
 1  5.17833324502450  2.46333659255926 -1.80805727392739
 1  5.80426773437344  1.23275438293829 -2.84197292829283
 1  6.63152521542154  1.64079807980798 -0.02389974717472
 1  5.96325044444445  0.17163912651265  0.84162387908791
 1  7.48172555725573 -1.04733396859686 -1.34673599719972
 1  7.69539197509751  0.77361056915692 -1.60924384798480
 1  9.01111316291629  1.14850273527353  0.30352798499850
 1  8.84748323702370 -0.61076658285829  0.82362022572257
 1  10.20510806220622  0.17918045574557 -1.68103299279928
 1  9.14396938243824 -2.03521149764976 -1.60485641044104
 1  10.92367492319232 -2.19911669556956 -1.63879812371237
 1  10.10619350535054 -2.71546348834883 -0.33894333403340
 1  11.57188486938694  0.90531276147615  0.39591107860786
 1  11.61143419681968 -0.75850181148115  0.94286490809081
 1  12.61975529442944 -1.42456061726173 -0.83538120572057
 1  12.83442719521952  0.31186187718772 -1.45113847514752
 1  13.81419285598560  0.98909146514652  0.44994233723372
 1  14.00378313141314 -0.72920252495250  1.01781829832983
 1  15.12683597209721  0.35161464646465 -1.56517087508751
 1  15.85461290419042 -2.28871916401640 -0.09467092099210
 1  14.89752280298030 -1.96221859745975 -1.44919233433343
 1  16.57941757115712 -1.55559108400840 -1.58643011251125
 1  16.25424062476248  1.35170300400040  0.81656820112011
 1  16.47959240644064 -0.33870304540454  1.18455121632163
 1  18.05309624832483 -0.36368291569157 -0.82039537993799
 1  17.77620468496850  1.19078639753975 -1.02897647344734
 1  18.64494528712871  2.34649880758076  0.84608261356136
 1  18.72498965926593  0.49475365636564  1.58715871617162
 1  20.55576048874887  0.06838298649865 -0.19153208920892
 1  19.86097020362036  2.81882544444444 -0.82375596899690
 1  21.43339759185919  2.09633628642864 -1.52081344464446
 1  19.94477838223823  1.65692750355036 -2.02716968596860
 1  21.20450642584258  1.03063117221722  2.23889350655066
 1  22.27120882718272  1.59285051475148  0.80751571787179
 1  21.21952168206821  2.65595567886789  1.44047448794880
>>>>>>> 8e03b5b5abfc0030b3aa597dc0de36371bfbd096

