%nproc=4
%Mem=2GB
# td=(NStates=1) CAM-B3LYP/6-31G(d,p) 

TD

0 1
12 -7.17171774477448  0.59702845094509  0.08477616501650
 6 -4.86768138613861 -1.88380955935594  0.49623615631563
 6 -4.74020394929493  2.89343779107911  1.16038240314031
 6 -9.43981871737174  3.07548304380438 -0.24918777847785
 6 -9.45186550025003 -1.73872938393839 -0.82349877897790
 7 -5.00786421102110  0.53350316841684  0.64336475477548
 6 -4.33966367246725 -0.67611743374337  0.81857988118812
 6 -2.82783178857886 -0.33121254695470  1.14941529572957
 6 -2.96202964136414  1.13746641494149  1.66539727042704
 6 -4.41216821172117  1.55023577237724  1.09345637553755
 6 -2.90280536263626  1.31727401550155  3.13500490939094
 6 -1.88625208620862 -0.57193245464546 -0.00752679437944
 6 -0.41325874847485 -0.62951729892989  0.47829195849585
 6  0.51308244544454 -0.74719823272327 -0.61567694819482
 8  0.25831707180718 -1.11868727632763 -1.70848718041804
 8  1.75531734223422 -0.44585198159816 -0.22695948484848
 7 -7.11199164706471  2.58118370817082  0.40456915241524
 6 -6.06349562856286  3.40614158995900  0.81946548014801
 6 -6.49877713081308  4.86578086748675  0.72379306650665
 6 -7.77896060306031  4.84439507100710  0.34532292359236
 6 -8.19153342494250  3.47789698499850  0.15978852515252
 6 -5.53834179087909  5.90852331823182  1.16722148264826
 6 -8.65238303590359  5.97705873957396  0.17836482188219
 6 -8.54032792409241  7.12497861646165  1.00570682048205
 7 -9.07016928952895  0.69071193229323 -0.57288132183218
 6 -9.81387764746475  1.85517547064706 -0.78469479357936
 6 -11.19084818141814  1.46945528462846 -1.19675139463946
 6 -11.15764816871687  0.11064642874287 -1.38583729772977
 6 -9.84867054775478 -0.31320329462946 -0.84501951805181
 6 -12.23267209090909  2.37797836883688 -1.60390716551655
 6 -12.23293784008401 -0.80535794589459 -1.81456226472647
 6 -12.23304079247925 -1.01211362256226 -3.28866398499850
 7 -7.25975544384438 -1.45206482008201 -0.08496317331733
 6 -8.26750699049905 -2.29995516761676 -0.52871782698270
 6 -7.83817996359636 -3.60737900540054 -0.45856313361336
 6 -6.44985886998700 -3.53034737173717 -0.15708744064406
 6 -6.21971456785679 -2.15162344364436  0.08161096529653
 6 -8.61050851825182 -4.92807564996500 -0.78836731513151
 6 -5.37036150645064 -4.34129801330133  0.20852372497250
 8 -5.17816665456546 -5.52195667906791  0.17673470417042
 6 -4.16384996439644 -3.25966175597560  0.59655952125213
 6 -3.50765139603960 -3.57629285058506  2.01488186108611
 8 -3.79635123572357 -2.97207394359436  3.01459414051405
 8 -2.78079927362736 -4.66265098749875  1.85752433333333
 6 -2.28236882478248 -5.24307853695369  3.00541547704770
 6  2.73631614331433 -0.71716951155116 -1.17235843624362
 6  4.06321841084108 -0.50660883718372 -0.55366551555156
 6  5.02330581498150  0.20844711011101 -0.92259203190319
 6  5.05759418241824  1.00034268356836 -2.14867903320332
 6  6.32298663146315  0.24596644684468 -0.26890337553755
 6  7.66097363526353 -0.25239558645865 -0.89097604810481
 6  8.97369924252425 -0.29164429482948 -0.12485429822982
 6  10.20163078757876 -0.66282335403540 -1.00939190969097
 6  10.14517121732173 -2.13239417551755 -1.55360882588259
 6  11.38689156605661 -0.29503328412841 -0.12142127352735
 6  12.79240414811481 -0.50299435053505 -0.73314333723372
 6  13.97594706310631 -0.10365156795680  0.22804987248725
 6  15.34005012991299 -0.17170089918992 -0.38206644644464
 6  15.70515218411841 -1.58531616541654 -0.86501611931193
 6  16.42475658155816  0.39387374737474  0.38503301050105
 6  17.81183577297730  0.65964736313631 -0.25442125672567
 6  18.82601297079708  1.26506472347235  0.75838627162716
 6  20.29705837503750  1.42214254775478  0.22964772797280
 6  20.33565491929193  2.36140443764376 -1.05020601330133
 6  21.02994392519252  1.97152008830883  1.39481484488449
 1 -4.08587007150715  3.80120564196420  1.24735932283228
 1 -10.00221061376138  3.92145298029803 -0.29588497999800
 1 -10.41940522992299 -2.28450779157916 -0.93463011521152
 1 -2.70550700760076 -1.01949026292629  1.92115280648065
 1 -2.28233183838384  1.93121670427043  1.13961461186119
 1 -1.95385984348435  1.17195764866487  3.56731044454445
 1 -3.22476753675368  2.39769382688269  3.45280744614461
 1 -3.63444688738874  0.61817650165017  3.82463487628763
 1 -2.11219370427043 -1.42156211661166 -0.44281819101910
 1 -2.28451012351235  0.32773002340234 -0.50665070467047
 1 -0.16956047344734  0.35500011391139  0.95563596269627
 1 -0.24873267526753 -1.69744425962596  0.98871282648265
 1 -5.69568834423442  6.84189283338334  0.71452716191619
 1 -5.51612860226023  6.05136849994999  2.13140943804380
 1 -4.55195915191519  5.71684285068507  1.12427560316032
 1 -9.40836288878888  5.95156130423042 -0.64100432863286
 1 -8.98626984288429  8.06427716661666  0.58512813461346
 1 -7.69001846764677  7.18340473997400  1.72318070357036
 1 -11.95480958605861  2.95717604360436 -2.56226923162316
 1 -13.20706037523752  1.98949284048405 -1.34443563506351
 1 -12.23258498959896  3.04594324902490 -0.82907415141514
 1 -12.31889666806681 -1.59973941904190 -1.20490544544454
 1 -13.21309002790279 -0.32937967476748 -1.46798232573257
 1 -13.18747510011001 -1.55196988318832 -3.58936882138214
 1 -12.31469503370337  0.20110557295730 -3.57606110181018
 1 -11.17329360866087 -1.46870173727373 -3.60656927692769
 1 -8.89453905690569 -5.02380312321232 -1.77977124122412
 1 -8.10189955475547 -5.88119812401240 -0.51873148614861
 1 -9.55546543144314 -5.02158718001800 -0.14329615221522
 1 -3.44900559645965 -3.32993624432443 -0.17621289278928
 1 -1.80970913741374 -4.46331277097710  3.58973188848885
 1 -3.09935954455446 -5.69496111371137  3.85782862176218
 1 -1.76634474597460 -6.13546281948195  2.75794974787479
 1  2.47147645174517 -1.79741157705771 -1.18947291229123
 1  2.66463394099410 -0.19940566096610 -2.12117526972697
 1  4.24561546714672 -1.23491570677068  0.30830404640464
 1  4.00028899239924  1.05778448884888 -2.51894026372637
 1  5.57950336203620  2.04862512141214 -2.01945841404140
 1  5.58249555715572  0.51598270577058 -2.94576330733073
 1  6.65510757365737  1.26316031603160 -0.02215957315732
 1  6.38275239463946 -0.35372340974097  0.77466718341834
 1  7.61566895159516 -1.35210444564456 -1.32605392899290
 1  7.68396083198320  0.52416562466247 -1.84718764236424
 1  9.24318637023702  0.59133701870187  0.65808344054405
 1  8.90039852855286 -1.01643714991499  0.71963982768277
 1  10.18157570897090 -0.00403786608661 -1.91139602910291
 1  9.22481746724672 -2.60190816731673 -2.05062098689869
 1  10.99925248094810 -2.42623940784078 -2.19874411831183
 1  10.24027691369137 -2.82129407140714 -0.65351479117912
 1  11.24509219011901  0.76672890309031  0.32383387088709
 1  11.57721077447745 -0.97269323062306  0.88394901650165
 1  13.07181049995000 -1.47294545574558 -0.88626629422942
 1  12.82161591409141  0.07279797079708 -1.78000136143614
 1  13.81550298699870  0.99751230723072  0.67231457445745
 1  13.81906465956596 -0.61440104480448  1.15166168266827
 1  15.34611790029003  0.48183766876688 -1.21996635463546
 1  15.83697114001400 -2.21459175127513 -0.04189564346435
 1  14.92606565726573 -2.01304367996800 -1.59379679477948
 1  16.59616924632464 -1.61247677257726 -1.56591806130613
 1  16.07784298499850  1.41912974667467  0.74159070337034
 1  16.43446789398940 -0.33529270437044  1.34915767696770
 1  18.32517345604560 -0.20241678907891 -0.75259860026003
 1  17.86247331183118  1.37062438133813 -1.24122769856986
 1  18.37740853345334  2.23463762146215  0.79307731303130
 1  18.84403156345635  0.70324450545054  1.70300030033003
 1  20.68288320102010  0.40128627682768 -0.13868680468047
 1  20.03335744234423  3.36826038793879 -0.68742233563356
 1  21.25261951405141  2.33984063686369 -1.56224758805881
 1  19.64808871327133  2.05247705850585 -2.05047201620162
 1  21.24771074627463  1.50054816391639  2.38641825902590
 1  21.91124283058306  2.26533776347635  1.03844881118112
 1  20.56739646954696  3.02744282758276  1.94129456995700

