%nproc=4
%Mem=2GB
# td=(NStates=1) CAM-B3LYP/6-31G(d,p) 

TD

0 1
<<<<<<< HEAD
12 -7.08151872487249  0.60540928902890  0.03232091949195
 6 -4.81446606460646 -1.97072825122512  0.50559709240924
 6 -4.80961088998900  2.87509595689569  1.11865823072307
 6 -9.33018775427543  3.09102459795980 -0.30936379607961
 6 -9.57831814551455 -1.78044355535554 -0.97837426652665
 7 -5.08145156975698  0.41515133323332  0.70957137543754
 6 -4.38623832993299 -0.70669049104910  0.79595761896190
 6 -2.99282828822882 -0.42370179587959  1.15377573177318
 6 -3.06586002440244  1.01357402570257  1.68492922362236
 6 -4.37314430933093  1.52063281208121  1.17728475837584
 6 -3.07735281738174  1.17031932003200  3.22214362326233
 6 -1.92206566756676 -0.64533979537954  0.08737269556956
 6 -0.44807222982298 -0.38993334053405  0.43783791309131
 6  0.54656579377938 -0.70531404430443 -0.60800618111811
 8  0.22530377047705 -1.10772618021802 -1.76206253795380
 8  1.70052186268627 -0.37089448584858 -0.20378716761676
 7 -6.99251969986999  2.62008759855986  0.35395409090909
 6 -6.02169144814482  3.28808978477848  0.74532806640664
 6 -6.41749900300030  4.74969925932593  0.64205489268927
 6 -7.72796550355035  4.74447507900790  0.27157554885489
 6 -8.11199547114712  3.39395859115912  0.02154470077008
 6 -5.45425338203820  5.85071753765377  0.98929368986899
 6 -8.49701749934994  5.96395742944294  0.08589557495750
 6 -8.45317920922092  7.11748786738674  0.92254850465047
 7 -9.04027630023002  0.64597745884588 -0.62835686938694
 6 -9.79876613631363  1.79498945204520 -0.70140646474647
 6 -11.21788088468847  1.39460779987999 -1.00593231273127
 6 -11.21030343424342  0.07242260636064 -1.21716043004300
 6 -9.91384706540654 -0.38943091739174 -0.99809482558256
 6 -12.30542936663666  2.48444901590159 -1.20492726752675
 6 -12.36750129642964 -0.74730214031403 -1.66495730423042
 6 -12.33576106450645 -1.19921233243324 -3.08479359795980
 7 -7.25443491179118 -1.38878849244925 -0.14023870087009
 6 -8.27084732453245 -2.21531670377038 -0.56550150535053
 6 -7.77565371097110 -3.64987325482548 -0.49043632093209
 6 -6.55587947204720 -3.57905224222422 -0.06581831373137
 6 -6.13793639003900 -2.22595087638764  0.11198400260026
 6 -8.68409587698770 -4.85613845624562 -0.80439891829183
 6 -5.34136860716072 -4.40970485398540  0.27870074267427
 8 -5.21615045294529 -5.50085456885689  0.26007303800380
 6 -4.08144172357236 -3.27035282508251  0.50602046734673
 6 -3.55821645254525 -3.66167138843884  1.88224859775978
 8 -3.74280588118812 -2.95829256545655  2.92405508660866
 8 -2.73367456115612 -4.64964968736874  1.79262784368437
 6 -2.21875246314631 -5.14702893199320  3.02408734423442
 6  2.78684119581958 -0.50461825642564 -1.13778497889789
 6  4.14727681668167 -0.29518769506951 -0.58830897989799
 6  5.08398188258826  0.51139740514051 -1.01667143984398
 6  5.05462388538854  1.41985463476348 -2.20499466476648
 6  6.47885221802180  0.45778762896290 -0.25924240944094
 6  7.62970050795079 -0.16100644754475 -1.04590154065407
 6  8.89950182278228  0.00071494109411 -0.12633444624462
 6  10.16111673617362 -0.48048512021202 -0.91250222072207
 6  10.10233693389339 -1.99652058815882 -1.28439190419042
 6  11.50434331123112 -0.24419820062006 -0.09489862126213
 6  12.74262917061706 -0.49481353245325 -0.79622964586459
 6  13.97948741714171 -0.31382258505851  0.18372544004400
 6  15.37995412031203 -0.27823155225523 -0.44885312511251
 6  15.72043371227123 -1.65429306310631 -0.87820743844384
 6  16.33337744364437  0.35770013001300  0.54494900210021
 6  17.75249983938394  0.54804620302030 -0.17954376897690
 6  18.76462683218322  1.15792400940094  0.83585401840184
 6  20.18764743394339  1.31445177867787  0.22009677287729
 6  20.33564491829183  2.23395169236924 -0.99866085878588
 6  21.19793072387239  1.81131406770677  1.34021938533853
 1 -4.10819230373037  3.67387290869087  1.29761434833483
 1 -9.97520791349135  4.11255209020902 -0.39009440094009
 1 -10.30473376277628 -2.47756709750975 -1.03508016021602
 1 -2.75227168406841 -1.14522283618362  2.01595228642864
 1 -2.13066667186719  1.57521110371037  1.20306095649565
 1 -2.09249370687069  0.90334078697870  3.56207992149215
 1 -3.31601666166617  2.15357941544154  3.53232539793979
 1 -4.08139158185819  0.61169585358536  3.55355776857686
 1 -1.81477396229623 -1.88989895029503 -0.04488839803980
 1 -2.09861153365336 -0.00037278687869 -0.95487552715271
 1 -0.36761027842784  0.69081369526953  0.70849124822482
 1 -0.01028883088309 -0.91151566676668  1.20844479967997
 1 -5.99396817221722  6.89734837893789  0.80963667286729
 1 -4.99624661406141  5.82364572767277  2.26729302640264
 1 -4.52597655365537  5.50232139853985  0.25012818841884
 1 -9.26541859435944  6.01052720082008 -0.66802703090309
 1 -9.12952416831683  8.00655139403941  0.74158378017802
 1 -7.85818528432843  7.22760916041604  1.83625201070107
 1 -11.80901500660066  3.29479980598060 -1.79323232793279
 1 -13.32122179137914  1.97205109630963 -2.05794698619862
 1 -12.55933766486649  2.82833148784878 -0.16886813081308
 1 -12.40827560596060 -1.72676212131213 -0.95829078397840
 1 -13.26440515941594 -0.41140787758776 -1.67700322782278
 1 -13.11358771137114 -1.91174586078608 -3.06860674517452
 1 -12.46977054125413 -0.45694023162316 -3.93027652335234
 1 -11.37917419671967 -1.81011587868787 -3.34968358835884
 1 -9.13818342134213 -4.82694343724372 -1.71226449054905
 1 -8.01224058885889 -5.94230423462346 -0.85067468046805
 1 -9.39230911581158 -5.08545356665667 -0.03069489208921
 1 -3.29656035193519 -3.51743499419942 -0.25915118661866
 1 -1.84308247474747 -4.33543998369837  3.69446236153615
 1 -2.87814742334233 -5.56169778737874  3.64846768566857
 1 -1.49739785128513 -5.97000627382738  3.01881583448345
 1  2.75714501860186 -1.57472930883088 -1.61045501050105
 1  2.33770124772477  0.08245252485249 -2.21945509770977
 1  4.37277818341834 -0.92311452665267  0.32526574257426
 1  4.16851581508151  1.71995070547055 -2.49426779647965
 1  5.72150756245625  2.20694095299530 -2.04294076227623
 1  5.47993530113011  0.94565567306731 -3.09992872387239
 1  6.85085714861486  1.61365536553655 -0.18861621882188
 1  6.42328644804480  0.05911787438744  0.64925464216422
 1  7.23073045774577 -1.14066330153015 -1.41548287188719
 1  7.54932736863686  0.27167037513751 -2.05813873747375
 1  9.01528357995799  0.85874375937594  0.14526215841584
 1  8.76408489718972 -0.61476698289829  0.65851371507151
 1  10.27244479587959  0.08555109280928 -1.82765765526553
 1  9.20211519701970 -2.41129910641064 -1.78913483828383
 1  11.02498505420542 -2.25663244714471 -1.85111935583558
 1  9.98967185318532 -2.38225016701670 -0.30737017671767
 1  11.33843152405240  0.81950418061806  0.37490897839784
 1  11.12347540094009 -0.91623758505851  0.72072269386939
 1  12.64462778167817 -1.62027018821882 -1.04217188478848
 1  12.93478723122312  0.23077376837684 -1.72968632993299
 1  14.09026046274627  0.59288184418442  0.85385272827283
 1  14.08694144724472 -1.06083568826883  0.96616313281328
 1  15.44260754925492  0.46669615461546 -1.21305566356636
 1  15.60714815771577 -2.28550884298430  0.03368191429143
 1  14.85659871057106 -2.15718809440944 -1.40973838893889
 1  16.70718034743474 -1.78960448534854 -1.21844331383138
 1  15.99068426912691  1.65783361706171  0.48631517581758
 1  16.37884233143314 -0.18486766186619  1.56713947514751
 1  18.27992893159316 -0.41203775117512 -0.54547788818882
 1  17.59530659515952  1.36246356525653 -1.12748632443244
 1  18.42773356595660  2.34821897959796  1.07394539983998
 1  18.92356951725173  0.41663584458446  1.78516851715172
 1  20.29545445814582  0.37030317851785 -0.19622255825583
 1  19.96380048664867  3.25528909080908 -0.76802039543954
 1  21.43521777387739  2.25691234403440 -1.40802216551655
 1  19.79743364776478  1.84852666346635 -1.97807477647765
 1  21.21557753295329  1.07810591969197  2.07831744894489
 1  22.28543024932493  1.70848207790779  1.06722168846885
 1  21.02515224512451  2.76474655795580  1.61634207470747
=======
12 -7.16410698369837  0.59368811691169  0.07084477187719
 6 -4.83411802980298 -1.95297647604760  0.41861839453945
 6 -4.83493342224222  2.82819126642664  1.07164352925293
 6 -9.42054679017902  3.15733122862286 -0.41981484118412
 6 -9.53050336403640 -1.71741725272527 -0.82712914201420
 7 -5.14282770737074  0.40542036013601  0.75419583788379
 6 -4.36362606870687 -0.65178500050005  0.79157718091809
 6 -2.84685369076908 -0.27988741444144  1.16907726192619
 6 -3.01430486888689  1.11748441674167  1.54187491819182
 6 -4.45586258115812  1.55184593339334  1.09202623252325
 6 -2.82593767586759  1.44662695079508  3.00692210111011
 6 -1.98277173817382 -0.63184844624462  0.02834679297930
 6 -0.54383180578058 -0.42169651685169  0.54537866716672
 6  0.49490062726273 -0.76390990389039 -0.48168354885489
 8  0.25271651175118 -1.07705311291129 -1.66778311001100
 8  1.73540535103510 -0.53218061446145 -0.03396018491849
 7 -7.16442689058906  2.67384297409741  0.13315201070107
 6 -6.04323360236024  3.38154913071307  0.68725225882588
 6 -6.41143839693969  4.73743803320332  0.86026671387139
 6 -7.73345605260526  4.85403603510351  0.41172956425643
 6 -8.14699897149715  3.47443663896390  0.03829637593759
 6 -5.45823378007801  5.84652711861186  1.10865562606261
 6 -8.65820361796180  5.96903793749375  0.22088907430743
 6 -8.45824971627163  7.13779989858986  0.94283053285329
 7 -9.15476774937494  0.62056491759176 -0.50731476517652
 6 -9.82805906560656  1.75320527362736 -0.64513083718372
 6 -11.19262835943594  1.40875921502150 -1.07126884638464
 6 -11.31132353625362  0.14428979307931 -1.22050076407641
 6 -9.97764344504450 -0.38142011631163 -0.90026504260426
 6 -12.34905372907291  2.45453602460246 -1.39394616941694
 6 -12.47401194749475 -0.67292470257026 -1.69051986048605
 6 -12.32995048344834 -1.00652306350635 -3.16625174377438
 7 -7.15980544884489 -1.35246486008601 -0.17567224422442
 6 -8.18687892769277 -2.15224039613961 -0.52448740394039
 6 -7.83018916451645 -3.54322258975898 -0.40648792609261
 6 -6.44933881798180 -3.54769910691069 -0.07094882678268
 6 -6.15779837623762 -2.18491677297730  0.03965676987699
 6 -8.68526599399940 -4.76559940234023 -0.70328880728073
 6 -5.27144161446145 -4.29658354185418  0.18795166776678
 8 -5.13995283318332 -5.55291977537754  0.32050908160816
 6 -4.13920750015002 -3.34200999079908  0.51373123842384
 6 -3.50381101200120 -3.64582980428043  1.86074644754475
 8 -3.79671127172717 -3.16415315151515  2.95204788588859
 8 -2.59019021272127 -4.64880960336034  1.62957153805381
 6 -2.12048263616362 -5.24058828792879  2.81759669516952
 6  2.85209772147215 -0.80173796839684 -1.02289348974897
 6  4.16948903790379 -0.61459963626363 -0.41284143314331
 6  5.19039252365237  0.22803906930693 -0.92379215191519
 6  5.09195761876188  0.97088973827383 -2.25827999329933
 6  6.47682201500150  0.27284913511351 -0.17602408760876
 6  7.62348988688869 -0.30967131403140 -0.92574952545255
 6  8.90460233283328 -0.29955508590859 -0.18855066786679
 6  10.16956758125812 -0.55292236393639 -1.00140111061106
 6  10.18637533773377 -2.02663359945995 -1.51369483448345
 6  11.51327420432043 -0.27474125492549 -0.18784791619162
 6  12.81112602030203 -0.55798985008501 -0.78198822172217
 6  13.90914038243824 -0.13286448924892  0.19677674517452
 6  15.37293341824182 -0.25034876397640 -0.48300654045405
 6  15.71682335123512 -1.71656929072907 -0.85677529522952
 6  16.44378848474847  0.38992335233523  0.45495000220022
 6  17.82490708010801  0.77816921532153 -0.14379019361936
 6  18.73023339283928  1.27576579357936  0.86824725772577
 6  20.16606527572757  1.50393072657266  0.30313507670767
 6  20.28199955375538  2.20539883708371 -1.01772276497650
 6  21.08115904670467  2.13859679597960  1.34432979637964
 1 -4.13349483398340  3.59460498189819  1.28076266316632
 1 -10.08442883558356  3.94381521652165 -0.45754114561456
 1 -10.18850213961396 -2.51317065786579 -1.11164781698170
 1 -2.84022047894789 -0.78394670857086  2.17751844304430
 1 -2.27168077327733  1.65974955755576  0.91178182858286
 1 -1.74645910341034  1.34628508140814  3.37931164466447
 1 -2.97660272027203  2.53121717921792  3.12419458485849
 1 -3.42032547524752  0.93269795379538  3.81281369416942
 1 -2.14053653855385 -1.65930589098910 -0.45571948114812
 1 -2.23334500700070 -0.00923367296730 -0.79126916651665
 1 -0.35669918731873  0.72677729162916  0.91750214931493
 1 -0.44673247524753 -1.10512502770277  1.36613056825683
 1 -6.08988776417642  6.81336998109811  0.69155486468647
 1 -5.45503249264926  6.23112647574758  2.17541383848385
 1 -4.38929288528853  5.66528769516952  0.74065724132413
 1 -9.58793084558456  5.73535968406841 -0.34932516071607
 1 -9.17997921382138  8.08309904880488  0.67627724952495
 1 -7.56887635343534  7.29159555905591  1.51841022652265
 1 -11.97445155025503  3.18166849284929 -2.23756676137614
 1 -13.16952662186219  1.73821771297130 -1.76415760726073
 1 -12.46542827392739  3.06988564326433 -0.52333357735774
 1 -12.30315509390939 -1.57939738483848 -1.24830978587859
 1 -13.38805752465247 -0.05133186998700 -1.89495502300230
 1 -13.29447580018002 -1.81560624682468 -3.38919880438044
 1 -12.62146571077108 -0.16456099369937 -3.78047154285429
 1 -11.41234751405141 -1.29808467556756 -3.29194781478148
 1 -9.14897450045005 -4.62858360126013 -1.72249551365137
 1 -8.11534089888989 -5.67296730093009 -0.74326393939394
 1 -9.35884576947695 -4.83764878617862  0.18638681608161
 1 -3.24318501440144 -3.20873412411241 -0.46649192069207
 1 -1.38958712521252 -4.45335177487749  3.29877279257926
 1 -2.96544615321532 -5.53579519711971  3.49330216911691
 1 -1.35627373887389 -6.07428670187019  2.58249220212021
 1  2.71347065116512 -1.75904774067407 -1.55387935293529
 1  2.64149162676268  0.11460574017402 -1.73312646484648
 1  4.39241014661466 -1.11009322452245  0.51530474647465
 1  3.90935989948995  1.00440915131513 -2.47930630033003
 1  5.71759717141714  1.89985024392439 -2.41585805400540
 1  5.66598390599060  0.43228433593359 -3.03198192919292
 1  6.74188625152515  1.28696269626963  0.09205184798480
 1  6.43124724412441 -0.31949998739874  0.70169988668867
 1  7.36219360406041 -1.45259449464946 -1.32963428702870
 1  7.65369780568057 -0.09417620952095 -1.75200812441244
 1  9.04184623622362  0.70600848584858  0.05142277447745
 1  8.85389387808781 -0.95269077527753  0.78661652535254
 1  10.28463601500150  0.26104864256426 -1.87575246474647
 1  9.21527651315131 -2.16648462496250 -2.13156908170817
 1  11.08318087378738 -2.48149493339334 -2.10661490539054
 1  10.20223310931093 -2.50818276027603 -0.65204464416442
 1  11.71012869376938  0.86810904110411  0.06598808630863
 1  11.39650270367037 -0.85434139543954  0.67339796139614
 1  12.87518083698370 -1.64018217941794 -0.94929259685969
 1  12.74449820232023  0.04042473347335 -1.83324668596860
 1  13.92809424612461  0.89178173417342  0.52946028902890
 1  14.07359011211121 -0.72532213691369  0.97721423792379
 1  15.31857514601460  0.43211269626963 -1.42000635863586
 1  15.68206564946495 -2.23652394449445  0.06455500160016
 1  14.98795184588459 -2.22576495209521 -1.54875229032903
 1  16.73307293669367 -1.86244176907691 -1.31792326182618
 1  16.05470067076708  1.30801863556356  0.74707125142514
 1  16.58462290949095 -0.31545072017202  1.24119688088809
 1  18.24820575927593 -0.25119166656666 -0.52357569796980
 1  17.85967303180318  1.54970228912891 -1.15109868566857
 1  18.47973876647665  2.35153931163116  1.10667867316732
 1  18.83457061736174  0.86305048604861  1.72167216751675
 1  20.41069598229823  0.42453860206021  0.31674873887389
 1  19.95458956555655  3.37976153805381 -0.89991358475848
 1  21.27675192729273  2.19088574137414 -1.54614597789779
 1  19.54154805920592  1.87993980478048 -1.76265323432343
 1  20.91210718591859  1.55067317641764  2.30763038023802
 1  21.97384909120912  2.05807703740374  1.20122508880888
 1  20.83877360726073  3.17547763106311  1.70978141864186
>>>>>>> 8e03b5b5abfc0030b3aa597dc0de36371bfbd096

