%nproc=4
%Mem=2GB
# td=(NStates=1) CAM-B3LYP/6-31G(d,p) 

TD

0 1
12 -7.14516508950895  0.58687743584358  0.09036672407241
 6 -4.83993861186119 -1.96181736013601  0.52425895859586
 6 -4.94628455735574  2.85585403270327  1.24686105100510
 6 -9.48283301880188  3.05153064856486 -0.33159601930193
 6 -9.58056837053705 -1.73185869686969 -0.98997542664266
 7 -5.07265068966897  0.51066088418842  0.75493591189119
 6 -4.30451015711571 -0.73815363736374  0.88909693289329
 6 -2.92802180758076 -0.40958038373837  1.27032738693869
 6 -2.98439187758776  1.10212288058806  1.65603633433343
 6 -4.46595359025903  1.54413516231623  1.04443147304730
 6 -2.92832791489149  1.24809709780978  3.19873128202820
 6 -1.93888734973497 -0.51308657005701  0.01483544184418
 6 -0.48027545014501 -0.39134348154815  0.59596372567257
 6  0.58800993819382 -0.70149366226623 -0.38744412491249
 8  0.34455569566957 -0.95674108170817 -1.54860119181918
 8  1.81020283078308 -0.50576797319732  0.03327653875388
 7 -7.22351279917992  2.55056064586459  0.33077177267727
 6 -6.19136841584158  3.35266624242424  0.78008154175418
 6 -6.50267752085208  4.74826911631163  0.74109479667967
 6 -7.73945665266527  4.85936656815682  0.32006039733973
 6 -8.21383565516552  3.47822701800180 -0.02557001070107
 6 -5.49013697039704  5.85946841274127  1.13054781528153
 6 -8.49682748034803  6.06991802550255  0.03623060846085
 6 -8.54549844114412  7.30418653725373  0.64557080688069
 7 -9.13145541814181  0.62120498159816 -0.55832986668667
 6 -9.93517977767777  1.71999195229523 -0.60653697779778
 6 -11.20986008260826  1.39374771387139 -1.12065378487849
 6 -11.20889329322932 -0.00944558045805 -1.28006672067207
 6 -9.97590327102710 -0.42674464876488 -0.98861387748775
 6 -12.30250907460746  2.47253782478248 -1.35417219201920
 6 -12.42332687898790 -0.78091550165017 -1.67787859635964
 6 -12.56925441384139 -0.88815122632263 -3.26002112071207
 7 -7.19253872217222 -1.35001461506151 -0.27188186518652
 6 -8.27023726352635 -2.26794196629663 -0.59001395659566
 6 -7.83726987258726 -3.67624589208921 -0.56202347964796
 6 -6.51669555365537 -3.57865220222022 -0.16824855675568
 6 -6.21907450385038 -2.25559384068407 -0.02836003180318
 6 -8.61311877927793 -5.04282712511251 -0.82402088048805
 6 -5.42060653095310 -4.35747963146315  0.19215208780878
 8 -5.27260609850985 -5.59358384178418  0.06755378607861
 6 -4.21146472587259 -3.31164695449545  0.60297016231623
 6 -3.58181881278128 -3.69199442074207  1.87987836073607
 8 -3.79372097269727 -3.09557629382938  2.88258093919392
 8 -2.63048424212421 -4.71853657605761  1.76449503040304
 6 -2.20379096699670 -5.10425465456546  3.06468140364036
 6  2.85511802350235 -0.58827662226223 -0.97153835423542
 6  4.15379746874688 -0.32502067836784 -0.33340348934893
 6  5.15690917531753  0.39933619901990 -0.77939771247125
 6  5.15048347134713  1.07548019731973 -2.18102226752675
 6  6.56277060986099  0.38653050325033 -0.07333381858186
 6  7.65073261116112 -0.26340668756876 -0.97083403390339
 6  8.99806167876788 -0.10149527992799 -0.24888670147015
 6  10.25176580108011 -0.46851392309231 -0.95648661916192
 6  10.07326402660266 -1.85508644474447 -1.40158362336234
 6  11.49644252115212 -0.24528830963096  0.01980284888489
 6  12.83153806150615 -0.40765481658166 -0.82208223112311
 6  13.96928639703970 -0.02611381418142  0.08549561706171
 6  15.41875800070007 -0.26575030413041 -0.58187642744274
 6  15.66917858675868 -1.65071270507051 -1.02309192689269
 6  16.47652175807581  0.38073243324332  0.36433094029403
 6  17.90781537093709  0.47608900730073 -0.29244505910591
 6  18.86081645114512  1.16230444744474  0.76562699569957
 6  20.33771244044404  1.27633796729673  0.29052381558156
 6  20.40691204500450  2.04726302350235 -1.06052704540454
 6  21.23079401020102  2.08513144944494  1.34361972537254
 1 -4.14157564206421  3.55857137853785  1.64339892679268
 1 -10.41947233993399  3.69306014101410 -0.58584397589759
 1 -10.22682597199720 -2.34644398519852 -1.45306195839584
 1 -2.56176263316332 -0.95160347424742  2.10791148234824
 1 -2.00288389358936  1.62544612721272  1.27493814421442
 1 -1.97907236473647  0.97116756965697  3.49264297779778
 1 -2.83991905190519  2.23792785028503  3.66008817421742
 1 -3.62195563826383  0.74587927192719  3.75011742454245
 1 -2.01630411531153 -1.66662662306231 -0.40341425062506
 1 -2.09262093459346  0.15445269566957 -0.65461550115011
 1 -0.29720323772377  0.70538515241524  0.86381678077808
 1 -0.37562536453645 -1.09950446564657  1.44108806400640
 1 -5.59858863426343  6.72050069416942  0.50847655685569
 1 -5.67253424282428  6.16163952705271  2.14012030913091
 1 -4.34619857585759  5.58848001440144  0.85827900350035
 1 -9.15207726022602  6.02683883198320 -0.81285151335134
 1 -9.00092130803080  8.18759949884988  0.22351197299730
 1 -7.87535700150015  7.30103650315032  1.40594898039804
 1 -11.93672777787779  3.10676100210021 -2.16613961866187
 1 -13.40775044424442  2.19006289748975 -1.54996618811881
 1 -12.52326405750575  3.15897455215522 -0.40809205320532
 1 -12.37869264766477 -1.88317776287629 -1.43015797069707
 1 -13.46774549344934 -0.36381311811181 -1.26618214571457
 1 -13.73086943954396 -1.19787447364736 -3.43693357785779
 1 -12.37983154735474  0.00426588898890 -3.84849834553455
 1 -11.91076735603560 -1.61909677677768 -3.73963258325833
 1 -8.97542714571457 -5.14236497939794 -1.87467073117312
 1 -7.89651901670167 -5.86770677487749 -0.42095170817082
 1 -9.54298418331833 -4.99304432573257 -0.22463428602860
 1 -3.38353904980498 -3.54633788448845 -0.29089436093609
 1 -1.65062322882288 -4.26082252195220  3.68278119341934
 1 -3.03901350995099 -5.43563518111811  3.70347318621862
 1 -1.50139825132513 -6.04633390659066  2.90890484338434
 1  2.67267657175718 -1.69756159205921 -1.34184814981498
 1  2.44932240984098 -0.05773149354935 -1.82833598579858
 1  4.12728363396340 -0.79955217041704  0.76515973197320
 1  3.98952791629163  0.95943465386539 -2.77333570327033
 1  5.23987939963996  2.16983724262426 -1.93512998119812
 1  5.86532383998400  0.65757686518652 -2.88292702370237
 1  6.89801186408641  1.51066506650665  0.04671731453145
 1  6.45116923632363 -0.08477651505150  0.98663838053805
 1  7.50798818351835 -1.34702393759376 -1.11132245584558
 1  7.61372380828083  0.14668787688769 -2.10088301190119
 1  9.14211626322632  0.93252113711371 -0.05577794559456
 1  8.88568705740574 -0.85781128732873  0.61779964366437
 1  10.31076862826282  0.10308284598460 -1.74817970747075
 1  9.03346833233323 -1.91420939743974 -1.77531345614561
 1  10.98278083378338 -2.11156794069407 -2.09297354125412
 1  10.15262814881488 -2.43897583958396 -0.48221766146615
 1  11.46551423232323  0.67746997719772  0.44699618711871
 1  11.44487754115412 -1.07055301660166  0.62962358395840
 1  12.97883120202020 -1.48494665586559 -1.04545221282128
 1  12.67890164266426  0.14087477847785 -1.74879824112411
 1  13.95735717241724  1.02425498149815  0.37621496449645
 1  13.92266501960196 -0.55374497919792  0.97991450795080
 1  15.47029031753175  0.43446293129313 -1.42587694569457
 1  15.92673011591159 -2.30012030413041 -0.12907436133613
 1  14.94143719441944 -2.01728410401040 -1.66035345044504
 1  16.37282691209121 -1.89838536343634 -1.64984645414541
 1  16.03496869756976  1.27369520322032  0.60962750705071
 1  16.59742418961896 -0.32943211831183  1.29240200140014
 1  18.26265720442044 -0.75250179757976 -0.39655299569957
 1  18.07637470197020  0.81403872277228 -1.43158673447345
 1  18.23295408800880  2.16030018771877  0.93723172847285
 1  19.01977913821382  0.73293747474747  1.75781578187819
 1  20.42450736343634  0.19766591479148  0.23006007000700
 1  20.04504861146114  3.03081664356436 -0.95341893529353
 1  21.34787904000400  2.16188284108411 -1.22802416571657
 1  20.06831073547355  1.50023183398340 -2.03740070907091
 1  21.60900687588759  1.52754086318632  2.37973759095910
 1  22.22617432373237  2.18741997169717  0.94389935623562
 1  20.85833556345635  3.00892097539754  1.61182162266227

