%nproc=4
%Mem=2GB
# td=(NStates=1) CAM-B3LYP/6-31G(d,p) 

TD

0 1
12 -7.05999657265727  0.57552630073007  0.01166885428543
 6 -4.87679229722972 -1.96664784318432  0.44605113781378
 6 -4.83571350025003  2.81303975127513  1.17268363326333
 6 -9.36956169166917  3.10253574907491 -0.37744060376038
 6 -9.56548686238624 -1.70371588258826 -0.81457788688869
 7 -5.10001342594259  0.41216103420342  0.63016343464346
 6 -4.37829753585359 -0.69668949094909  0.71833985718572
 6 -2.91831083648365 -0.40560998669867  1.22236259045905
 6 -3.03653709210921  1.01108377667767  1.78089882058206
 6 -4.35805280018002  1.51817256605661  1.15272230213021
 6 -2.87174225632563  1.30243253135314  3.26824823372337
 6 -1.91251471247125 -0.59286454785479  0.03091705000500
 6 -0.51516893949395 -0.32850719791979  0.42739686898690
 6  0.49399053625363 -0.65695920882088 -0.65642102260226
 8  0.13656489658966 -0.87289269686969 -1.83102943464346
 8  1.79388119861986 -0.49099649604960 -0.19395618451845
 7 -7.06461690959096  2.57992358215822  0.23656235173517
 6 -6.08968824782478  3.31278225402540  0.71159469306931
 6 -6.34319157225723  4.67876216561656  0.79700038723872
 6 -7.65444815181518  4.83803443494349  0.42522091339134
 6 -8.10203447504751  3.44992418771877  0.02342488878888
 6 -5.34273222992299  5.78625109100910  1.10495525602560
 6 -8.60563836143614  6.01304233793379  0.26372335773577
 6 -8.44286817811781  7.15163128172817  0.81449769956996
 7 -9.20144241684168  0.69277213831383 -0.55095912961296
 6 -9.91087734743474  1.80388034113411 -0.67134345844584
 6 -11.18171726832683  1.50621896099610 -1.11673339283928
 6 -11.26028843274327  0.11394675877588 -1.27079579357936
 6 -9.98702438313831 -0.38704067836784 -0.88852386848685
 6 -12.25714453815382  2.55200577157716 -1.49156593139314
 6 -12.45097964426443 -0.71771918201820 -1.78960976947695
 6 -12.40559804820482 -1.07430984218422 -3.23219833843384
 7 -7.21161062936294 -1.40879049264927 -0.15522019901990
 6 -8.32318255805581 -2.25345051715172 -0.53601855705571
 6 -7.91127727332733 -3.62457072457246 -0.46756403370337
 6 -6.60310419451945 -3.55693003000300 -0.03068480038004
 6 -6.23495609200920 -2.21260954225423  0.10097290149015
 6 -8.69998746614661 -4.76827967036704 -0.76458493689369
 6 -5.42777724802480 -4.45122900640064  0.29157202980298
 8 -5.29706854475448 -5.65172965636564  0.25091212191219
 6 -4.28027160656066 -3.35947173697370  0.64313417871787
 6 -3.56443707460746 -3.71358657995800  1.90181055395540
 8 -3.75154675527553 -3.09089582578258  2.98138081918192
 8 -2.73019421312131 -4.73515823822382  1.67087566846685
 6 -2.11463205110511 -5.21520574967497  2.92749768526853
 6  2.85576808850885 -0.68124591919192 -1.14530573097310
 6  4.12410449944994 -0.41762993929393 -0.45491564056406
 6  5.13793727812781  0.33201946734673 -0.82746251895190
 6  5.10710913391339  1.18702135143514 -2.16514067936794
 6  6.52940727352735  0.40399224942494 -0.05394187938794
 6  7.71445898379838 -0.07823817071707 -0.96451340184018
 6  9.06603847644764 -0.22411754215422 -0.15492730553055
 6  10.37346797129713 -0.57387445914591 -1.01915288578858
 6  10.18439513971397 -1.99732066816682 -1.48303176817682
 6  11.50855373227323 -0.37151093189319 -0.03608273967397
 6  12.82196710441044 -0.64849890099010 -0.61344136703670
 6  13.99527899629963 -0.24055525832583  0.29665673317332
 6  15.37998412331233 -0.27035076417642 -0.41868010781078
 6  15.79107077597760 -1.74892252605261 -0.53627324502450
 6  16.38367247314731  0.54742910291029  0.45184969216922
 6  17.79902449184918  0.73662506090609 -0.33541935653565
 6  18.75715608510851  1.44976319331933  0.78840927392739
 6  20.11878054725473  1.47491782528253  0.22445720892089
 6  20.33003435723572  2.09578787598760 -1.25310630333033
 6  21.09594052485249  2.02275521182118  1.19376473987399
 1 -4.10203168766877  3.56216173757376  1.35780036693669
 1 -9.96571696439644  3.89399023402340 -0.64264965646565
 1 -10.43370666006601 -2.46897623842384 -0.97987463966397
 1 -2.37751420832083 -0.99892820672067  2.10114080528053
 1 -2.26030963616362  1.70968455105511  1.35873652405240
 1 -1.96253071057106  1.01659211211121  3.60906461996200
 1 -3.13886894689469  2.36135019251925  3.29841200660066
 1 -3.49513295599560  0.66541122512251  3.86542895569557
 1 -2.26216870177018 -1.62041200160016 -0.43486739593959
 1 -2.21467313981398  0.12394964536454 -0.76178621822182
 1 -0.31758527592759  0.66412102600260  0.66031643074307
 1 -0.15974377637764 -0.97443195839584  1.30879483468347
 1 -5.60463923932393  6.72643128722872  0.51294700390039
 1 -5.37267425682568  5.86852021512151  2.18261455855586
 1 -4.22948690469047  5.55998716511651  0.85555873147315
 1 -9.40204225672567  5.80927707580758 -0.56087631583158
 1 -9.23914513041304  8.05281602050205  0.67524714651465
 1 -7.67062652845285  7.70489688918892  1.55513389888989
 1 -12.05039914501450  3.16651697769777 -2.33251625632563
 1 -13.11038070727073  1.98844273547355 -1.77213840534053
 1 -12.65410714181418  3.13468212291229 -0.62439368336834
 1 -12.51982676107611 -1.52100154525453 -1.09351430633063
 1 -13.40984970387039 -0.06667340414041 -1.61920744824482
 1 -13.17051340394039 -1.58224291049105 -3.69870975547555
 1 -12.37725128932893 -0.28017255485549 -4.16346984268427
 1 -11.50212649194919 -1.79139400650065 -3.23699231923192
 1 -9.07182678567857 -4.77380812371237 -1.77175043914391
 1 -8.21308067286729 -5.59755976017602 -0.73254286728673
 1 -9.53810369526953 -4.64947996929693 -0.01948377097710
 1 -3.66651734763476 -3.58395164586459  0.00253498199820
 1 -1.15187335383538 -4.63566000570057  3.32131504680468
 1 -2.81511111971197 -5.24559617721772  3.75341818071807
 1 -1.80603871537154 -6.39894916811681  2.60030398329833
 1  2.87548685278528 -1.65518735463546 -1.55428939393939
 1  2.68424590219022  0.08701298089809 -1.83072622482248
 1  4.22646355195520 -0.98149036423642  0.50267348334833
 1  4.06898586208621  0.92028073847385 -2.54175254495450
 1  5.40046545824582  2.16186644554455 -1.88494496269627
 1  5.90372768036804  0.63598470597060 -2.82250098109811
 1  6.72190425332533  1.47989198919892  0.13701634443444
 1  6.44336845624563 -0.23872190959096  0.83553327002700
 1  7.33356074077408 -0.89438867406741 -1.60873219681968
 1  7.77163959985999  0.87830103820382 -1.67012993659366
 1  9.10853290489049  0.79856774177418  0.47968560076008
 1  9.04846333503350 -0.95958146434643  0.72299016271627
 1  10.45107265866587  0.17212975067507 -1.77656254575457
 1  9.29997498299830 -2.22835081158116 -2.15335125992599
 1  11.14541709740974 -2.27556434033403 -2.09715395929593
 1  10.17009989598960 -2.59886182818282 -0.56863630333033
 1  11.39480716161616  0.62110434063406  0.32581406890689
 1  11.29492254565457 -0.96052201350135  1.00788140974097
 1  12.98610192909291 -1.64831299249925 -1.02992065966597
 1  12.86294004650465 -0.01936124512451 -1.56738009930993
 1  13.80932236893689  0.77440999699970  0.80431777477748
 1  14.22531528462846 -0.88913851855186  1.04947146364636
 1  15.31755504400440 -0.00519103410341 -1.48751310931093
 1  15.88027547044704 -2.22390268236824  0.38855740184018
 1  15.02117516821682 -2.23549592519252 -1.13298071317132
 1  16.77937756715672 -1.96330185508551 -0.96304777427743
 1  15.94699990069007  1.51436927062706  0.85165170947095
 1  16.69192363956396 -0.07158633373337  1.32852561376138
 1  18.07555849454945 -0.15923247064706 -0.60508384878488
 1  17.60356742124213  1.25355267416742 -1.18357193299330
 1  18.37942873547355  2.48178233593359  0.73568157345735
 1  18.75560272057206  0.98797297829783  1.61826182648265
 1  20.28367328002800  0.48714486268627  0.02294935893589
 1  20.26649075567557  3.41493505540554 -1.16704029742974
 1  21.29191344344435  1.98726537933793 -1.72532389568957
 1  19.46917082148215  1.74137594839484 -1.86619358835884
 1  21.17410338553855  1.65713382248225  2.27972758995900
 1  21.98444015031503  2.07413864356436  0.56001096739674
 1  20.75217494739474  2.93761384468447  1.34514495499550

