%nproc=4
%Mem=3GB
# td=(NStates=1) iop(3/107=0140000000,3/108=0140000000) CAM-B3LYP/6-31G(d,p) 

TD

0 1
12 -7.15324001570157  0.58290667416742  0.08097446744674
 6 -4.85819463596360 -2.02679991059106  0.48416381878188
 6 -4.85089111971197  2.80071878977898  1.27349745494549
 6 -9.44143090759076  3.15931348434843 -0.41831430673067
 6 -9.49978607660766 -1.70147191289129 -0.78306511141114
 7 -5.09234626582658  0.37627371797180  0.69182700670067
 6 -4.36798904620462 -0.72663380658066  0.74168206290629
 6 -2.97424364496450 -0.36914531253125  1.22077774687469
 6 -3.05937916481648  1.11206990859086  1.65912219151915
 6 -4.47726796149615  1.47529218031803  1.09656405030503
 6 -2.94620080088009  1.15349816911691  3.12470778537854
 6 -1.95071080078008 -0.45132112131213  0.04681849214921
 6 -0.50573628282828 -0.48783203120312  0.54222760506051
 6  0.47574949814982 -0.71218784068407 -0.59034882498250
 8  0.18049826662666 -0.98223200090009 -1.71352874597460
 8  1.83874247264727 -0.61563150155016 -0.16642202980298
 7 -7.12734037743774  2.61831504140414  0.36466739083908
 6 -5.98959910371037  3.45060882828283  0.84292016811681
 6 -6.34486939533953  4.79247611121112  0.80664892359236
 6 -7.70416520182018  4.94001580678068  0.39518564496450
 6 -8.15904543204320  3.50389732853285  0.05471346994699
 6 -5.39274130803080  5.94905437913791  1.06489664486449
 6 -8.51395140314031  6.08514878447845  0.20530114261426
 6 -8.35444385438544  7.27124627432743  0.79881394069407
 7 -9.07287632873287  0.73303029742974 -0.57192376627663
 6 -9.89966745304530  1.86657998229823 -0.65136795029503
 6 -11.22070602330233  1.53386283078308 -1.04470933063306
 6 -11.21169065626563  0.16390393619362 -1.29579960826083
 6 -9.94079168276828 -0.27364755815582 -0.80477267856786
 6 -12.32011294899490  2.45305054645465 -1.36173562626263
 6 -12.29790358325832 -0.66309243304330 -1.84533386398640
 6 -12.00359226812681 -1.16888708100810 -3.22837348854886
 7 -7.24319728212821 -1.39888472417242 -0.16973964906491
 6 -8.32946727302730 -2.18701724722472 -0.43930551045104
 6 -7.96969900970097 -3.64858540994099 -0.33631393119312
 6 -6.54960275077508 -3.60088307040704 -0.02811489318932
 6 -6.23075680738074 -2.20207816361636  0.06162799819982
 6 -8.74349668916892 -4.87716381478148 -0.56965034813481
 6 -5.35939140204020 -4.37224078747875  0.20387536163616
 8 -5.23218421072107 -5.63738059505951  0.16120206880688
 6 -4.19040354295430 -3.36620406780678  0.53602192379238
 6 -3.59245342214221 -3.66609455215522  1.88278424692469
 8 -3.79910269366937 -3.19130648854886  2.90333369156916
 8 -2.79706505930593 -4.82098071657166  1.68863790129013
 6 -2.14090304730473 -5.14847005290529  2.87562496289629
 6  2.80018633903390 -0.78035632453245 -1.12354587178718
 6  4.17587847304730 -0.60090535843584 -0.57727028982898
 6  5.12868836013601  0.28170469846985 -0.98444132113211
 6  5.02746647224722  1.20018769406941 -2.19322345734573
 6  6.48811509020902  0.32866348234823 -0.35197572197220
 6  7.64430588318832 -0.14244279227923 -1.12928325702570
 6  8.91474918651865 -0.13663547964796 -0.32270837323732
 6  10.22298775937594 -0.61811347454745 -1.05195091509151
 6  10.11674495109511 -2.02130000990099 -1.36790375637564
 6  11.34421908570857 -0.29538442954295 -0.15164312681268
 6  12.82354008950895 -0.54955498899890 -0.91363886898690
 6  14.00203147494749 -0.13224893919392  0.06572298389839
 6  15.39845583658366 -0.17754683828383 -0.54316996949695
 6  15.72085835683568 -1.66600498879888 -0.75415724202420
 6  16.39419641234123  0.51350786808681  0.49182391709171
 6  17.81104869256926  0.50233396299630 -0.13557008400840
 6  18.73616403500350  1.31446952545255  0.78559181588159
 6  20.25212801720172  1.42216164866487  0.34645135113511
 6  20.42614546034604  2.26909421452145 -0.89231392729273
 6  21.20740580758076  1.90941264116412  1.53291723172317
 1 -3.85662602610261  3.62512576397640  1.58234433023302
 1 -10.01518364166417  4.16351862636264 -0.71710623682368
 1 -10.26096052015202 -2.58033356845685 -1.01502932233223
 1 -2.61303859105911 -1.15106530923092  1.93622011271127
 1 -2.36919038533853  1.61321338243824  1.03327697669767
 1 -1.83235632203220  1.19929903630363  3.61065140254025
 1 -3.14179128822882  2.27982720552055  3.45721374357436
 1 -3.65577837833783  0.57460261456146  3.67423910911091
 1 -1.99584470347035 -1.36044671547155 -0.37436544364437
 1 -2.07638400740074  0.19289690949095 -0.76132286688669
 1 -0.10054548324833  0.39410899819982  0.98926278927893
 1 -0.40137855815582 -1.31423218981898  1.24236769506951
 1 -5.59074325202520  6.82769028102810  0.21211104240424
 1 -5.68870034133413  6.43697657905791  2.02508452095210
 1 -4.29013385798580  5.61182545054505  1.15083581618162
 1 -9.47357761756176  5.95556893889389 -0.32352370507051
 1 -8.81757082078208  8.16599632063206  0.59842961866187
 1 -7.66367429952995  7.38288512491249  1.56202516281628
 1 -12.07732820582058  3.24359350645065 -2.14393022452245
 1 -13.20282758045805  1.75593433583358 -1.54883061126113
 1 -12.67581861456146  3.15058239233923 -0.55936637613761
 1 -12.62292425732573 -1.55521644444444 -1.22599610051005
 1 -13.11461376047605  0.01470876037604 -1.79521527592759
 1 -13.15479067826783 -1.41633529562956 -3.62164312241224
 1 -11.55497590329033 -0.18448691999200 -3.82778175657566
 1 -11.43326816621662 -2.08048907610761 -3.53101137933793
 1 -9.17131174977498 -4.81257775857586 -1.68587465046505
 1 -8.29036342154215 -5.84116006930693 -0.13199315441544
 1 -9.71043522252225 -4.83162161056106  0.07320505180518
 1 -3.33300081858186 -3.48922552815281 -0.15301303940394
 1 -1.51788517611761 -4.49037125052505  3.29310102770277
 1 -2.67027346464646 -5.58271779667967  3.69367040474047
 1 -1.29521004150415 -5.88580936573657  2.66065942704270
 1  2.79796785158516 -1.70474709750975 -1.60555200390039
 1  2.52157859915992 -0.06775869106911 -1.83958501600160
 1  4.46466695339534 -1.20063847764776  0.28966036623662
 1  3.83924923642364  1.43489903260326 -2.44387487318732
 1  5.52958989118912  2.06408683258326 -1.96538397679768
 1  5.40268983748375  0.56723791469147 -3.09301555845585
 1  6.79336752065207  1.41059103970397 -0.05502588868887
 1  6.37957582968297 -0.10398773547355  0.56075227072707
 1  7.50238236103610 -1.23204387738774 -1.53501825902590
 1  7.72761532003200  0.45384448744875 -2.10320114301430
 1  9.21879792409241  1.03336283378338 -0.06216378827883
 1  8.88973209400940 -0.55584393709371  0.65928205160516
 1  10.49773440524053  0.09030517831783 -1.96889204720472
 1  9.24534414351435 -2.27028531203120 -2.20247862976298
 1  10.92843198379838 -2.45441884118412 -1.75887124522452
 1  10.07402960006001 -2.72218633333333 -0.60313770747075
 1  11.39312095369537  0.74037047044704  0.08089586038604
 1  11.47773536903691 -0.85789708730873  0.73870019011901
 1  12.84979293179318 -1.71937935723572 -0.97076934843484
 1  12.90324615451545  0.04242917891789 -1.87751208490849
 1  13.69222064236424  0.88185354865487  0.31081591029103
 1  13.85840415101510 -0.80207658655866  0.97200957495750
 1  15.36704710611061  0.35167856485649 -1.55282655145514
 1  15.63657745454545 -2.06760610181018  0.26922878737874
 1  15.00966261066107 -2.21447596759676 -1.45780715421542
 1  16.73408168776878 -1.77409830683068 -1.13616012931293
 1  16.14765803930393  1.68584691839184  0.71174709100910
 1  16.41975605340534 -0.01640792559256  1.46162465716572
 1  18.38571530923092 -0.36982349634964 -0.33714390999100
 1  17.79507681728173  0.88030692479248 -1.34818056165617
 1  18.29090814771477  2.46356762476248  0.92584453125313
 1  18.66612257475748  0.80350519001900  1.70185343084308
 1  20.62309214151415  0.47135813341334  0.34633052525253
 1  20.35878269676968  3.40352112861286 -0.43883606830683
 1  21.39891369216922  2.20658180028003 -1.53585156635664
 1  19.51652004960496  2.21342163236324 -1.59231761616162
 1  20.95254910841084  1.32314795569557  2.45131880068007
 1  22.12816070887089  1.65031550225022  1.41235788938894
 1  21.27221730023003  3.11921803900390  1.72888002470247

