%nproc=4
%Mem=3GB
# td=(NStates=1) iop(3/107=0140000000,3/108=0140000000) CAM-B3LYP/6-31G(d,p) 

TD

0 1
12 -7.14004869656966  0.59353773727373  0.10063643364336
 6 -4.84018283478348 -1.97313454405441  0.56324172657266
 6 -4.79771580218022  2.73091180908091  1.28919902510251
 6 -9.29902666716672  3.09968752175218 -0.58398087338734
 6 -9.57915401340134 -1.75693745944594 -0.94264106900690
 7 -5.14798182938294  0.47963405400540  0.69609743374337
 6 -4.40547279457946 -0.69448059125913  0.80757865256526
 6 -2.86790301090109 -0.46660505850585  1.14619028812881
 6 -3.05757898479848  1.00942964456446  1.68159443874387
 6 -4.41852208690869  1.40865551665166  1.20395478937894
 6 -2.84855103590359  1.09654247354735  3.17655296989699
 6 -1.93581931163116 -0.55254124332433 -0.01666785648565
 6 -0.51606731593159 -0.44251749974998  0.41751513381338
 6  0.51611353455346 -0.65633225512551 -0.69921971207121
 8  0.34171438823882 -1.00287406510651 -1.80007740084008
 8  1.77401600000000 -0.37168710711071 -0.24457984558456
 7 -7.06614425782578  2.65170838073807  0.37240816491649
 6 -6.01701184498450  3.36040980838084  0.86900277637764
 6 -6.29319422782278  4.71876874047405  0.87242550125012
 6 -7.63444823012301  4.93958576377638  0.40395652205221
 6 -8.12126165366537  3.52932987178718  0.09548754735474
 6 -5.36908894279428  5.87770724442444  1.25291544674467
 6 -8.53545355335534  6.02672294189419  0.23402401490149
 6 -8.51352976297630  7.20013916361636  0.80539459875988
 7 -9.12262130323032  0.75011200560056 -0.53186976087609
 6 -9.83310079637964  1.84792811711171 -0.71699451295129
 6 -11.18641259395940  1.49297874237424 -1.24466932663266
 6 -11.23693318051805  0.20775832163216 -1.27550757905791
 6 -9.88619622322232 -0.30014020742074 -0.84835703700370
 6 -12.21595253295330  2.53841908330833 -1.63820327302730
 6 -12.38276206910691 -0.76650277407741 -1.73216254685469
 6 -12.44298620752075 -1.13511370367037 -3.17023767496750
 7 -7.31006396879688 -1.49229406510651 -0.03195587068707
 6 -8.28606293259326 -2.22585113061306 -0.58477005690569
 6 -7.84291633143314 -3.66399695109511 -0.54344464426443
 6 -6.54676246674667 -3.56875985808581 -0.05060714241424
 6 -6.21296502820282 -2.21093904970497  0.16766860226023
 6 -8.57976031553155 -4.87719381778178 -0.98762214531453
 6 -5.39588505140514 -4.25423898729873  0.22077705180518
 8 -5.25826681898190 -5.51685854285429  0.20795674427443
 6 -4.21479598219822 -3.32902034943494  0.58144646624662
 6 -3.61286546334633 -3.67727567026703  1.94593056155616
 8 -3.83421620502050 -3.07482484038404  3.00251360956096
 8 -2.77348270107011 -4.67676629512951  1.80046908440844
 6 -2.29393835083508 -5.30795600150015  3.00328772917292
 6  2.83378969936994 -0.63652194109411 -1.21571508870887
 6  4.21191207640764 -0.41121638953895 -0.55427799059906
 6  5.13345883718372  0.29255578357836 -1.06406928392839
 6  5.18773249884988  1.05605328062806 -2.31415555055506
 6  6.43605988468847  0.46963757975798 -0.28243876827683
 6  7.63602505510551 -0.16593514151415 -0.97957828652865
 6  8.90871858345835 -0.12199401550155 -0.03237934033403
 6  10.18505396599660 -0.67127879107911 -0.69020474047405
 6  10.16845012161216 -1.99286716661666 -1.20207717371737
 6  11.46427109090909 -0.40130502160216  0.17297933543354
 6  12.77964570007001 -0.46420645414541 -0.63349085418542
 6  13.90968224002400 -0.13813952825283  0.19909632123212
 6  15.32980897189719 -0.16775585918592 -0.53525917841784
 6  15.69436570757076 -1.64673306160616 -0.94077590389039
 6  16.41877887058706  0.41757827512751  0.35462019671967
 6  17.81088867656766  0.62702643224322 -0.28437496449645
 6  18.71008142674267  1.25503358185819  0.65494875157516
 6  20.24643744814481  1.41635106760676  0.24491119711971
 6  20.28232107790779  2.20169747484748 -1.13541823772377
 6  21.18704377137714  1.96596829672967  1.34907884788479
 1 -4.07146751025102  3.45714896629663  1.45099119491949
 1 -9.85747787108711  3.97615989048905 -0.83339786598660
 1 -10.36949137323732 -2.32935847094709 -1.37774559395940
 1 -2.52779006620662 -1.10580078277828  1.97639413011301
 1 -2.36334980128013  1.81798385948595  1.25043869286929
 1 -2.01580466686669  0.64495360176018  3.71239157655766
 1 -3.03723083218322  2.16951617441744  3.54640266246625
 1 -3.73935673617362  0.67831298559856  3.73341502670267
 1 -2.13370848984898 -1.41910258105811 -0.51558956605661
 1 -2.14894126312631  0.26803442324232 -0.79152588718872
 1 -0.34725015371537  0.56901648894890  0.99849371237124
 1 -0.38935735603560 -1.13732449904990  1.13731719001900
 1 -5.83894807250725  6.73256076807681  0.68052788408841
 1 -5.41792326362636  6.07641052245225  2.35826783928393
 1 -4.32788763336334  5.87770203820382  1.03340407300730
 1 -9.38161842164216  5.93915729772977 -0.54277563026303
 1 -9.17382644634463  8.01995171617162  0.81028080378038
 1 -7.68623655575558  7.35543237963796  1.68386734703470
 1 -11.95408588158816  3.18834798189819 -2.36114194569457
 1 -13.08550584828483  1.76950569296930 -1.92884861306131
 1 -12.39135016771677  3.22137947204721 -0.75431587108711
 1 -12.48737070197020 -1.62204312711271 -1.05728922982298
 1 -13.25529782888289 -0.07146985748575 -1.46719247364736
 1 -13.49399459865987 -1.76701036313631 -3.46481743984398
 1 -12.67854826052605 -0.07229570087009 -3.71890086848685
 1 -11.51482632203220 -1.66174720192019 -3.47364564276428
 1 -8.93318793739374 -4.86684318511851 -2.03096915991599
 1 -7.90522490769077 -5.81168712201220 -0.75240519561956
 1 -9.48410258925893 -5.10750919931993 -0.24397666636664
 1 -3.56296381488149 -3.36366297189719 -0.20818855695570
 1 -1.34407779537954 -4.68492070547055  3.48645036263626
 1 -3.32688912621262 -5.17956748164817  3.75313635133513
 1 -1.94953547404740 -6.27329811461146  2.63980734183418
 1  2.87090514531453 -1.71050767356736 -1.61500294899490
 1  2.77780422172217  0.02526061086109 -1.98167922542254
 1  4.31627211391139 -0.80173858765877  0.50800220042004
 1  4.20710602210221  1.26888243094309 -2.64259474517452
 1  5.36379331153115  1.94295471937194 -2.13151058945895
 1  5.92512208070807  0.70285147604760 -2.92061831873187
 1  6.76877506140614  1.54895487608761 -0.27607799389939
 1  6.37183505560556  0.04795745904590  0.61195739123912
 1  7.57773989678968 -1.36172684568457 -1.10947570477048
 1  7.91398395689569  0.34779388238824 -1.86062688558856
 1  9.17354339863986  0.78713821132113  0.32677510561056
 1  8.70962408320832 -0.67777613031303  0.93183930733073
 1  10.48844347614762 -0.06456030823082 -1.63387854585459
 1  9.44464407350735 -2.27951623512351 -1.79410779267927
 1  11.03080222082208 -2.28738213751375 -1.82458781688169
 1  10.11804400150015 -2.64278839353935 -0.55636303000300
 1  11.20061170277028  0.69611604500450  0.93099086988699
 1  11.62326992249225 -1.20066136373637  0.98646496659666
 1  12.85268322082208 -1.53159057835783 -0.94138641014101
 1  12.66664249414941  0.02632756875688 -1.60370470417042
 1  13.79749116941694  0.97948331163116  0.49393422212221
 1  13.94299260986099 -1.01275765466547  0.97528990299030
 1  15.25669607100710  0.33854725172517 -1.52714398319832
 1  15.64648844564456 -2.41330067126713 -0.10407854335434
 1  14.87391903630363 -2.01201572157216 -1.74817619111911
 1  16.64107238683868 -1.84520541754175 -1.44173068636864
 1  15.91361463496350  1.42559089278928  1.00792670897090
 1  16.64548862666267 -0.19937622242224  1.27377587228723
 1  18.10390712841284 -0.31894840884088 -0.50717091269127
 1  17.81129843944395  1.07691658575858 -1.18317406100610
 1  18.36221527842784  2.21636290429043  0.93166511331133
 1  18.82440840334034  0.73129796929693  1.52648589408941
 1  20.71422125442544  0.41214221182118  0.03857975017502
 1  19.73668048654866  3.21844262076208 -0.85118730343034
 1  21.39143294409441  2.25046618871887 -1.57667564876488
 1  19.95227362496250  1.56507679787979 -2.07477586198620
 1  20.90867472097210  1.33423906480648  2.27930159895990
 1  22.19461735453545  1.96001647234723  0.94330098369837
 1  20.76998707720772  3.03597971517152  1.58432556925693

