%nproc=4
%Mem=2GB
# td=(NStates=1) CAM-B3LYP/6-31G(d,p) 

TD

0 1
12 -7.17408798179818  0.56404515261526  0.14506219361936
 6 -4.75126974497450 -1.95193637203720  0.54923145584558
 6 -4.79005893479348  2.93477192449245  1.13809017391739
 6 -9.38996373187319  3.00167566306631 -0.32014487418742
 6 -9.63012332603260 -1.72853836483648 -0.87966439553955
 7 -5.09258268286829  0.40355017311731  0.69910032833283
 6 -4.30147985408541 -0.68633845584558  0.75106312951295
 6 -2.86962596799680 -0.34844427012701  1.26168652285229
 6 -3.06503994239424  1.19428209650965  1.61318204890489
 6 -4.46253324822482  1.49440018881888  1.09846687658766
 6 -2.86629171127113  1.35124741284128  3.13938534743474
 6 -1.86655011601160 -0.59898515991599  0.13357731603160
 6 -0.41910933353335 -0.37345169236924  0.58165229452945
 6  0.57425856305631 -0.77587110001000 -0.50226560706071
 8  0.22128336843684 -1.18928433603360 -1.66123245494549
 8  1.80541235173517 -0.32230962736274 -0.18435522442244
 7 -7.04899534743474  2.55123071287129  0.24701339683968
 6 -6.02270154915492  3.41262223802380  0.73422695629563
 6 -6.40822807590759  4.80394468386839  0.75254594179418
 6 -7.69871257825783  4.78730936243624  0.33965235653565
 6 -8.08654292589259  3.39260845614561  0.03201574787479
 6 -5.52109006570657  5.81484395029503  1.13763852435244
 6 -8.62765056265626  5.99627066076608  0.31484847024702
 6 -8.51726561786179  7.20914703330333  0.83629987978798
 7 -9.03828610121012  0.62190505160516 -0.77833186688669
 6 -9.88924518421842  1.74780473357336 -0.75849217331733
 6 -11.26498559515952  1.40085842494249 -1.09654137363736
 6 -11.30621302520252  0.12663802790279 -1.28135684968497
 6 -9.98353403410341 -0.38709068336834 -0.98094311041104
 6 -12.31234005770577  2.46328689968997 -1.38205498029803
 6 -12.46581112741274 -0.75981339143914 -1.72769357785779
 6 -12.37024451285128 -1.13137554875488 -3.29285440404040
 7 -7.15153462176218 -1.34829444304430 -0.13034771177118
 6 -8.26853709350935 -2.21850702280228 -0.52797775297530
 6 -7.75952209780978 -3.55694396189619 -0.52778005530553
 6 -6.44805868996900 -3.52516685368537 -0.14986671857186
 6 -6.11343393979398 -2.22861114241424  0.07379018321832
 6 -8.66429389678968 -4.68049089148915 -0.93482196059606
 6 -5.28812328262826 -4.32476636013601  0.21956482908291
 8 -5.21366020392039 -5.54623910731073  0.12787981868187
 6 -4.14796837623762 -3.33842963276328  0.67787765306531
 6 -3.51251188208821 -3.60339556085609  1.84513488638864
 8 -3.65693729432943 -3.03305004120412  2.89452213331333
 8 -2.76986818051805 -4.84069879227923  1.83018159905991
 6 -2.17132772067207 -5.30869509860986  2.95274020952095
 6  2.79755226692669 -0.76290408500850 -1.16457765816582
 6  4.12441453045304 -0.42848102440244 -0.59150929992999
 6  5.16994047844784  0.28219448484849 -0.99044881758176
 6  5.13642206520652  1.25198784808481 -2.13584775007501
 6  6.33323765656566  0.43178502870287 -0.12930941614161
 6  7.65607314521452 -0.12348269516952 -0.84929187968797
 6  8.97699957255726 -0.04448957935794 -0.16542835563556
 6  10.14890551505150 -0.55261233293329 -0.79861083158316
 6  10.10412711291129 -2.16119705580558 -1.13530699569957
 6  11.46722959985999 -0.32679646044604  0.10201106970697
 6  12.68708361606161 -0.52688673977398 -0.73374339723972
 6  13.90090955935593 -0.25859706250625  0.16420348784879
 6  15.29436556145615 -0.17980170927093 -0.43268150795080
 6  15.72549421832183 -1.60701833563356 -0.95181479917992
 6  16.43556766266627  0.46143050305030  0.48666317351735
 6  17.84806939633963  0.51804320272027 -0.15560137473747
 6  18.73288365786579  1.27711592859286  0.70614104710471
 6  20.22468113731373  1.29388972247225  0.03610837403740
 6  20.31006236003600  2.24534283148315 -1.14258525122512
 6  21.10555148594860  1.95283822012201  1.20969633303330
 1 -4.11442292679268  3.74482000340034  1.54691927882788
 1 -10.08099849254926  3.86703753875388 -0.32472786428643
 1 -10.22875616501650 -2.43569291009101 -0.95563221542154
 1 -2.43087954485449 -0.75760407430743  2.19968065926593
 1 -2.23832743794379  1.98514209680968  1.28567921832183
 1 -2.07866232373237  1.00243069596960  3.36518023152315
 1 -2.84811987198720  2.54629868736874  3.35173733913391
 1 -3.73175661836184  1.02935761976198  3.79856226902690
 1 -1.82153463836384 -1.61269122952295 -0.41577548674867
 1 -2.20047171967197  0.18643589398940 -0.61210124972497
 1 -0.30841435883588  0.68997361126113  0.86893729282928
 1 -0.24927272927293 -0.87553206840684  1.48088204340434
 1 -5.59420819621962  6.78284692879288  0.69200490969097
 1 -5.60491748114811  5.95384874797480  2.20183648074807
 1 -4.57398135413541  5.47600876727673  0.99481265686569
 1 -9.32707475997600  6.07111325942594 -0.52948317651765
 1 -9.25398661456146  8.03359409830983  0.56040566236624
 1 -7.76311577737774  7.56740313981398  1.67581596709671
 1 -12.03579768486849  3.07655798179818 -2.34675768046805
 1 -13.15977564676468  2.12026591779178 -1.74768596009601
 1 -12.61492322342234  2.91401005570557 -0.41187243124312
 1 -12.36689146754676 -1.65601504660466 -1.00747570247025
 1 -13.19251797069707 -0.10502723952395 -1.39004453195320
 1 -13.08066441904190 -1.70643532973297 -3.51885176967697
 1 -12.53051661586159 -0.14653919151915 -3.80270376607661
 1 -11.49444572387239 -1.45039990709071 -3.54247286728673
 1 -8.96656625962596 -4.78240898379838 -2.01934519861986
 1 -8.12092145694569 -5.57674767896790 -0.75592520552055
 1 -9.62770265516552 -4.75904092539254 -0.27568939153915
 1 -3.40487118301830 -3.45672892359236 -0.07776304780478
 1 -1.30250841734173 -4.55929236893689  3.26923983928393
 1 -2.72793240184018 -5.35739735733573  3.79181202010201
 1 -1.71483959545955 -6.40388966216622  2.75307926082608
 1  2.64600390449045 -1.90081191709171 -1.25927989298930
 1  2.50416789438944 -0.40895661606161 -2.22388554075408
 1  4.15812671827183 -1.04276649184919  0.40414363036304
 1  4.01945090859086  1.38672738313831 -2.75401377107711
 1  5.22516792849285  2.28075833473347 -1.89383585178518
 1  5.79492680028003  1.05653676117612 -3.00990972197220
 1  6.42902496539654  1.44502850285028  0.29499214201420
 1  6.11841596099610 -0.07502553995400  0.73864358105811
 1  7.24043142784278 -1.10086932213221 -0.93903522712271
 1  7.78573100900090  0.52934614271427 -1.78823174677468
 1  9.14320637223722  1.09752763776378  0.13925155735574
 1  8.77356584528453 -0.71347685388539  0.71242910661066
 1  10.32031958335834 -0.06520398269827 -1.77660254975498
 1  9.35557054255426 -2.30684866136614 -1.82632855765577
 1  11.04243679937994 -2.60204698859886 -1.57546179007901
 1  9.83798668466847 -2.55466740874087 -0.22230166986699
 1  11.22739041994199  0.76071830203020  0.51967345484549
 1  11.56859991339134 -0.96698265956596  1.09331995359536
 1  12.84971829072907 -1.71629979117912 -1.15420308790879
 1  12.75571932443244  0.11297198819882 -1.77310067136714
 1  13.69679111581158  0.73653620962096  0.64571191419142
 1  13.92230498359836 -0.83266287098710  1.12096861336134
 1  15.37690097859786  0.41865135013501 -1.35809016701670
 1  15.94602204510451 -2.24231452355235 -0.08590004390439
 1  14.87722077277728 -2.17283965956596 -1.41147856295630
 1  16.64439406880688 -1.67442296719672 -1.51553302280228
 1  16.00383558425843  1.54068190189019  0.44473101740174
 1  16.36991143834383 -0.06838601370137  1.38828158935894
 1  18.15270620932093 -0.44900144754475 -0.18848218861886
 1  17.71943900840084  0.76927424632463 -1.29151272707271
 1  18.34051484408441  2.30082424012401  0.66000400570057
 1  18.69552671297130  0.92600678167817  1.66130613091309
 1  20.31746665936594  0.19453560176018 -0.29607254325433
 1  19.71266537313731  3.25247880978098 -0.99692328572857
 1  21.39212346444645  2.54826147894789 -1.36661802510251
 1  19.82977688208821  1.79326113691369 -2.17147411641164
 1  21.10537651285129  1.33633174227423  2.20999061626163
 1  22.42194390069007  1.97985921562156  0.88956392269227
 1  20.96226595649565  3.01016109940994  1.45004544504450

