%nproc=4
%Mem=3GB
# td=(NStates=1) iop(3/107=0140000000,3/108=0140000000) CAM-B3LYP/6-31G(d,p) 

TD

0 1
12 -7.13643833553355  0.59708809230923  0.11702807280728
 6 -4.92467128362836 -1.97389462006201  0.49029443184318
 6 -4.79677570817082  2.81520023792379  1.38170827602760
 6 -9.33065983048305  3.09148670167017 -0.30450292559256
 6 -9.56639273727373 -1.59587135283528 -1.05134193909391
 7 -5.20145717691769  0.37562365296530  0.85984380838084
 6 -4.40169241654166 -0.70082122532253  0.80309820452045
 6 -2.97285350595059 -0.40293869186919  1.26209187828783
 6 -3.01918514541454  1.11408010961096  1.83975025432543
 6 -4.42825306000600  1.43125777687769  1.33078747264727
 6 -2.69877605840584  1.12702552185219  3.32240755535554
 6 -1.93173890359036 -0.58793478267827  0.15131894219422
 6 -0.45877158635864 -0.35582883088309  0.47834121642164
 6  0.46316824002400 -0.71898852075208 -0.63043283338334
 8  0.14294451125113 -1.11007478517852 -1.75125251835184
 8  1.72489108750875 -0.47877781618162 -0.25824121172117
 7 -7.07105474887489  2.66233944384438  0.38675960006001
 6 -6.03402354615462  3.41336510391039  0.94748062416242
 6 -6.35362027042704  4.71313817741774  0.78820707940794
 6 -7.63693847914791  4.87320912611261  0.25493161956196
 6 -8.09393892139214  3.51036797559756  0.03141113971397
 6 -5.41134316821682  5.81338081178118  1.20334048924893
 6 -8.45769577757776  6.05521579117912 -0.00797018451845
 6 -8.34837324732473  7.23227237693769  0.64982904220422
 7 -9.07472651375138  0.63973096749675 -0.54995156905691
 6 -9.78978646494649  1.86987031133113 -0.73803661716172
 6 -11.09802375507551  1.52117156165617 -1.15489034873487
 6 -11.13240272747275  0.21613915971597 -1.32177220552055
 6 -9.95175277887789 -0.25881607500750 -0.97708991029103
 6 -12.19445038273827  2.52201744314431 -1.57102655535554
 6 -12.37546133903390 -0.56122224602460 -1.88677800840084
 6 -12.12736464536454 -1.03930412271227 -3.33534418561856
 7 -7.26592955535553 -1.37467230293029 -0.08813148824882
 6 -8.30298462476248 -2.16629517501750 -0.59345092499250
 6 -8.01929396919692 -3.57272782418242 -0.52457275707571
 6 -6.60399819031903 -3.61226420852085 -0.08350043174317
 6 -6.27971170287029 -2.18644660046005  0.12067390279028
 6 -8.76551889138914 -4.70366646504650 -0.96832021512151
 6 -5.46715217811781 -4.47330089348935  0.22225719981998
 8 -5.35684667696770 -5.65822267926793  0.29209515811581
 6 -4.26865136773677 -3.39982743014301  0.63006132773277
 6 -3.65375955275528 -3.76549449214922  1.88538450695069
 8 -3.85647843124312 -3.28541589948995  2.99263262146215
 8 -2.76601195399540 -4.82778139663966  1.78068710621062
 6 -2.15192414941494 -5.33105831173117  2.89854725512551
 6  2.73163948434844 -0.81367965686569 -1.21887540474047
 6  4.13992487768777 -0.64145941384138 -0.63879644244424
 6  5.00142563386339  0.21580810881088 -1.03029590659066
 6  5.07923164876488  1.19461713701370 -2.14269840484048
 6  6.31321760046005  0.19743035903590 -0.07104762916292
 6  7.65374682728273 -0.16557510551055 -0.93064339303930
 6  8.93754146574658 -0.18025984208421  0.02346624422442
 6  10.19824528512851 -0.57861952515252 -0.65440116011601
 6  10.32859613621362 -1.97392527242724 -1.26360332633263
 6  11.40239490329033 -0.31087597869787  0.15963800130013
 6  12.71963969946995 -0.43277331083108 -0.63590109520952
 6  14.01352262406241 -0.01308702300230  0.35553196479648
 6  15.28566455745575 -0.16628571217122 -0.40202585508551
 6  15.61009728072807 -1.60128851715172 -0.80426225252525
 6  16.45922291499150  0.46411292859286  0.35224995969597
 6  17.85062264996500  0.67593132273227 -0.31656818381838
 6  18.80549096769677  1.47490556905691  0.64401765846585
 6  20.25981878627863  1.48451788428843  0.05714242024202
 6  20.49151199699970  2.22118942404240 -1.26923161906191
 6  21.35321038803880  1.91770347024702  1.06986092609261
 1 -4.11480184368437  3.34931818321832  1.82237833363336
 1 -9.95786791009101  4.04759703420342 -0.46546107230723
 1 -10.38838326242624 -2.30739627472747 -1.11946976637664
 1 -2.66923421062106 -1.13463366606661  1.91853834453445
 1 -2.15894936123612  1.61489355045505  1.23561721072107
 1 -1.51877496389639  0.92901200760076  3.31264160156016
 1 -2.93223033213321  2.08330755355536  3.78962698489849
 1 -3.37651045154515  0.54795995029503  3.89818150335033
 1 -1.77813293229323 -1.68368903970397 -0.23865187228723
 1 -2.30821719071907  0.02590020982098 -0.81458819341934
 1 -0.31482691139114  0.69139872717272  0.85059892289229
 1 -0.07899631993199 -0.81503226982698  1.35519897819782
 1 -5.21704588228823  6.47502501450145  0.32527235853585
 1 -5.65930740204020  6.19029191059106  2.22638465096510
 1 -4.42191703630363  5.32662693069307  0.95678641124112
 1 -9.32861312111211  6.01771515351535 -0.54551590429043
 1 -9.02417148084808  7.99789951095109  0.49066884258426
 1 -7.60716864896490  7.45682251865187  1.54496345664566
 1 -11.69006947994799  2.80854000110011 -2.59297512901290
 1 -13.07148444614461  1.94557329972997 -1.88690441864186
 1 -12.44649568226823  3.27391472557256 -0.87990843034303
 1 -12.37064902980298 -1.25635655845585 -1.15375887678768
 1 -13.38052035113511  0.00890818031803 -1.84637039143914
 1 -12.73764896409641 -1.96302996509651 -3.59123008110811
 1 -12.14302470817081 -0.20377884918492 -4.12785176357636
 1 -11.30704554395439 -1.65160618781878 -3.62779105730573
 1 -9.48422304090409 -4.38070457125713 -1.78057412041204
 1 -8.23011739693969 -5.76489244254425 -1.54485444054405
 1 -9.46350052905291 -4.93181162956296 -0.14390665936594
 1 -3.60763828232823 -3.47547415301530 -0.11059879797980
 1 -1.46978036563656 -4.51904411781178  3.20573229082908
 1 -2.79168560586059 -5.93187271217122  3.58556959465947
 1 -1.41880240074007 -6.00320110491049  2.43586694779478
 1  2.33062111691169 -1.67952457525753 -1.69141058975898
 1  2.51929837113711  0.05583366816682 -1.98716977447745
 1  4.29874036073607 -1.34130254405440  0.08309971017102
 1  4.25095040654065  1.10324586728673 -2.94403488918892
 1  5.17479441164116  2.18024844874487 -1.65893333173317
 1  6.04946451495150  0.98236942784278 -2.72244850175018
 1  6.55256344024402  1.43546352695269  0.01934154805481
 1  6.19048692079208 -0.34825216191619  0.83918011351135
 1  7.61328345114512 -1.14311498449845 -1.43053781098110
 1  7.69449200770077  0.73434253725373 -1.66735755865587
 1  8.98681472577258  0.80470996849685  0.57972040014001
 1  8.63922704350435 -0.93809216191619  0.80172629602960
 1  10.22954758655866 -0.03599745194519 -1.65749090709071
 1  9.35624523362336 -2.51768005150515 -1.65100348224822
 1  11.07304644524453 -2.06192959225923 -1.99165452355236
 1  10.46534873197320 -2.73910802550255 -0.35212260596060
 1  11.42656429802980  0.54172060546055  0.55197296809681
 1  11.28167576307631 -0.97695899349935  1.06533285338534
 1  12.76927487998800 -1.50344776407641 -1.09824209570957
 1  12.64952078197820  0.32503743974397 -1.39317365106511
 1  13.83459487978798  1.04140950425042  0.61953678237824
 1  14.03280159075908 -0.80063644254425  1.25213758775878
 1  15.15658606000600  0.25225862286229 -1.32296356515652
 1  15.70355415221522 -2.39965930713071  0.00944280878088
 1  14.69185082948295 -2.05456997699770 -1.31066243974397
 1  16.40475875547555 -1.68289918691869 -1.45314182748275
 1  16.38206147964796  1.60309864356436  0.74370028632863
 1  16.84417849564957 -0.19538582338234  1.35724421912191
 1  18.22870960866087 -0.34717123112311 -0.49927012261226
 1  17.68863617321732  1.19820871497150 -1.38650439403940
 1  18.46205526242624  2.40898216621662  0.68360030683068
 1  18.92122808530853  0.94840968046805  1.36957020252025
 1  20.51398123042304  0.57710870847085 -0.07408151595159
 1  20.10978779727973  3.24255503200320 -1.18478066276628
 1  21.66690049084908  2.24691583368337 -1.55294327552755
 1  19.90582898049805  1.85409569976998 -2.22265064946495
 1  21.42396625012501  1.32839848074807  2.02915658445845
 1  22.20582847564756  2.00074054475448  0.61602825642564
 1  21.02782286078608  2.89910602780278  1.46729386608661

