%nproc=4
%Mem=3GB
# td=(NStates=1) iop(3/107=0140000000,3/108=0140000000) CAM-B3LYP/6-31G(d,p) 

TD

0 1
12 -7.18684337603760  0.56843522702270  0.06776314631463
 6 -4.82406122262226 -2.00429766036604  0.46332173457346
 6 -4.80103613421342  2.83494221212121  1.19107921312131
 6 -9.44723148764876  3.08746629962996 -0.42827530283028
 6 -9.53851994999500 -1.69324108980898 -0.85026183108311
 7 -5.19973700490049  0.43123921452145  0.81694951895190
 6 -4.38825107240724 -0.64559570277028  0.84155204990499
 6 -2.90806702730273 -0.41640003800380  1.24286995609561
 6 -2.99393262016202  1.10865956755676  1.77464374367437
 6 -4.39143937863786  1.54780943204320  1.14780917481748
 6 -2.94107028782878  1.29702252155216  3.31198651325133
 6 -2.02022775247525 -0.53546953615362  0.01067487778778
 6 -0.51068677787779 -0.51960520852085  0.59874325662566
 6  0.48174009720972 -0.61354797669767 -0.50132992309231
 8  0.19819003580358 -0.92372615031503 -1.60461785488549
 8  1.78008660706071 -0.38677861626163 -0.21416680428043
 7 -7.05327297069707  2.64439764966497  0.25118604270427
 6 -6.03803394719472  3.45261902930293  0.78263413951395
 6 -6.36901180958096  4.80238710231023  0.72071032973297
 6 -7.66311109640964  4.88098990419042  0.30459658605861
 6 -8.09779930743074  3.50443738253825  0.09834783338334
 6 -5.47929996389639  5.83991346504650  1.17370752595260
 6 -8.60262027002700  6.03049331893189  0.31410202270227
 6 -8.31734014401440  7.26890604030403  0.75247930723072
 7 -9.12800184128413  0.62419941434143 -0.59688626252625
 6 -9.86932441874187  1.80547387168717 -0.68845165866587
 6 -11.27063101580158  1.52417186168617 -1.15040990069007
 6 -11.23278276547655  0.17151469726973 -1.27121715001500
 6 -9.91857946154616 -0.35419561296130 -0.90162236353635
 6 -12.38041897959796  2.51473671507151 -1.26971642434243
 6 -12.25554934783478 -0.80858698249825 -1.80785011561156
 6 -11.96835874477448 -1.21815200750075 -3.28216886808681
 7 -7.17189015141514 -1.46187102280228 -0.10952362746275
 6 -8.20985531183118 -2.19708825432543 -0.60809238913891
 6 -7.86671871167117 -3.63935448684868 -0.53683398319832
 6 -6.51989978047805 -3.66001898399840 -0.14078616031603
 6 -6.17216094779478 -2.32033998979898  0.11348318371837
 6 -8.61849418891889 -4.83979007740774 -0.93032641574157
 6 -5.31914737763776 -4.42450601400140  0.21685665976598
 8 -5.09844083638364 -5.63866072307231  0.22013796239624
 6 -4.02883738633863 -3.29867731513151  0.56151447304730
 6 -3.43008718551855 -3.59790773347335  1.89060502900290
 8 -3.64289707310731 -3.14607196509651  2.94273763196320
 8 -2.59837519031903 -4.63775239373937  1.74857389488949
 6 -2.15907486448645 -5.28065327122712  3.00477787818782
 6  2.79278559895990 -0.57566585548555 -1.22386590379038
 6  4.09259014421442 -0.34306957485749 -0.57744030683068
 6  5.09511500280028  0.41383791179118 -1.06085896289629
 6  5.05876960256026  1.14398207350735 -2.41275541054105
 6  6.44217049574957  0.41864248024802 -0.27500802520252
 6  7.66115756835684 -0.06087463546355 -1.00675100380038
 6  8.90116782838284 -0.03124494059406 -0.11114721712171
 6  10.13865932653265 -0.43865552875288 -0.88756447644764
 6  9.97750102670267 -1.87984586448645 -1.27349431543154
 6  11.37338200200020 -0.23855874697470  0.01518355585559
 6  12.72845058055806 -0.56292632613261 -0.67346485158516
 6  13.96573784558456 -0.15111082538254  0.16261267286729
 6  15.35602159315932 -0.27585666926693 -0.51432708520852
 6  15.51453772477248 -1.68293668196820 -0.96954878117812
 6  16.38635562826283  0.31463798109811  0.52607734243424
 6  17.72386997469747  0.52810654025403 -0.18140466746675
 6  18.80719113771377  1.16961504000400  0.72310556725673
 6  20.28427123152315  1.19201863436344  0.17752445844584
 6  20.35121796759676  1.97537484258426 -1.02986768266827
 6  21.06965203220322  1.88953065296530  1.36690063006301
 1 -4.24363472697270  3.49652290369037  1.97746384218422
 1 -10.08983110641064  3.99383165766577 -0.69573409960996
 1 -10.07242166626663 -2.58988452355235 -1.22823064246425
 1 -2.62532982018202 -0.98922912561256  2.02111860256026
 1 -2.23632709900990  1.72040410151015  1.18307195619562
 1 -1.90048313471347  0.90477958435844  3.52421275867587
 1 -2.82597970707071  2.51206042884288  3.52290031223122
 1 -3.47139994049405  0.39745489978998  3.75175686088609
 1 -1.98002312131213 -1.48410908170817 -0.27549555665567
 1 -2.22249861886189  0.13662128192819 -0.79744647924792
 1 -0.16918234693469  0.46539612691269  0.91198506150615
 1 -0.30675909620962 -1.08521928852885  1.42814627292729
 1 -5.66752092979298  6.70380789278928  0.29942977427743
 1 -5.92486395769577  6.34120700210021  2.02397440994099
 1 -4.50644548914892  5.59889415741574  1.15578631123112
 1 -9.39219947974797  6.00186356835684 -0.39958131083108
 1 -9.08805786948695  8.17263698469847  0.93234301000100
 1 -7.37387531963196  7.41842867926793  1.21938089838984
 1 -12.59142961596160  3.19877902500250 -2.35812164366437
 1 -13.50090738843884  1.72285102750275 -1.28882461066107
 1 -12.42214324702470  3.19368670277028 -0.40967140664066
 1 -12.41410337523752 -1.72963388618862 -1.13958745964596
 1 -13.31020331943194 -0.32849556005601 -1.87409316371637
 1 -12.76845204440444 -1.71682534463446 -3.66687764586459
 1 -11.82575298099810 -0.48337680898090 -3.95934491289129
 1 -11.03455829522952 -1.98175920312031 -3.04591286948695
 1 -8.97534215281528 -4.78231473227323 -1.89715577857786
 1 -7.80579496469647 -5.71946790009001 -1.02269222432243
 1 -9.52102628162816 -5.09266771517152 -0.29026129482948
 1 -3.44265178367837 -3.65620222582258 -0.28509624772477
 1 -1.75887927552755 -4.39960217361736  3.60158187578758
 1 -2.92197863516352 -5.69416894179418  3.59027006470647
 1 -1.56576709720972 -6.01304208900890  2.70064342544254
 1  2.84783283808381 -1.62138876167617 -1.42401385008501
 1  2.29367580888089 -0.00521243644364 -2.04000505800580
 1  4.28778926562656 -1.06466488028803  0.26676807700770
 1  4.13332864436444  1.31558710141014 -2.59245973167317
 1  5.54846177837784  2.11598202210221 -2.42876031443144
 1  5.50164973347335  0.78518970987099 -3.29134539143914
 1  6.53308149204921  1.23502348294829  0.02719233313331
 1  6.09878775087509 -0.06525386208621  0.71978817431743
 1  7.38554067686769 -1.05106577957796 -1.17144190139014
 1  7.73835639413941  0.50076917991799 -1.91389221212121
 1  8.85700174447445  0.87226672417242  0.53166559465947
 1  8.84312743354335 -0.88407676037604  0.56517264066407
 1  10.24587921972197  0.35833198099810 -1.68246340434043
 1  9.07711732083208 -2.30735901940194 -1.76017439933993
 1  10.89151829242924 -2.17741114041404 -2.07336269436944
 1  10.09102129922992 -2.54730884558456 -0.45964335803580
 1  11.27545918751875  0.69606604000400  0.34817258805881
 1  11.25629322482248 -0.81096239383938  1.00427674777478
 1  12.72945089758976 -1.65272269156916 -0.96881915341534
 1  12.49184501440144 -0.12954801880188 -1.57707204090409
 1  13.69029044934494  0.85395075837584  0.55079990869087
 1  14.06966527712771 -0.79436581548155  1.05900827482748
 1  15.41578197959796  0.26603000000000 -1.29221048984898
 1  15.27554135093509 -2.52343168436844 -0.18505664116412
 1  14.69867151155115 -1.72590711071107 -1.88603997749775
 1  16.54521280088009 -1.71046194319432 -1.25354186748675
 1  15.96667994149415  1.29737807150715  0.76823273957396
 1  16.30905498329833 -0.19657594239424  1.45369386408641
 1  17.98209494719472 -0.61457797179718 -0.10050024562456
 1  17.49459676927693  0.90278917301730 -1.11917766136614
 1  18.40939999689969  2.17815908390839  0.92455440224022
 1  18.81170713321332  0.75256009550955  1.76897014251425
 1  20.35402523482349  0.25211620922092 -0.14315842364236
 1  20.04341115961596  2.95126590309031 -0.90164234893489
 1  21.35297909870987  2.09413055515552 -1.37025500670067
 1  19.78080647824783  1.68126841704170 -1.87924630903090
 1  21.09669352285228  1.27967360826083  2.37076074487449
 1  22.06338423122312  1.92711318201820  0.96135278887889
 1  20.77320739923993  2.78913503070307  1.63374051075108

