%nproc=4
%Mem=2GB
# td=(NStates=1) CAM-B3LYP/6-31G(d,p) 

TD

0 1
12 -7.16924749774977  0.51322007010701  0.16458414581458
 6 -4.88875349334934 -1.92202338073807  0.47414394709471
 6 -4.84912484138414  2.91437988528853  1.06939330423042
 6 -9.38656339183918  3.07732322782278 -0.44908776847685
 6 -9.59503981768177 -1.81035654665467 -0.78393482258226
 7 -5.02051547614762  0.49848966706671  0.80132055035504
 6 -4.31536124222422 -0.69273909590959  0.66145416861686
 6 -2.93925293069307 -0.33650307600760  1.16616697089709
 6 -3.07242068046805  1.12858552685269  1.69369009970997
 6 -4.39693668856886  1.57947869666967  1.23433046294629
 6 -3.00924600670067  1.31541382948295  3.27897930683068
 6 -1.87583104410441 -0.50434569596960  0.02690664896490
 6 -0.47227465006501 -0.35493984118412  0.46255038433843
 6  0.53490462766277 -0.54291780468047 -0.65101048154815
 8  0.25764700480048 -0.79873528112811 -1.79827615931593
 8  1.74657646814681 -0.32130952735274 -0.20386717561756
 7 -7.11243169106911  2.63074866466647  0.27125582108211
 6 -6.08825810481048  3.35386636243624  0.73543707730773
 6 -6.44721197429743  4.78597288668867  0.78282897009701
 6 -7.66746945394539  4.90741137263726  0.23671206250625
 6 -8.14396866846685  3.54099329462946 -0.02198965266527
 6 -5.49353731043104  5.82397486338634  1.20171493199320
 6 -8.50348814641464  6.05911694539454  0.07997498289829
 6 -8.40160405170517  7.16316243484348  0.90558680848085
 7 -9.15550782338234  0.64414727582758 -0.40795482918292
 6 -9.89655591529153  1.69773972707271 -0.69956628072807
 6 -11.17343644024402  1.45320365946595 -1.12180389988999
 6 -11.28137054095409  0.13378874297430 -1.21256997099710
 6 -9.94961064176418 -0.43892586688669 -0.81330634673467
 6 -12.35930475417542  2.32050262126213 -1.46319309410941
 6 -12.33526807310731 -0.83845125522552 -1.65280608910891
 6 -12.37234472287229 -1.22676508770877 -3.10171529012901
 7 -7.23952342064206 -1.43126273987399 -0.09400407740774
 6 -8.25836607640764 -2.30715588768877 -0.44783973917392
 6 -7.80969711531153 -3.63122138963896 -0.48139541684168
 6 -6.49468335243524 -3.58137247424743  0.00273854195420
 6 -6.27624022042204 -2.18464674597460  0.19893269746975
 6 -8.65562302970297 -4.79484232663266 -0.72128060646065
 6 -5.27692216251625 -4.30575445894589  0.12729560216022
 8 -5.07094593249325 -5.50213469686969 -0.01428439773977
 6 -4.20058363776378 -3.38620441024102  0.47896776207621
 6 -3.56935756665667 -3.65765098639864  1.83159353225323
 8 -3.82374397499750 -3.07991472767277  2.81858453955396
 8 -2.75370656435644 -4.74458918131813  1.65577415831583
 6 -2.16621720962096 -5.08641287038704  2.93699863536354
 6  2.75503801550155 -0.56136393099310 -1.23186438683868
 6  4.10730281928193 -0.34586276257626 -0.51811196019602
 6  5.14620810521052  0.32547881328133 -1.00876064876488
 6  5.13590201320132  1.12145479477948 -2.17461162646265
 6  6.45436976977698  0.35300715091509 -0.26651313651365
 6  7.60243778167817 -0.20352069896990 -0.96023297379738
 6  8.87973984658466 -0.14464959535954 -0.23224503730373
 6  10.16741736623662 -0.70859793149315 -0.92780375087509
 6  10.07223392359236 -2.31564250035004 -1.12004546954695
 6  11.44129700660066 -0.34524830563056 -0.11812094349435
 6  12.85447035473547 -0.62945699679968 -0.77434745764576
 6  13.99618908730873 -0.19592079487949  0.18263533103310
 6  15.37345347024702 -0.21719544864486 -0.51168940874087
 6  15.80492216111611 -1.66769440324032 -0.80355997369737
 6  16.42333643954396  0.49919427942794  0.42209671687169
 6  17.81577616701670  0.56704810321032 -0.16995280988099
 6  18.76639700920092  1.26655487248725  0.85609604260426
 6  20.33843251245125  1.41623195669567  0.32560732393239
 6  20.49428078187819  2.17689598679868 -1.03893488618862
 6  21.16705763656366  2.00293322962296  1.30428579197920
 1 -4.12256374087409  3.68150367176718  1.47446203310331
 1 -10.05056544924492  3.91595243024302 -0.84795018651865
 1 -10.41249453885388 -2.33287262806281 -1.25593224542454
 1 -2.57962441934193 -0.98102641654165  1.90514120532053
 1 -2.25470907610761  1.74878846144614  1.15361601200120
 1 -2.05831028852885  1.09624007690769  3.61639535303530
 1 -3.22521758175818  2.27605166266627  3.71209337473747
 1 -3.79550299299930  0.73193787778778  3.75912832563256
 1 -1.89475196009601 -1.46066602700270 -0.44252816201620
 1 -2.07713938643864  0.06315356575658 -0.73015305490549
 1 -0.44994851225123  0.43010762466247  0.92138253735374
 1 -0.35209301130113 -0.93841835703570  1.37216117131713
 1 -5.79770854625463  6.76641528562856  0.81041675087509
 1 -5.79615660506051  6.10988435153515  2.29510580768077
 1 -4.46669062506251  5.36994816121612  0.97553072867287
 1 -9.29373142564257  6.17745389348935 -0.54486471467147
 1 -9.15880709660966  7.89525026392639  0.84334395619562
 1 -7.69517898369837  7.36537293679368  1.71544993049305
 1 -12.33103720882088  2.58948927492749 -2.67039004370437
 1 -13.29850952015201  1.74322821402140 -1.38276946844684
 1 -12.64425615671567  3.10278893359336 -0.60963220722072
 1 -12.25240001840184 -1.86257570267027 -1.14370932583258
 1 -13.34914363326333 -0.50467720452045 -1.54697022452245
 1 -13.06615296789679 -1.88925361156116 -3.44611449594959
 1 -12.49486305050505 -0.29648418601860 -3.67176067176718
 1 -11.42644892419242 -1.77894276137614 -3.59672829282928
 1 -9.43504310731073 -4.69007975087509 -1.52342560666067
 1 -7.86571593639364 -5.59355936013601 -0.69045865886589
 1 -9.20660054495450 -5.10884590589059  0.18579675707571
 1 -3.53749444534453 -3.64963821452145 -0.30863613511351
 1 -1.40550871737174 -4.25530196989699  3.28862177747775
 1 -2.84761437003700 -5.25206682428243  3.74793763266327
 1 -1.78080619211921 -6.23014228742874  2.74874882778278
 1  2.79834913901390 -1.64021585748575 -1.50384434943494
 1  2.34194167176718 -0.03622934333433 -2.24245739793979
 1  4.11586249184919 -0.66010822602260  0.72885610161016
 1  4.14665362886289  1.24966367676768 -2.54465283498350
 1  5.66337174887489  2.20110036893689 -2.19153562176218
 1  5.74224153175318  0.48802991049105 -2.99801853285329
 1  6.62699476237624  1.44654865486549 -0.06493385058506
 1  6.25191931133113 -0.21967000440044  0.73064278097810
 1  7.59558694339434 -1.35533476867687 -1.15779710331033
 1  7.83830626652665  0.19333254135414 -1.97314023762376
 1  8.93178523012301  0.93714159915992  0.32553018521852
 1  8.47543603230323 -0.87157266346635  0.51296916061606
 1  10.33686123752375 -0.19645710801080 -1.85742063156316
 1  9.33272825832583 -2.39657763426343 -1.90966689148915
 1  10.98642119781978 -2.78883566746675 -1.65179942384238
 1  9.77819070507051 -2.87487942994299 -0.08497793749375
 1  11.25270295119512  0.82395462566257  0.14157564506451
 1  11.41994504790479 -0.80334629592959  0.98408903050305
 1  12.93804712361236 -1.60934909610961 -0.93132079967997
 1  13.02015576807681  0.01332202320232 -1.69199256055606
 1  13.89754119081908  0.78310086608661  0.57787513051305
 1  14.03453620672067 -0.76943654835484  1.21134765126513
 1  15.21107439593959  0.39191867686769 -1.39315367336734
 1  15.71675911881188 -2.40079037113711 -0.11582303620362
 1  15.11321437213721 -2.06386876247625 -1.73044045914592
 1  16.82028165756576 -1.72707823272327 -1.64535600510051
 1  15.99091429212921  1.51803963766377  0.57237378167817
 1  16.52067651485148 -0.00803997909791  1.39114187538754
 1  18.14972591129113 -0.56064261166117 -0.36322966336634
 1  17.97457452195220  1.32199951885188 -0.95047862366237
 1  18.34179497209721  2.27127128482848  1.05546355165517
 1  18.68393555385539  0.74844902590259  1.89196919721972
 1  20.47073198589859  0.41710785898590 -0.05798873487349
 1  19.98751285788579  3.20125368726873 -0.90508410181018
 1  21.58144239633964  2.51153780658066 -1.44156551985198
 1  20.07108101250125  1.78057986878688 -2.01726869586959
 1  21.14840081528153  1.42186029512951  2.37204682188219
 1  22.23240494679468  2.14289551925192  1.23955892219222
 1  20.86383611351135  3.00106018931893  1.28003844434443

