%nproc=4
%Mem=2GB
# td=(NStates=1) CAM-B3LYP/6-31G(d,p) 

TD

0 1
12 -7.11657223022302  0.59439818791879  0.07866555395540
 6 -4.89404402240224 -1.93762494089409  0.56466299899990
 6 -4.81179110801080  2.85892433973397  1.13207957285729
 6 -9.47963269876988  3.05872136763676 -0.43125598529853
 6 -9.56052636633664 -1.74081959295930 -1.02222865196520
 7 -5.14676810141014  0.49365918401840  0.66949736803680
 6 -4.38916862296230 -0.67227704970497  0.86155417861786
 6 -2.91273027842784 -0.29650907660766  1.21860221442144
 6 -3.03865730413041  1.09958262656266  1.66653738443844
 6 -4.38541553645365  1.56343709250925  1.12633966386639
 6 -2.85731081318132  1.28793108120812  3.26266767566757
 6 -1.90518397939794 -0.72823808520852  0.10932489078908
 6 -0.47660508310831 -0.44278862606261  0.46262039133913
 6  0.58548968616862 -0.65001851475148 -0.58977435793579
 8  0.34623586368637 -1.06141154875488 -1.69401573327333
 8  1.79418122862286 -0.38213560996100 -0.21011780068007
 7 -7.18385883378338  2.64007959775978  0.43129182468247
 6 -6.13878315731573  3.44070504630463  0.87419095269527
 6 -6.49128638173817  4.77980226962696  0.88249893709371
 6 -7.80396310331033  4.84718535003500  0.49929832113211
 6 -8.17333160476048  3.44928412371237  0.12288483478348
 6 -5.49983794049405  5.90898336423642  1.22050681118112
 6 -8.72989078667867  5.99049008270827  0.21915890129013
 6 -8.78275216651665  7.10160627922792  1.02076832663266
 7 -9.11463373597360  0.63706656775678 -0.47475150885089
 6 -9.88870513021302  1.80026998009801 -0.74984130823082
 6 -11.13079217581758  1.39221756085609 -1.20017173667367
 6 -11.18160056395640 -0.04314895079508 -1.37242595659566
 6 -9.92211789248925 -0.44231620592059 -0.98451346744674
 6 -12.20252907660766  2.42046261726173 -1.51199797459746
 6 -12.36509105540554 -0.78795620572057 -1.81330213871387
 6 -12.23181066946695 -1.19967237843784 -3.36275139373937
 7 -7.17881735003500 -1.32627224082408 -0.26891156815682
 6 -8.24317455725573 -2.15411058315832 -0.58698365356536
 6 -7.79240538613861 -3.61147941544154 -0.61213849114911
 6 -6.43282716681668 -3.56458079507951 -0.06568830073007
 6 -6.10185278167817 -2.16012429372937  0.07911071527153
 6 -8.71029849724972 -4.79524236663666 -0.87184566296630
 6 -5.28973344364436 -4.35573945744574  0.26451932453245
 8 -5.04872371027103 -5.53671815521552  0.27911494219422
 6 -4.16560013941394 -3.32888867866787  0.69899976527653
 6 -3.44294492539254 -3.53401862316232  1.93567394029403
 8 -3.80840244084408 -3.02433917011701  3.02383506460646
 8 -2.66425761946195 -4.58737345974597  1.84970355125513
 6 -2.08312890079008 -5.01938616771677  3.07622255775578
 6  2.80428293999400 -0.63701149574957 -1.19812101250125
 6  4.16767885688569 -0.54200237653765 -0.55313546254625
 6  5.15136862126213  0.26179244464446 -1.01278105080508
 6  5.01160958395840  1.00010265956596 -2.32041620692069
 6  6.47573190599060  0.45516736693669 -0.25507199239924
 6  7.67280481838184 -0.33000334723472 -1.00437738823882
 6  8.89871174377438 -0.08852398279828 -0.23213502630263
 6  10.15516614111411 -0.59824689638964 -1.04791576207621
 6  9.97831453165317 -2.09460039613961 -1.26345981098110
 6  11.39607248414842 -0.23201698249825 -0.18373750515052
 6  12.82033694139414 -0.47106115721572 -0.77810783368337
 6  13.92626209460946 -0.05126632943294  0.09592666016602
 6  15.35830195509551 -0.13408713781378 -0.49626786658666
 6  15.61160282918292 -1.66694432823282 -0.81400101780178
 6  16.45439954585459  0.45589994999500  0.41416592379238
 6  17.79271386078608  0.57639903830383 -0.20116593119312
 6  18.75261563106311  1.24390260726073  0.74724515751575
 6  20.28134680388039  1.30552088558856  0.22476723992399
 6  20.45162651645165  2.15986428362836 -1.02930392309231
 6  21.21251218201820  1.74267720402040  1.45908127152715
 1 -4.17607909240924  3.60646616801680  1.56098068496850
 1 -10.11483187588759  3.82020285528553 -0.72129752125212
 1 -10.20937422682268 -2.49174851565157 -1.31165781798180
 1 -2.56554301120112 -0.96846516041604  2.04777546874687
 1 -2.28741234643464  1.82259584218422  1.25630628102810
 1 -1.69890434793479  1.05355580848085  3.56712042554255
 1 -3.02882794279428  2.31687574507451  3.40975314071407
 1 -3.59498294099410  0.75795047904791  3.79364177697770
 1 -2.32904538943894 -1.72464242464246 -0.24714862406241
 1 -2.23453512601260 -0.09710245984598 -0.74341438103810
 1 -0.42138565596560  0.54628924282428  0.93553395249525
 1 -0.21384918691869 -1.21735625082508  1.35450940614061
 1 -5.95826460186019  6.80875952005201  0.65954166336634
 1 -5.46054304370437  5.98611197429743  2.29842613971397
 1 -4.59424338033803  5.56986815321532  0.78825200080008
 1 -9.25287734023402  5.95478162626263 -0.61098132633263
 1 -9.50908212411241  7.95926666556656  0.93219284108411
 1 -8.17556702250225  7.13888028752875  2.03908229372937
 1 -11.86015012011201  3.13055338133813 -2.05769877457746
 1 -12.98978864806481  1.79351324252425 -2.11381257275728
 1 -12.55760749184919  2.93492214691469 -0.42269351335134
 1 -12.45864064246425 -1.60154960006001 -1.26259121402140
 1 -13.20817953685368 -0.27854459125913 -1.63823935143514
 1 -13.22378873147315 -1.92184687088709 -3.61491137563756
 1 -12.32486605080508 -0.36736127372737 -4.15491898759876
 1 -11.43286956625663 -1.87721258835884 -3.45549416941694
 1 -9.07071667466747 -4.82852359525953 -1.80407367146715
 1 -7.97444680948095 -5.70967097129713 -0.84248386138614
 1 -9.39090897579758 -4.77825284658466 -0.08818064066407
 1 -3.41677237313731 -3.46859010971097 -0.03716898839884
 1 -1.19785795229523 -4.43617005670567  3.47022993829383
 1 -2.80389999859986 -5.08394001160116  3.93663650255026
 1 -1.51155926742674 -5.87891716491649  2.71660561346135
 1  2.47227653175318 -1.66950878677868 -1.55175914091409
 1  2.69005648324833  0.02868714831483 -2.06548970117012
 1  4.22279318491849 -1.11034324952495  0.26849006500650
 1  4.09716868036804  0.91445015541554 -2.69994836453645
 1  5.27851326302630  2.14362462136214 -2.21590805900590
 1  5.78998630623062  0.66425753325333 -3.13967269826983
 1  6.83942600550055  1.68766276627663 -0.15164252145214
 1  6.34256837623762 -0.06487452485248  0.84317403410341
 1  7.39151653635364 -1.43290252545255 -0.74720604420442
 1  7.74166660256026  0.01745495359536 -2.06047897149715
 1  8.91069312091209  1.13709159415942 -0.08612097989799
 1  8.66177466616662 -0.70015552175217  0.73571143484348
 1  10.40430798219822 -0.12866032833283 -2.01301619111911
 1  9.11175616111611 -2.57006498299830 -1.91011693649365
 1  10.74202675837584 -2.44850163406341 -1.66468071197120
 1  10.25834872087209 -2.67609955195520 -0.20745018471847
 1  11.29680736163616  0.76990922112211  0.35087657515752
 1  11.37744079747975 -1.03530949224922  0.61433205480548
 1  12.91380469936994 -1.41175933713371 -1.04174184178418
 1  12.89992374487449  0.01314200520052 -1.78704206550655
 1  13.99461089778978  1.12688524452445  0.16022336533653
 1  13.85361811491149 -0.46219582428243  1.02493901040104
 1  15.47875116361636  0.45422490749075 -1.35991034903490
 1  15.74869231213121 -2.20492078417842  0.13545209130913
 1  14.65890894159416 -1.84234661026103 -1.40111752685268
 1  16.43728335773578 -1.93068859375938 -1.61015248474848
 1  16.17952315301530  1.45711354505451  0.84775131943194
 1  16.52763721092109  0.00596142104210  1.33317607880788
 1  18.09728066676668 -0.33231977937794 -0.36790013041304
 1  17.75239230373037  1.04087140604060 -1.05940951675168
 1  18.38048884148415  2.33077723542354  0.92865087038704
 1  18.76258341864187  0.69752393339334  1.80353035333533
 1  20.59550446314632  0.26262241044104  0.06520358435844
 1  20.20790489708971  3.22563612551255 -0.75238883228323
 1  21.46600085218522  2.01471812461246 -1.66510787408741
 1  19.66262016641664  1.67774958575858 -1.73498046704670
 1  21.22702867806781  0.79133724282428  2.22449206640664
 1  22.15363707000700  1.72181341104110  0.81602656895690
 1  20.71540127002701  2.51399148244825  2.12385282578258

