%nproc=4
%Mem=3GB
# td=(NStates=1) iop(3/107=0140000000,3/108=0140000000) CAM-B3LYP/6-31G(d,p) 

TD

0 1
12 -7.13364805650565  0.63099148264826  0.03605997599760
 6 -4.83964278077808 -1.93093032363236  0.51994739713971
 6 -4.84856088668867  2.84683340124012  1.21367147234723
 6 -9.44902166666667  3.06844439743974 -0.38492096739674
 6 -9.58922502050205 -1.65378714441444 -0.88356516141614
 7 -5.10742777397740  0.45793188378838  0.65254307830783
 6 -4.39111135843584 -0.68508965216522  0.84841273597360
 6 -2.97308352895290 -0.34233263126313  1.18251392049205
 6 -3.08004123102310  1.08581728332833  1.64441072037204
 6 -4.41750198489849  1.50522517361736  1.14290868476848
 6 -2.89047522832283  1.15890871017102  3.18104341894189
 6 -1.88462419211921 -0.49192518171817  0.11204501480148
 6 -0.51166687588759 -0.46157940594059  0.52129551185119
 6  0.54491641484148 -0.64341096299630 -0.55606539663966
 8  0.29131934873487 -0.77027080478048 -1.75296268936894
 8  1.81567016541654 -0.60172011041104 -0.00805619321932
 7 -7.11803944734474  2.62366557645765  0.34761568566857
 6 -6.06806695049505  3.36600036743674  0.85957183328333
 6 -6.44196910531053  4.79915677927793  0.79313757245725
 6 -7.73484827012701  4.91248305350535  0.34782090849085
 6 -8.17289681718172  3.43506044484448 -0.02391439283928
 6 -5.63096513041304  6.00997047074708  1.08596875207521
 6 -8.55262527052705  6.04353462306231  0.11758237073707
 6 -8.42436084608461  7.22178132783278  0.74305836513651
 7 -9.15380442154216  0.68200519491949 -0.62984955885589
 6 -9.90661814811481  1.78473179747975 -0.69602241574157
 6 -11.22892684538454  1.52930237473747 -1.11067592729273
 6 -11.27280676787679  0.07858540434043 -1.24207423572357
 6 -9.93654125772577 -0.34629482288229 -0.90983318461846
 6 -12.42312325002500  2.45805104650465 -1.45165461816182
 6 -12.48253204610461 -0.71985810961096 -1.72341167176718
 6 -12.38110001890189 -1.24704489678968 -3.18008866006601
 7 -7.18017097949795 -1.35976081178118 -0.13311598669867
 6 -8.28159248554856 -2.17294584008401 -0.43391497139714
 6 -7.77211925172517 -3.51743229462946 -0.44375467526753
 6 -6.52721051155116 -3.42521550365037 -0.12658474017402
 6 -6.17602133383338 -2.14428238403840  0.16965880128013
 6 -8.57527986748675 -4.77023312171217 -0.83058644174417
 6 -5.32805826872687 -4.32121568496850  0.21079605370537
 8 -5.09725071737174 -5.51335819281928  0.06086203480348
 6 -4.10515501810181 -3.26445389278928  0.44532285388539
 6 -3.46182035883588 -3.72041998469847  1.84721068956896
 8 -3.60408319171917 -3.22175953385339  2.89877323552355
 8 -2.59980533333333 -4.85145376387639  1.66668570607061
 6 -1.92792174917492 -5.13064827072707  2.89289669006901
 6  2.83698001840184 -0.65717400630063 -1.06389990719072
 6  4.14028491369137 -0.43717898579858 -0.29103166596660
 6  5.13707919921992  0.36936346434643 -0.78697157415742
 6  5.15470919651965  1.18262593789379 -2.05605974097410
 6  6.49820609930993  0.22916353235324 -0.03099362376238
 6  7.65944739733973 -0.18337688568857 -0.95868619731973
 6  8.95144285588559 -0.11632344844484 -0.21540764316432
 6  10.25566102670267 -0.67503916711671 -0.94238995899590
 6  10.05353863046305 -2.07732561246125 -1.32912987898790
 6  11.47006166996700 -0.46344123522352 -0.07369533203320
 6  12.71224896039604 -0.70967100060006 -0.64159166426643
 6  13.96101737353735 -0.17270298459846  0.09308572017202
 6  15.34541053205321 -0.30142922652265 -0.51365701820182
 6  15.70117638863887 -1.59646803510351 -1.07321914821482
 6  16.39659665236524  0.32860937823782  0.39683441814181
 6  17.80967855555556  0.51386511611161 -0.23833036003600
 6  18.75847626622662  1.28569664816482  0.75608886558656
 6  20.19055185958596  1.38127756025603  0.22894960096010
 6  20.25105795159516  2.23621092619262 -1.01276597249725
 6  21.02187725472547  1.96742844274427  1.37262120212021
 1 -4.22138250175017  3.57737098849885  1.53645974177418
 1 -10.08286040934093  3.95698797329733 -0.63466799299930
 1 -10.44416884098410 -2.71362689778978 -1.04852267166717
 1 -2.72998028522852 -0.93944414711471  2.03711020172017
 1 -2.32488595489549  1.72503456455646  1.23453710271027
 1 -2.10383346974697  0.59458856525653  3.46399673707371
 1 -2.99834694379438  2.18298752155216  3.44334235643564
 1 -3.83390619111911  0.60211536583658  3.65089677487749
 1 -2.17271239023902 -1.38094876567657 -0.23588159525953
 1 -2.16289265826583  0.30701832163216 -0.64113084768477
 1 -0.31401683038304  0.36623621092109  1.01879574257426
 1 -0.21029945024502 -1.25997676427643  1.29478293659366
 1 -5.71534571227123  6.84932244424442  0.42936276757676
 1 -5.58354982628263  6.26443932533253  2.11524353685369
 1 -4.52047689228923  5.75652992099210  0.94835556815681
 1 -9.29450971077108  6.04632801480148 -0.71786313901390
 1 -9.15103416711671  8.00923064406441  0.44175395109511
 1 -7.84005193729373  7.48809564596460  1.57643660396040
 1 -12.14263473647365  2.91437058415842 -2.56789262076208
 1 -13.40213751145114  1.89885862826283 -1.58811453965397
 1 -12.45651668436844  3.32657999209921 -0.70942138163816
 1 -12.45492745764576 -1.64881580438044 -1.08784228512851
 1 -13.36304860396040 -0.19475218571857 -1.78369412381238
 1 -13.22201740094009 -2.00685434753475 -3.28469942804280
 1 -12.47637804350435 -0.24637310861086 -3.77322630103010
 1 -11.58724356375638 -1.94693572077208 -3.46808508670867
 1 -9.37939255785578 -4.51992849364937 -1.74472053505351
 1 -7.94362874807481 -5.89186513981398 -1.02280223532353
 1 -9.28783296229623 -4.93206165456546  0.06693442474247
 1 -3.41286880538054 -3.38588519411941 -0.23964170227023
 1 -1.47488087568757 -4.29034124752475  3.18613033063306
 1 -2.85157159445945 -5.22688221312131  3.77641867956796
 1 -1.16158667916792 -6.02303308810881  2.77210057115712
 1  2.69177723252325 -1.73617023982398 -1.59577102580258
 1  2.75055149644965 -0.04689660486049 -1.82166322382238
 1  4.31849233593359 -1.06406482028203  0.67771917211721
 1  4.04396970847085  1.51478702140214 -2.07659814551455
 1  5.90976790899090  2.21358178207821 -1.89684712311231
 1  5.45210477897790  0.50439163006301 -3.04906116301630
 1  6.95124330823082  1.32671265186519  0.47300691459146
 1  6.53209108120812 -0.37585492219222  0.73299949544954
 1  7.43696581938194 -1.23280395339534 -1.33149790699070
 1  7.84259681818182  0.23150225322532 -1.89693051595160
 1  9.27108315261526  0.95625512301230  0.16036846494649
 1  8.93046616741674 -0.82164051675168  0.73235935933593
 1  10.46726135793579  0.03635978377838 -1.80068522652265
 1  9.27896750585059 -2.31941022452245 -1.95443382528253
 1  10.89724886548655 -2.54205760506051 -1.92864822292229
 1  10.04485668276828 -2.89708382308231 -0.49483687738774
 1  11.57022866446645  0.52696913031303  0.46411418221822
 1  11.39771736723672 -1.16407770537054  0.95860218031803
 1  12.82727067956796 -1.76029344864486 -0.74090636213621
 1  12.72246807670767 -0.35658072207221 -1.71335566926693
 1  13.84819623992399  0.92361772507251  0.28588341704170
 1  13.98088639923992 -0.78578495739574  0.94746712071207
 1  15.30022042344235  0.22333573057306 -1.40595186398640
 1  15.84318811561156 -2.27004634583458 -0.21072920842084
 1  14.91285292969297 -1.93781830183018 -1.81566293979398
 1  16.63001128072807 -1.57483838083808 -1.57572408570857
 1  15.87906117961796  1.30670900460046  0.75418133443344
 1  16.14926900470047 -0.32609889468947  1.31440993569357
 1  18.49238597629763 -0.46861337533753 -0.54558475407541
 1  17.81104841444144  1.13067196129613 -1.37920366396640
 1  18.47066612351235  2.23711497949795  0.92929487628763
 1  18.79411537403740  0.71922676217622  1.64653789928993
 1  20.56746657895790  0.44112511011101 -0.17131123892389
 1  19.67473429192919  3.10760153665367 -1.08279046374637
 1  21.36856065686569  2.50731187328733 -1.22415039623962
 1  19.75541393899390  1.86577686788679 -1.92899128352835
 1  21.13686754025402  1.58221386228623  2.31488515731573
 1  22.06566445924592  2.07862833353335  0.96816346994699
 1  20.62664274277428  2.91100721792179  1.58258539523952

