%nproc=4
%Mem=2GB
# td=(NStates=1) CAM-B3LYP/6-31G(d,p) 

TD

0 1
<<<<<<< HEAD
12 -7.13396396939694  0.62985173327333  0.03807149454945
 6 -4.88423304130413 -2.01163234163416  0.43840037273727
 6 -4.82089201810181  2.81645009230923  1.10882724762476
 6 -9.36462119761976  3.07150264576458 -0.32161502120212
 6 -9.56164647834784 -1.70197570857086 -0.88110453955396
 7 -5.07234065866587  0.45347516561656  0.76425684398440
 6 -4.33251295739574 -0.70188001000100  0.77876589978998
 6 -2.91748075347535 -0.36703612931293  1.24284463866387
 6 -3.04408784718472  1.06759942824282  1.73076380708071
 6 -4.37581457635764  1.57349809860986  1.09579660956096
 6 -2.92466754885489  1.16873916201620  3.15827723662366
 6 -1.89956341734173 -0.52874813621362  0.11291524982498
 6 -0.36064348694869 -0.36653100030003  0.58733286258626
 6  0.53195433263326 -0.65483899679968 -0.60879626012601
 8  0.28634987508751 -1.00957636523652 -1.70309664136414
 8  1.77781959245925 -0.52596999339934 -0.14444123302330
 7 -7.16632708060806  2.63948953875388  0.44297299279928
 6 -6.07063634263426  3.34724570037004  0.71057459105911
 6 -6.54963221632163  4.75511980138014  0.75595628282828
 6 -7.71251395839584  4.86096672817282  0.34195258655866
 6 -8.22438671027103  3.50170936623662  0.20882342864286
 6 -5.55537349404941  5.82816528242824  1.17818257875788
 6 -8.51160895849585  6.04329536323632  0.04103108850885
 6 -8.52067595889589  7.17188330693069  0.70094634443444
 7 -9.13538581118112  0.67340020112011 -0.65463949764977
 6 -9.88012427212721  1.78318827192719 -0.71979830393039
 6 -11.25716481308131  1.43657199629963 -1.16364808430843
 6 -11.32230463436344  0.07930329442944 -1.29336805080508
 6 -9.94232991369137 -0.44501647594759 -0.90808582468247
 6 -12.26654547824782  2.47419799079908 -1.44794156895690
 6 -12.51473601990199 -0.69323673377338 -1.83435424392439
 6 -12.27679516791679 -1.26065847704770 -3.25851096969697
 7 -7.28895836413641 -1.38669828342834 -0.09644432143214
 6 -8.31906214601460 -2.21291646374637 -0.44042899809981
 6 -7.95020116571657 -3.56660492799280 -0.38941621892189
 6 -6.65034891899190 -3.52587692469247 -0.02684441634163
 6 -6.18490108650865 -2.21175945724572  0.05271807600760
 6 -8.83354082148215 -4.77775061746175 -0.77222570097010
 6 -5.48074254455446 -4.30109399289929  0.24145701830183
 8 -5.26305514341434 -5.51387587098710  0.12136916761676
 6 -4.21391497089709 -3.30758654845485  0.57571743704370
 6 -3.71770240114011 -3.73521874317432  1.88983935683568
 8 -3.94092569316932 -3.16001273747375  2.97822050315032
 8 -2.84016521022102 -4.80360508290829  1.72580116101610
 6 -2.25668625652565 -5.27819204830483  2.91049598509851
 6  2.77864037573757 -0.60677847244724 -1.14910611101110
 6  4.15091718071807 -0.43598177447745 -0.39370951995200
 6  5.25161864626463  0.25946221162116 -0.86643641634163
 6  5.20536895989599  1.07412006130613 -2.08418258355836
 6  6.52052638543854  0.31665351555155 -0.15148163336334
 6  7.77362490039004 -0.08485883278328 -0.96564351485149
 6  9.02347422002200 -0.10925605600560 -0.17066887968797
 6  10.29144976947695 -0.68750582228223 -0.88993996449645
 6  10.23504020422042 -2.13442437853785 -1.27345081008101
 6  11.53926680358036 -0.33320710151015  0.04364523312331
 6  12.85996090379038 -0.50569462056206 -0.62759278217822
 6  14.04901436983698 -0.11107231003100  0.22516958445845
 6  15.42616874177418 -0.17248097719772 -0.50036827662766
 6  15.77742941184118 -1.58780641444144 -0.79216883458346
 6  16.48491259715972  0.46699105910591  0.38573308050805
 6  17.79549413881388  0.54154555295530 -0.23112892749275
 6  18.87986835633563  1.45511372837284  0.60130056305631
 6  20.26226489568957  1.38974930843084  0.06742150535054
 6  20.52727408120812  2.40042834003400 -1.08669966266627
 6  21.26403733453346  1.76720965726573  1.14550991439144
 1 -4.23761524602460  3.71935745714571  1.33325791269127
 1 -9.81931232393239  4.19087992299230 -0.57939333083308
 1 -10.16515980538054 -2.54386372717272 -1.27077372957296
 1 -2.67030348724873 -1.13694200810081  2.10688137933793
 1 -2.16757036223622  1.69176275887589  1.31225187558756
 1 -2.04848930643064  0.78089854275428  3.61796551005100
 1 -3.02090715071507  2.23175723322332  3.34281644704470
 1 -3.78632207490749  0.65502018601860  3.86610902370237
 1 -1.89089157405740 -1.45120508090809 -0.56256016521652
 1 -2.10206187868787  0.18374562496250 -0.59701974157416
 1 -0.21457497489749  0.63726834073407  1.12588298739874
 1 -0.28256605860586 -0.99678419361936  1.40147410261026
 1 -5.98143691909191  6.67820646474648  0.82903861306131
 1 -5.36554354375438  6.11037440054005  2.19652594969497
 1 -4.63636759275928  5.62450361676168  0.91963513911391
 1 -9.15816786928693  6.04637078517852 -0.95841606980698
 1 -9.10087130303030  7.98570930983098  0.52285190699070
 1 -7.90260972677268  7.35356175567557  1.65729411491149
 1 -12.03663776887689  2.85776610261026 -2.49618262296230
 1 -13.34564423362336  2.04008789999000 -1.46185737723772
 1 -12.20988271937194  3.36688534323432 -0.72921416541654
 1 -12.65154993339334 -1.47948739383938 -1.11679663456346
 1 -13.35312403130313 -0.14501123792379 -1.61634716221622
 1 -12.99275562816282 -1.99491417761776 -3.60029991449145
 1 -12.25920948514852 -0.54724926252625 -4.24158765446545
 1 -11.32724900420042 -1.80468533563356 -3.20372899289929
 1 -9.51388099109911 -4.58878962186219 -1.82999626372637
 1 -8.06882624742474 -5.65198520272027 -0.96588620162016
 1 -9.40074995989599 -5.14820984228423  0.06586476387639
 1 -3.65149584548455 -3.60316356705671 -0.21556682818282
 1 -1.80219838633863 -4.51952839253925  3.36998991429143
 1 -2.91293090169017 -5.88038965656566  3.54060689958996
 1 -1.42008011951195 -6.06310558375838  2.57213116601660
 1  2.68915821992199 -1.44367620352035 -1.63305727072707
 1  2.61289876747675  0.20209448904890 -1.88542169436944
 1  4.33540444604460 -0.96962917811781  0.48850206620662
 1  4.01909087258726  1.24251296169617 -2.19105747544754
 1  5.93041845354535  2.06518677757776 -2.26586305450545
 1  5.47448475607561  0.34139524702470 -3.02515124612461
 1  6.73851591449145  1.36070007000700  0.04527717051705
 1  6.40339445884589 -0.23491152855286  0.71926164286429
 1  7.66378376307631 -1.19333856905691 -1.40674199779978
 1  7.86579901580158  0.56234944304431 -1.82711563516352
 1  9.24367641924192  0.78326621162116  0.38319595179518
 1  8.87156564526453 -0.88051355755576  0.77632549624962
 1  10.25994354575458  0.01761429912991 -1.76672156165617
 1  9.36758174367437 -2.22302027852785 -1.97948387318732
 1  11.06556911261126 -2.43872065596560 -1.74289853375338
 1  9.95484837083708 -2.82930487248725 -0.46453589328933
 1  11.36392407330733  0.69735196539654  0.37094858235824
 1  11.52141519491949 -1.00504646594659  0.80276089768977
 1  12.99996331523152 -1.55954411561156 -0.81736940454045
 1  12.88647239973997  0.14391508250825 -1.52928628992899
 1  13.86120755745575  0.81560411641164  0.81552889588959
 1  14.12268502160216 -0.90458006270627  1.08675519201920
 1  15.56493978247825  0.67270675567557 -1.35086944494449
 1  15.69610705360536 -2.22851314341434 -0.01420287418742
 1  15.07883093379338 -1.91512388798880 -1.58773618871887
 1  16.68203783318332 -1.52041756665667 -1.28347981748175
 1  16.04280948164816  1.38155598929893  0.85938248254825
 1  16.65729017621762  0.02824364926493  1.38909167036704
 1  18.19874081278128 -0.34439098649865 -0.53365670607061
 1  17.91211827632764  1.07538485738574 -1.25306888268827
 1  18.82289308190819  2.55803996169617  0.80844885018502
 1  18.82645980628063  0.99886406740674  1.61543154345435
 1  20.37982289498950  0.35913206140614 -0.55815875187519
 1  20.35673978057806  3.53509707160716 -0.68195178857886
 1  21.64464871697170  2.41371802460246 -1.31140250355035
 1  19.74869877427743  2.37578938973897 -2.05700266926693
 1  21.15757173237324  1.05441355045504  1.90804042124212
 1  22.24328603490349  1.91354258395840  0.91241620792079
 1  21.00679040894089  2.81314139743974  1.57046748724872
=======
12 -7.17312788578858  0.55022377047705  0.08853654105411
 6 -4.80072469046905 -1.94787596599660  0.39726625932593
 6 -4.68924885378538  2.80280872817282  1.12565893079308
 6 -9.34517925342534  3.10741623712371 -0.29980283998400
 6 -9.55756607030703 -1.72657816881688 -0.89170559965997
 7 -5.02247567216722  0.37991780988099  0.66634705300530
 6 -4.29285899199920 -0.73955377737774  0.74236225942594
 6 -2.91343034843484 -0.47067649334934  1.12456281048105
 6 -2.89531296969697  1.00404307260726  1.60118084878488
 6 -4.31801879677968  1.45400614941494  1.02015904580458
 6 -2.79753483558356  1.25431771987199  3.05160656955696
 6 -1.87521098209821 -0.63481874327433  0.00472443074307
 6 -0.41286870947095 -0.59879422662266  0.49347347664766
 6  0.51420255745575 -0.74165767866787 -0.58346372687269
 8  0.14523576367637 -1.04777018461846 -1.66040237193719
 8  1.75298710921092 -0.43363075947595 -0.24051083998400
 7 -7.00421086898690  2.57710330013001  0.28872756825683
 6 -5.98388766776678  3.40571154695470  0.66638017161716
 6 -6.31131838493849  4.81339562896290  0.69681036823682
 6 -7.64069677667767  4.78259889138914  0.34679307060706
 6 -8.10091436303630  3.42851204650465  0.12636518281828
 6 -5.30620857755776  5.88410087598760  0.95926068656866
 6 -8.49204700230023  5.91922295599560  0.25112209760976
 6 -8.49780367166717  7.12418853745375  0.85576182598260
 7 -9.11712398499850  0.72907576867687 -0.45844987868787
 6 -9.81229748944894  1.88530848394839 -0.55827215131513
 6 -11.15730482708271  1.48268660776078 -1.03258497799780
 6 -11.18014041794179  0.12807817191719 -1.19876859085909
 6 -9.86273195389539 -0.31534350865087 -0.81792680878088
 6 -12.31784060776078  2.44711528252825 -1.31341811661166
 6 -12.37887243354336 -0.68490590069007 -1.70566137463746
 6 -12.32192968136814 -0.99041145234523 -3.13875899449945
 7 -7.28374784308431 -1.38075768936894 -0.14071874887489
 6 -8.30204044384439 -2.16919209130913 -0.41428638383838
 6 -7.90709685528553 -3.58651691919192 -0.39018629592959
 6 -6.55390927502750 -3.57492182918292 -0.02950468236824
 6 -6.22622521892189 -2.23148142944294  0.11429423362336
 6 -8.75405287268727 -4.80698354075408 -0.58097657605761
 6 -5.35144961526153 -4.38378226172617  0.21069394199420
 8 -5.12125096299630 -5.64852933633363  0.10674770547055
 6 -4.17139071847185 -3.27272306210621  0.60665053035304
 6 -3.54921555245525 -3.68851407270727  1.88172854575458
 8 -3.72649425002500 -3.11862859905991  2.97542022312231
 8 -2.72417361106111 -4.73885860826083  1.69064764566457
 6 -2.26094668256826 -5.27223145224522  2.98903383888389
 6  2.80755326702670 -0.73640143474347 -1.29704090449045
 6  4.04768685768577 -0.33642181848185 -0.61764191319132
 6  5.05888937333733  0.44083034843484 -1.06601637433743
 6  5.04938336133613  1.17605025432543 -2.49446361166117
 6  6.31154548734873  0.52772462266227 -0.30379686488649
 6  7.59160669856986 -0.15197554445445 -1.05166211671167
 6  8.86126799939994 -0.07919304970497 -0.30129194199420
 6  10.20973159765976 -0.49400647234723 -1.01446241674167
 6  10.10240694089409 -1.92090302640264 -1.51585505050505
 6  11.40088296519652 -0.23016679747975 -0.07676680808081
 6  12.70967587528753 -0.47649170027003 -0.77691771467147
 6  13.80330979937994 -0.04057526032603  0.16928399589959
 6  15.32886901180118 -0.30107383648365 -0.33580181998200
 6  15.66722839173917 -1.75098273207321 -0.55635525322532
 6  16.45580968686869  0.36639099909991  0.54818932613261
 6  17.79947453685368  0.52732413081308 -0.03492930753075
 6  18.75617598709871  1.40729894689469  0.87996842984298
 6  20.13833250245024  1.44647498099810  0.41425618881888
 6  20.38709006280628  2.05081337853785 -1.05698669136914
 6  21.05322625342534  2.05903884018402  1.34048941234123
 1 -3.89991147564756  3.20898642004200  1.66811139803980
 1 -10.13423381608161  3.80401123612361 -0.27049244074407
 1 -10.19624291369137 -2.39915925672567 -1.07883453565357
 1 -2.70134659155916 -1.15525383928393  1.90331102230223
 1 -2.02603620882088  1.51720530313031  1.01149179957996
 1 -1.89186364386439  0.71728218111811  3.40703441694169
 1 -2.56369142914291  2.36425048254825  3.39559172457246
 1 -3.67141058375838  0.92369705370537  3.66563897669767
 1 -1.90485297019702 -1.56830679107911 -0.54700861006101
 1 -2.03996566906691 -0.06148889848985 -0.76098613821382
 1 -0.24224774217422  0.28338295219522  1.08696909600960
 1 -0.53216101810181 -1.49347386258626  1.28562251745175
 1 -5.57720649604961  6.75380402450245  0.34913062226223
 1 -5.29593658305830  6.12680604370437  2.02220851795179
 1 -4.43872782878288  5.74737590399040  0.59708288388839
 1 -9.23069512201220  5.63122927102710 -0.34873510171017
 1 -9.14897611351135  7.92687342624262  0.76016563836384
 1 -7.88742820862086  7.43030943044305  1.61228961446145
 1 -12.18897300240024  3.09533985998600 -2.21316432113211
 1 -13.21565123432343  1.97377126832683 -1.56471766326633
 1 -12.61289302040204  2.89287794249425 -0.44295553955396
 1 -12.51178595699570 -1.51432087718772 -1.15146010091009
 1 -13.16655537443744 -0.11192792959296 -1.80573610111011
 1 -13.30059641224122 -1.63325801200120 -3.38349823432343
 1 -12.32734629882988 -0.07752228982898 -3.74197769346935
 1 -11.36843312261226 -1.37728259535954 -3.36945556555656
 1 -8.85465506850685 -4.82292303520352 -1.73790705480548
 1 -8.17737710251025 -5.61870187438744 -0.21697131013101
 1 -9.67107699259926 -4.49846486778678 -0.03085490809081
 1 -3.38529922582258 -3.77658090879088 -0.13669894139414
 1 -2.01213938043804 -4.53088952865286  3.89438235353535
 1 -3.22555216381638 -5.85526714431443  3.35189802870287
 1 -1.35510362186219 -5.83856312951295  2.81262521542154
 1  2.73654295839584 -1.92153398929893 -1.33082704770477
 1  2.67650512811281 -0.09091481188119 -2.21122427462746
 1  4.14562546814681 -0.81525374057406  0.35749896589659
 1  4.04789375287529  0.91488019841984 -3.06410478017802
 1  5.18441385308531  2.27374763366337 -2.52997946614662
 1  5.78347565516552  0.68358946644665 -3.26046477747775
 1  6.62807487038704  1.46713071307131 -0.11486884408441
 1  6.40093421282128 -0.16083412081208  0.70656037273727
 1  7.33639102380238 -1.12871210641064 -1.35687701130113
 1  7.82667510341034  0.35694890299030 -2.09380230383038
 1  9.02785483708371  0.96899478447845  0.20209784198420
 1  8.85847433613361 -0.63551905810581  0.58955681938194
 1  10.22720027142714  0.16811934963496 -1.70501539103910
 1  9.30364535003500 -2.00883886038604 -2.06158208300830
 1  10.90596315201520 -2.12252903680368 -2.03160740464046
 1  10.02809569556956 -2.51141308330833 -0.66114555425543
 1  11.47062474337434  0.80280251045105  0.26240772827283
 1  11.42321537493750 -0.70386634793479  0.94256487808781
 1  12.68852217111711 -1.59761792299230 -0.97473514111411
 1  12.72761651415141  0.11343203420342 -1.83008636993699
 1  13.58948038473847  1.08054061006101  0.42622996599660
 1  13.52090484358436 -0.64579418411841  1.12034855135514
 1  15.26872016051605  0.16778626362636 -1.40066442444244
 1  15.87207465036504 -2.13065335743574  0.48426697279728
 1  14.93746679737974 -2.44050642624263 -1.13375079017902
 1  16.63224285368537 -1.99361488638864 -1.01761323082308
 1  16.12200740144014  1.44668250195019  0.88187473177318
 1  16.60963541074107 -0.15846502160216  1.41264402560256
 1  18.33407434613461 -0.53606015341534 -0.10264360476048
 1  17.90453751825182  0.91561888078808 -1.07699127492749
 1  18.30910170277028  2.47943210091009  0.96341434673467
 1  18.79169632993299  0.97848202920292  1.93746374667467
 1  20.44340925362536  0.44859100730073  0.11445850985098
 1  19.99196330293029  3.18807236913691 -1.20749434283428
 1  21.56624087618762  2.23532018481848 -1.10744210751075
 1  20.08648255265527  1.35162697349735 -1.96983395239524
 1  20.93388936413641  1.76690479957996  2.57138675587559
 1  22.14316602290229  2.16745797549755  1.01261622792279
 1  20.62716244614462  3.09391947524752  1.38693913441344
>>>>>>> 8e03b5b5abfc0030b3aa597dc0de36371bfbd096

