%nproc=4
%Mem=2GB
# td=(NStates=1) CAM-B3LYP/6-31G(d,p) 

TD

0 1
12 -7.07558813181318  0.52060080818082  0.12560024742474
 6 -4.88921353935394 -2.02561373977398  0.44305083778378
 6 -4.67482741164116  2.82722116941694  1.03511987688769
 6 -9.28850358585859  3.10469596509651 -0.48340119981998
 6 -9.52289260296030 -1.75381089208921 -0.72422885198520
 7 -5.02001542614261  0.37281709980998  0.60964138243824
 6 -4.26718642474247 -0.77622744474447  0.71286931013101
 6 -2.89314832023202 -0.44890431613161  1.19239959415942
 6 -3.09150258865887  1.01916458475848  1.61873260396040
 6 -4.34685168006801  1.42627337613761  1.19116614651465
 6 -2.97876295839584  1.18064035213521  3.09404081298130
 6 -1.83266672767277 -0.71334659605961  0.00807476577658
 6 -0.47037446004600 -0.53117746494649  0.50368449774978
 6  0.58908004520452 -0.76999051195120 -0.55996137663766
 8  0.32036327642764 -1.01605701330133 -1.71553788548855
 8  1.81729353985399 -0.37969536593659 -0.13668045694569
 7 -7.00696114401440  2.52026761656166  0.21982067756776
 6 -5.90170944994500  3.30656163196320  0.58240177377738
 6 -6.24252150525052  4.75318960836084  0.60905159235924
 6 -7.53830653765377  4.82359299079908  0.22269066036604
 6 -7.98846311791179  3.43614280958096 -0.01427888158816
 6 -5.33818177487749  5.81153361926193  1.15637039753975
 6 -8.36760455805580  6.01048208190819  0.02478946434643
 6 -8.14468836013601  7.19524564316432  0.72754900470047
 7 -9.17423969656966  0.64053691479148 -0.42880691439144
 6 -9.79544580428043  1.83119307240724 -0.72085840994099
 6 -11.20994009060906  1.55514385348535 -1.06374809430943
 6 -11.26956936083608  0.16827219131913 -1.20070878487849
 6 -9.90149583028303 -0.37458943324332 -0.83684870097010
 6 -12.20570939463946  2.61001157215722 -1.37960473527353
 6 -12.38238278457846 -0.65143255335534 -1.58334914341434
 6 -12.38085557395740 -1.11583399459946 -3.00160527912791
 7 -7.24021348964897 -1.46227584118412 -0.10812548954895
 6 -8.32750299009901 -2.21557672977298 -0.48841379657966
 6 -7.94959110471047 -3.63990225772577 -0.47914519181918
 6 -6.56884076817682 -3.67022135913591 -0.12506423832383
 6 -6.21281387778778 -2.26380466176618  0.12715551975198
 6 -8.75351281868187 -4.84724756715672 -0.81878035643564
 6 -5.36234070437044 -4.46709059255925  0.18351122372237
 8 -5.28536737463746 -5.62700718411841  0.21967899859986
 6 -4.18329190859086 -3.41036682648265  0.55076494179418
 6 -3.60341097199720 -3.70431565286529  1.85523589648965
 8 -3.88015961656166 -3.18557529372937  2.89000168126813
 8 -2.84044523822382 -4.80752547494749  1.76747532843284
 6 -2.34729531743174 -5.36719094819482  3.06402133763376
 6  2.76618913061306 -0.54244203880388 -1.14443564396440
 6  4.11620370937094 -0.11978015431543 -0.39313946294629
 6  5.03473695809581  0.59186545194519 -0.93563333603360
 6  4.94972339533953  1.39680232953295 -2.21435560086009
 6  6.35404973777378  0.62643449364937 -0.15630211541154
 6  7.50911844974497 -0.06640698759876 -0.97606455695570
 6  8.85530740334034 -0.09003413381338 -0.17038885168517
 6  10.14687531203120 -0.57978505020502 -0.84842581308131
 6  10.00175687588759 -1.94206514261426 -1.38810227522752
 6  11.39363224012401 -0.24851863266327 -0.01085021642164
 6  12.74299920762076 -0.50132418351835 -0.74257428032803
 6  13.94571403980398 -0.14132533533353  0.23661072857286
 6  15.33408953385339 -0.14181791089109 -0.50626886668667
 6  15.60724239313931 -1.54690232403240 -1.00245986368637
 6  16.42074618051805  0.45508986898690  0.38353286048605
 6  17.82315690509051  0.55336673507351 -0.09927574217422
 6  18.81363173267327  1.23397161416142  0.78791922492249
 6  20.23032170137014  1.34362469596960  0.24880964416442
 6  20.37709906370637  1.99789808700870 -1.07824881758176
 6  21.05462639343935  2.10244318061806  1.38049341274127
 1 -3.72954443894390  3.50721624302430  1.50748533543354
 1 -9.74954534723472  3.96010684568457 -0.73070846234623
 1 -10.33743703310331 -2.65967530833083 -0.87006365856586
 1 -2.55149160606061 -1.07072538643864  2.00878156935694
 1 -2.29216282148215  1.45075865846585  0.93876452685269
 1 -2.06955141264126  0.93726417931793  3.44058777227723
 1 -3.21082614261426  2.14447850535054  3.36541870727073
 1 -3.73179662236224  0.59335401940194  3.46830924372437
 1 -1.95964844974497 -1.66657661806181 -0.55550946014601
 1 -2.01508318081808 -0.11255400500050 -1.03709374897490
 1 -0.12896641404140  0.45018963286329  1.10505090419042
 1 -0.12199000100010 -1.44881939713971  1.25187914311431
 1 -5.75980475587559  6.78858750285028  0.87495320452045
 1 -5.46909389878988  5.97767113021302  2.16894319141914
 1 -4.11144510051005  5.84659582598260  0.81987516311631
 1 -9.46549860236024  6.04691083918392 -0.54691491969197
 1 -8.61901311721172  8.18860959985999  0.35669529132913
 1 -7.49944941074107  7.69025542504250  1.44397278277828
 1 -11.83095720082008  3.13417374337434 -2.09597260196020
 1 -13.16274594379438  2.18993288448845 -1.55651684318432
 1 -12.39608133923392  3.21550020472047 -0.64362560656066
 1 -12.46051082948295 -1.60235968106811 -0.83474842974297
 1 -13.11174989388939 -0.02854959175918 -1.24084961246125
 1 -13.37519387198720 -1.66497118331833 -3.13856374087409
 1 -12.47841140534054 -0.31280581818182 -3.72615611131113
 1 -11.59783606290629 -1.64638950605061 -3.44537315731573
 1 -8.93830343334334 -4.97464820772077 -1.84054731883188
 1 -8.30856022082208 -5.59496950115012 -0.52901251425143
 1 -9.62251213611361 -4.77204222552255 -0.06453827642764
 1 -3.45934663056306 -3.60109336003600 -0.17291256275628
 1 -1.95576374287429 -4.67287372707271  3.79038195349535
 1 -3.06965657425743 -5.89058067566757  3.61226406530653
 1 -1.48572668416842 -6.00421969516952  2.51258521142114
 1  2.96371567566757 -1.52219405530553 -1.65485945094509
 1  2.58399587718772  0.09250352995300 -1.94796794899490
 1  4.16307721332133 -0.78605082028203  0.62364558055806
 1  3.90260922442244  1.69936864726473 -2.46927529722972
 1  5.38879429112911  2.56653691259126 -2.07772424062406
 1  5.69249655725573  1.02029313681368 -3.15925465646565
 1  6.68254031693169  1.54998899889989  0.29208185098510
 1  6.09792391179118  0.15098706130613  0.79767948464847
 1  7.33964134883488 -1.09057829302930 -1.37428875247525
 1  7.48171060696070  0.32168537663766 -1.99399232283228
 1  9.14988704030403  0.89727761276128  0.32654028622862
 1  8.55181367006701 -0.57773327952795  0.75690355405541
 1  10.06349390079008  0.11993453115312 -1.71477636713671
 1  9.08699368486849 -2.03135111161116 -2.09085501030103
 1  10.76996955265527 -2.41229801370137 -1.90885512941294
 1  9.91498438443844 -2.67410935293529 -0.46173561326133
 1  11.33051073197320  0.80208243844384  0.34050553805381
 1  11.25318837223722 -0.67141310261026  0.95960658225823
 1  12.73200651955196 -1.54770293149315 -0.95185285288529
 1  12.65794954745474  0.13027371837184 -1.61180454175418
 1  13.90203163986399  1.00186274227423  0.42197954095410
 1  13.82531528462846 -0.73329293399340  1.09452596909691
 1  15.52990627912791  0.56956644164416 -1.49339369736974
 1  15.41613905680568 -2.27525781788179 -0.19738119201920
 1  14.75595864656466 -1.69530190579058 -1.58149556465647
 1  16.52983261266127 -1.70647617251725 -1.42567403690369
 1  16.02850805150515  1.42271010471047  0.81126767106711
 1  16.52586703390339 -0.31244041914191  1.25983874507451
 1  17.93050398909891 -0.48645519291929 -0.45121846224622
 1  17.78331539603960  1.11207852675268 -1.01004458025803
 1  18.40560135273527  2.30123428112811  1.17984598989899
 1  18.91502866316632  0.74104828582858  1.93868386868687
 1  20.58139305200520  0.34850099829983  0.10078714271427
 1  20.07970207680768  3.04410797269727 -0.81844543794379
 1  21.51651590369037  1.87035368816882 -1.29656101940194
 1  19.71928583298330  1.63169498029803 -1.86211318031803
 1  20.95254122932293  1.49509761886189  2.16432604980498
 1  22.07544925122512  2.06378760846085  1.25183014931493
 1  20.56053578347835  3.33902398569857  1.43227366786679

