%nproc=4
%Mem=2GB
# td=(NStates=1) CAM-B3LYP/6-31G(d,p) 

TD

0 1
<<<<<<< HEAD
12 -7.08914948794879  0.61283003110311  0.06119380678068
 6 -4.82731734973497 -1.94079525792579  0.60255678837884
 6 -4.79403933283328  2.87630607790779  1.13315968086809
 6 -9.36958169366937  3.07043253875388 -0.39647250695070
 6 -9.54093440714071 -1.80432594359436 -0.84817124622462
 7 -5.14773819841984  0.40813063116312  0.73317373567357
 6 -4.33968367446745 -0.69030885288529  0.83134115731573
 6 -2.96731573697370 -0.39285871157116  1.17320767496750
 6 -3.12015545394539  1.12169483778378  1.69777050775078
 6 -4.35205220012001  1.53102385118512  1.10393742364236
 6 -2.94635971807181  1.29498178627863  3.23072448134814
 6 -1.98418187918792 -0.57736299769977  0.11265522382238
 6 -0.49017644024402 -0.40836518371837  0.58423255255526
 6  0.55712684988499 -0.60283379627963 -0.50259564006401
 8  0.31006224632463 -0.97596300390039 -1.65481181288129
 8  1.80299210971097 -0.46993438983898 -0.14617140604060
 7 -7.10511095899590  2.60502609240924  0.28100679617962
 6 -6.02484176317632  3.38561953775378  0.72442597619762
 6 -6.42494974807481  4.75558984838484  0.72200288748875
 6 -7.73494620162016  4.85040567206721  0.32263065436544
 6 -8.15449972157216  3.52115131043104  0.09899244554455
 6 -5.50481843854385  5.93914638053805  1.21639640014001
 6 -8.52723052065206  6.03010404410441  0.16049303470347
 6 -8.56878076937694  7.05781189978998  0.93981023082308
 7 -9.11584385698570  0.69599246034603 -0.57016104980498
 6 -9.87277353705371  1.81074102720272 -0.73909023312331
 6 -11.13599269586959  1.44585292439244 -1.17479919941994
 6 -11.22163456735674  0.05668103220322 -1.27280599459946
 6 -9.91448712941294 -0.45115709000900 -0.86550156625663
 6 -12.26964578827883  2.48087865886589 -1.41304807960796
 6 -12.35002954925493 -0.77822523262326 -1.93768457695770
 6 -12.17654514291429 -1.06999941114111 -3.40270538913891
 7 -7.15050451875188 -1.40130974457446 -0.29311398839884
 6 -8.21974221402140 -2.29324449654965 -0.46558151335134
 6 -7.80557670327033 -3.61622989048905 -0.49034631193119
 6 -6.40782466656666 -3.55305964296430 -0.14869660156016
 6 -6.09665226162616 -2.22399068036804  0.13138594279428
 6 -8.59850731813181 -4.83543638603860 -0.87113559195920
 6 -5.32345681598160 -4.32045592909291  0.22671554415442
 8 -5.07536637453745 -5.56223070647065  0.23604063476348
 6 -4.19427300670067 -3.35674146394639  0.65472533783378
 6 -3.56835746664667 -3.66866208750875  1.91596196909691
 8 -3.94097569816982 -3.15655239143914  3.04278695979598
 8 -2.68649984368437 -4.63057778017802  1.89563814471447
 6 -2.24862545044504 -5.21971620072007  3.12664760026003
 6  2.78822133383338 -0.66624441904190 -1.14751595199520
 6  4.10208229722972 -0.39288746504650 -0.47650779977998
 6  5.08672215661566  0.32420868626863 -0.93755352805280
 6  5.09933835683568  1.22941559085909 -2.20482464776478
 6  6.35776010881088  0.38089994019402 -0.14414089928993
 6  7.53567110501050 -0.27798814571457 -0.88211516201620
 6  8.89263113571357 -0.06889201960196 -0.15564737753775
 6  10.15460608510851 -0.51559863156316 -0.85490646114611
 6  10.10661736193619 -1.99020995709571 -1.36363982898290
 6  11.45635851275128 -0.27252103290329 -0.01178030943094
 6  12.74671957965796 -0.51823587468747 -0.88329835273527
 6  13.90014948334833 -0.14806600940094  0.03831089858986
 6  15.39471559645965 -0.34123785288529 -0.56066430623062
 6  15.72519418831883 -1.74582221602160 -1.06821643934393
 6  16.41043514941494  0.21423578357836  0.33982849004900
 6  17.81133572297230  0.52224362276228 -0.18399421402140
 6  18.75104547404741  1.37748596559656  0.68690912391239
 6  20.20678934813481  1.32627296079608  0.18627339053905
 6  20.40741209500950  2.36864516171617 -0.99722071477148
 6  21.02973390419042  1.91046398269827  1.42725808920892
 1 -4.04438592309231  3.66362188358836  1.33208779567957
 1 -10.07748814151415  3.99712054705471 -0.70275566706671
 1 -10.27090037943794 -2.57528686948695 -1.11988864106411
 1 -2.66672312921292 -0.93899221312131  2.10885157635764
 1 -2.18575218041804  1.84970855345535  1.28759941034103
 1 -1.97954241174117  0.97687814071407  3.50827454095410
 1 -3.22314737473747  2.39879393689369  3.27427959335934
 1 -3.44683812651265  0.46446113011301  3.75400781358136
 1 -2.05124760966097 -1.56238619901990 -0.21378528772877
 1 -2.15705737823782 -0.05975872547255 -0.85699573917392
 1 -0.39175269266927  0.71726634053405  0.79390979007901
 1 -0.15014281628163 -1.18672318751875  1.22309626482648
 1 -5.73575235063506  6.75563420752075  0.70528623782378
 1 -5.34367135653565  5.87819118221822  2.35163146024602
 1 -4.51696565256526  5.84504567096710  0.71385456105611
 1 -9.40985303780378  5.95598174627463 -0.56114634283428
 1 -9.19267048294829  7.91847258615862  0.66693631543154
 1 -7.88947841364136  7.15365176467647  1.64448283378338
 1 -11.94293839893989  3.22685301130113 -2.09641264596460
 1 -13.18167783698370  1.95535942714271 -1.89754094559456
 1 -12.71960369146915  3.29806846154615 -0.57072831683168
 1 -12.31303608200820 -1.71918136323632 -1.31042599749975
 1 -13.34887360626063 -0.25479221602160 -1.74126965446545
 1 -13.03833018561856 -1.84418910511051 -3.79210909540954
 1 -12.32990655485549 -0.19895443304330 -3.90872436813681
 1 -11.13787006630663 -1.39141400850085 -3.52588120812081
 1 -8.99213881688169 -4.79676041894190 -1.79956322042204
 1 -8.02269163396340 -5.65579558375838 -0.59396900990099
 1 -9.43816370127013 -5.03945896719672 -0.31306312891289
 1 -3.39594028992899 -3.61952520322032 -0.04316958845885
 1 -1.49710787728773 -4.59584602430243  3.77142005730573
 1 -3.02362197079708 -5.41221283888389  3.53764660356036
 1 -1.61884999649965 -5.96050532373237  2.84739869276928
 1  2.72642194629463 -1.70540237613761 -1.60906487148715
 1  2.70535801340134 -0.03107882828283 -1.75714886708671
 1  4.17991889748975 -0.86081829702970  0.43547676367637
 1  4.08450741424142  1.35245395579558 -2.55116348604860
 1  5.81128654035403  2.16882714161416 -2.16325279347935
 1  5.58517582518252  0.59238034553455 -3.06945567656766
 1  6.61946400930093  1.36901090109011  0.43764640744074
 1  6.34236835623562 -0.36198423582358  0.74064378107811
 1  7.36725411011101 -1.26125536073607 -0.97386871047105
 1  7.81198363426343  0.29915312341234 -1.77376029962996
 1  8.92404445604561  1.02480036503650  0.06325395759576
 1  8.91931041974198 -0.73757926412641  0.66353421712171
 1  10.53517106850685  0.12386492419242 -1.85040993049305
 1  9.04381936743674 -1.95375335183518 -1.95570149494950
 1  10.95169772547255 -2.55138192209221 -1.85051929582958
 1  10.02460534653465 -2.65172711471147 -0.52775221492149
 1  11.40346802770277  0.72215444564456  0.25229671717172
 1  11.45109816321632 -1.00630659195920  0.82213283488349
 1  12.93342666156616 -1.48898705990599 -1.35168283588359
 1  12.51224497699770 -0.06315562456246 -1.80693405470547
 1  13.86481791849185  0.95798835483548  0.17605494849485
 1  13.81209396249625 -0.84702430713071  0.82558907540754
 1  15.42369565806581  0.26247573257326 -1.56989134713471
 1  15.70380782368237 -2.31539183128313 -0.21901335523552
 1  14.90349340004000 -2.04605698129813 -1.76479389448945
 1  16.79895952535254 -1.81887741264126 -1.59700116961696
 1  16.09523472417242  1.13536136983698  0.67597414171417
 1  16.28720316751675 -0.37328650375037  1.19102186338634
 1  18.21779271797180 -0.52538908630863 -0.37743108350835
 1  17.77152421692169  0.94155147404740 -1.21376495229523
 1  18.58937973057306  2.45812997069707  0.84353235853585
 1  18.62885004530453  0.87490167116712  1.75822582288229
 1  20.56991190389039  0.32762891109111  0.08277534153415
 1  19.99363346994699  3.29271283318332 -0.58449204260426
 1  21.43621787388739  2.47119377217722 -1.23566492979298
 1  19.92859676407641  2.17104891569157 -1.91596856585659
 1  20.94671064626463  1.21895000410041  2.29337895509551
 1  22.14128583488349  2.22237346704670  1.25407037333733
 1  20.70731046094610  2.85893597689769  1.68180862136214
=======
12 -7.23213378637864  0.52238098619862  0.16111379877988
 6 -4.92873749174917 -1.98946012441244  0.57481401410141
 6 -4.84737466636664  2.89337778507851  1.22621898679868
 6 -9.25296003150315  3.09303479897990 -0.55786864656466
 6 -9.51425173887389 -1.73385889688969 -0.95756218531853
 7 -5.15352877747775  0.39773959205921  0.82320273857386
 6 -4.33066277237724 -0.75704552655266  0.93488151135114
 6 -2.87993699909991 -0.37757718341834  1.22929328352835
 6 -3.02957639603960  1.03285595389539  1.74265499619962
 6 -4.45473246814681  1.49375012381238  1.17588461836184
 6 -2.94433951605161  1.19076136423642  3.26731814071407
 6 -1.96452991399140 -0.58844410581058  0.08365232353235
 6 -0.45194261686169 -0.50298464566457  0.57380150945094
 6  0.42808394559456 -0.84743825672567 -0.50847622812281
 8  0.11291253135314 -1.27645305290529 -1.52232856455646
 8  1.70217202770277 -0.56177357375738 -0.09900668956896
 7 -7.07254770267027  2.64537012681268  0.40759945544554
 6 -6.05780505950595  3.41518249404941  0.87225075867587
 6 -6.29412666576658  4.80789507890789  0.70920160736074
 6 -7.58225093209321  4.94641527302730  0.25387377867787
 6 -8.11906617821782  3.47688688398840  0.02592513881388
 6 -5.47896585328533  5.90201266716672  1.21660642114211
 6 -8.37889568716872  6.07249828352835  0.07540452585259
 6 -8.41386527782778  7.18108422702270  0.88064431423142
 7 -9.16340861346135  0.67751061216122 -0.43562759645965
 6 -9.78402466216622  1.80900085318532 -0.62731905600560
 6 -11.10585968256826  1.58939727882788 -1.25729744924492
 6 -11.16739914381438  0.19124448854885 -1.40227894189419
 6 -10.02516819751975 -0.34990696499650 -0.83255827192719
 6 -12.06415523922392  2.53066363736374 -1.72021879667967
 6 -12.41402594889489 -0.62481989208921 -1.86019682818282
 6 -12.25436292469247 -1.02848525972597 -3.35786090469047
 7 -7.41421088938894 -1.37877749134913  0.05616093909391
 6 -8.37124736453645 -2.22511768386839 -0.46890184538454
 6 -7.96135228082808 -3.63326159365937 -0.51471874917492
 6 -6.64741862596260 -3.53904824182418 -0.09583131503150
 6 -6.27149974637464 -2.17635591689169  0.19693249744975
 6 -8.77261472887289 -4.87385022742274 -0.87201567996800
 6 -5.38708317861786 -4.37176105960596  0.15115798839884
 8 -5.12807164506451 -5.56930141354135  0.14921195189519
 6 -4.26791037043704 -3.26891268106811  0.64743460876088
 6 -3.57803843474347 -3.67856307760776  1.85467584048405
 8 -3.80049164976498 -3.13192992919292  2.98026070717072
 8 -2.69916110981098 -4.70430515291529  1.74567314821482
 6 -2.05611619951995 -5.31984621372137  2.86642157765777
 6  2.71611412311231 -0.86627442204220 -1.04491569196920
 6  4.17958004700470 -0.43964214051405 -0.44590473947395
 6  5.13349683408341  0.28071433683368 -1.05419519221922
 6  4.99314773777378  0.94304695399540 -2.47508167346735
 6  6.44413874667467  0.39041089128913 -0.37010349554955
 6  7.67932547044704 -0.22581292819282 -1.08330528102810
 6  8.97180905350535 -0.23230836123612 -0.15143695649565
 6  10.26069669416942 -0.58345541724172 -0.89360033053305
 6  10.22547924812481 -2.03761469756976 -1.39295276027603
 6  11.35667854475447 -0.20347412821282 -0.12063119451945
 6  12.79858476617662 -0.60033408450845 -0.69917994089409
 6  13.95431489988999 -0.02565376817682  0.14873194069407
 6  15.40045617051705  0.00070634153415 -0.50852909270927
 6  15.62788445734573 -1.54298193199320 -0.86003562126213
 6  16.41033513941394  0.61172553255326  0.35193970117012
 6  17.82920751015102  0.59835123352335 -0.21402721732173
 6  18.73399376887689  1.38089630663066  0.72198263126313
 6  20.24736340554055  1.46443677717772  0.27571233443344
 6  20.47164851865186  2.17432572977298 -1.01747273997400
 6  21.08126905770577  2.07815075137514  1.42443780718072
 1 -4.24287577207721  3.55376089748975  1.61851643854385
 1 -9.99898029072907  3.95703653865386 -0.56128151965196
 1 -10.22843613301330 -2.51605094589459 -1.28008466066607
 1 -2.62300875777578 -1.15966428032803  2.08469916111611
 1 -2.27476108130813  1.58296187878788  1.29135978637864
 1 -2.01343580108011  1.02388284118412  3.50969468296830
 1 -3.20419547954795  2.15341939943994  3.54877704310431
 1 -3.64586802950295  0.56727141114111  3.73440585338534
 1 -1.94254673957396 -1.65887584798480 -0.36115002420242
 1 -1.99293096559656 -0.05957870747075 -0.86530657025703
 1 -0.11276479387939  0.41181579547955  1.21101150025002
 1 -0.28712651465147 -1.21490600580058  1.45653960916092
 1 -5.51459023442344  6.84520316441644  0.54674038323832
 1 -5.69480647004701  6.13008637173717  2.41569786688669
 1 -4.22153610961096  5.65524669106911  1.14552772837284
 1 -8.96891894439444  5.98038418651865 -0.82977320552055
 1 -8.86368758465847  8.05304604350435  0.69389901170117
 1 -7.63835330113011  7.36160255975598  1.78320670617062
 1 -11.77844194929493  2.72595292129213 -2.94770777547755
 1 -13.14861453065306  2.13811770297030 -1.50578176967697
 1 -12.08524025512551  3.67768642334233 -1.22224346834683
 1 -12.29305408380838 -1.44122356745675 -1.05369032393239
 1 -13.35464418331833  0.05205846904690 -1.61299682718272
 1 -13.31697805040504 -1.59827451365136 -3.69798968346835
 1 -12.19530309450945 -0.11283582118212 -4.01395489118912
 1 -11.47035331463146 -1.98031289838984 -3.36066468646865
 1 -8.84656425942594 -4.91140188308831 -1.83912717681768
 1 -8.07490685548555 -5.77857786198620 -0.47552716571657
 1 -9.62040192509251 -5.05541056235624 -0.19412123472347
 1 -3.29322001790179 -3.36716996769677 -0.14436970847085
 1 -1.14991315781578 -4.81567800750075  3.22335525082508
 1 -2.86583619221922 -5.27406902450245  3.67004984388439
 1 -1.65763387488749 -6.30189946314631  2.46983093599360
 1  2.88653795789579 -2.04134597049705 -1.31252521752175
 1  2.51565904350435 -0.38265398579858 -2.10902405460546
 1  4.36259716531653 -0.92808502370237  0.46206942294229
 1  3.97274623812381  0.83107181758176 -2.97927629732973
 1  5.42809822152215  1.99990024892489 -2.39998646684669
 1  6.01016832443244  0.63028413591359 -2.99698842984298
 1  6.79842190509051  1.42236623662366  0.05048769156916
 1  6.23790791019102 -0.10214825222522  0.54249396609661
 1  7.56511389608961 -1.17514674987499 -1.33539486308631
 1  7.85436787268727  0.25589879797980 -2.11882480608061
 1  9.14970702230223  0.86077396239624  0.36904453665367
 1  8.78046653535354 -0.89605511171117  0.71844970867087
 1  10.49114666606661  0.01114365206521 -1.78386327582758
 1  9.25562054755476 -2.07597557405741 -1.67480340514051
 1  10.98086064176418 -2.43342012591259 -2.11751599549955
 1  10.26527941394139 -2.93227516951695 -0.50401984168417
 1  11.40777845874587  0.92535476567657  0.09956144364436
 1  11.33536659005901 -0.60357631893189  0.72914353595360
 1  12.99155247414742 -1.65257341854185 -0.85545321292129
 1  12.98529228172817 -0.00660996999700 -1.84348771007101
 1  13.78191962866287  1.01911446744675  0.49313665666567
 1  14.06669942304231 -0.55502510721072  1.16123263976398
 1  15.30964425292529  0.39707919291929 -1.56838119611961
 1  15.40734817771777 -2.31420171227123 -0.14469592349235
 1  14.81554460516052 -1.72333470907091 -1.81048846394639
 1  16.63131276067607 -1.54515003990399 -1.34631610111011
 1  16.27125232593259  1.74031186488649  0.63423996829683
 1  16.34095854305430  0.03355418031803  1.25856861806181
 1  18.09320025872587 -0.40173672107211 -0.46131947234723
 1  17.85474253875388  0.81975929482948 -1.50214379017902
 1  18.29260005260526  2.38545270297030  0.57645565086509
 1  18.77795495579558  0.98597277827783  1.54713471377138
 1  20.59393430613061  0.36382253045305  0.35735279927993
 1  20.13894800140014  3.28850241214121 -0.97786137953795
 1  21.49542379447945  2.24581123392339 -1.51004236753675
 1  19.65311921632163  1.84789660046005 -1.70796776577658
 1  21.28953492869287  1.41921003010301  2.29690930813081
 1  22.14717642394239  2.14611584128413  0.95101006730673
 1  21.00222995289529  3.11874195749575  1.64508494899490
>>>>>>> 8e03b5b5abfc0030b3aa597dc0de36371bfbd096

