%nproc=4
%Mem=3GB
# td=(NStates=1) iop(3/107=0140000000,3/108=0140000000) CAM-B3LYP/6-31G(d,p) 

TD

0 1
12 -7.27733242494249  0.57730611411141  0.14468083808381
 6 -4.86231504800480 -1.97131436203620  0.40426582898290
 6 -4.80953698429843  2.82006072397240  1.22911301650165
 6 -9.43292005650565  3.08405595859586 -0.32060453575358
 6 -9.56313241124112 -1.72300406610661 -0.91914871977198
 7 -5.08838586978698  0.44657074767477  0.70586841084108
 6 -4.36230847814782 -0.65616675987599  0.73044093879388
 6 -2.88950517111711 -0.33773217121712  1.09240490959096
 6 -3.06254948184819  1.06918562016202  1.56375265456546
 6 -4.40161039573957  1.55270992209221  1.04695908980898
 6 -3.08026420722072  1.20925374467447  3.13533884848485
 6 -1.84473020272027 -0.52621861106111  0.00891470177018
 6 -0.39570527972797 -0.38965221322132  0.46045942824282
 6  0.57368929212921 -0.66058268016802 -0.63443323342334
 8  0.24654487128713 -0.86461023872387 -1.80543793689369
 8  1.84608320672067 -0.59412935133513 -0.21846723432343
 7 -7.18667631103110  2.64455766566657  0.41708263236324
 6 -6.14854499829983  3.42620638803880  0.87929380548055
 6 -6.40281518991899  4.78739560316032  0.82606086478648
 6 -7.69569435473547  4.86076788198820  0.38792491889189
 6 -8.11007053455346  3.48260519931993  0.07708570717072
 6 -5.46521855575558  5.80222969666967  1.35343549874988
 6 -8.48816882488249  6.01493176277628  0.07010762326233
 6 -8.24048245824583  7.32228137783778  0.58033209250925
 7 -9.13099214031403  0.69201619601960 -0.47437401130113
 6 -9.92020950725072  1.74046737103710 -0.55884869836984
 6 -11.28163211591159  1.55691513601360 -1.05908076777678
 6 -11.28143763096310  0.15108265406541 -1.31003103140314
 6 -9.95229283288329 -0.36648684208421 -0.83432563386339
 6 -12.25328626632663  2.54446968836884 -1.39018847154716
 6 -12.33561735463546 -0.82656878067807 -1.68058738933893
 6 -12.16825873477348 -1.15717590989099 -3.29251990319032
 7 -7.32197515991599 -1.46398123382338 -0.10025270037004
 6 -8.27312163846385 -2.20551909740974 -0.49315089498950
 6 -7.89633167296730 -3.56379693109311 -0.52784308410841
 6 -6.61188897939794 -3.59680266236624 -0.12326440814081
 6 -6.26222995469547 -2.23380133593359  0.13517535293529
 6 -8.72838517801780 -4.68857495589559 -0.81066444954495
 6 -5.39600506340634 -4.40182374577458  0.24259923402340
 8 -5.26113710601060 -5.56695355235524  0.23607955655566
 6 -4.27416191879188 -3.31762921032103  0.57426574817482
 6 -3.52203638043804 -3.70565850855085  1.86479244774477
 8 -3.53781656505651 -3.03487084498450  2.87844120232023
 8 -2.82849820262026 -4.83608222672267  1.67316635413541
 6 -2.15817477447745 -5.18207341324132  2.80199760016002
 6  2.89799612001200 -0.75535382428243 -1.14167768496850
 6  4.18045893109311 -0.54679994789479 -0.54558712151215
 6  5.08636412771277  0.26448297629763 -0.91788466546655
 6  5.08307203280328  1.09443711901190 -2.04558869386939
 6  6.50852713141314  0.34457507350735 -0.11661218561856
 6  7.67985943854385 -0.27213576157616 -1.02837316601660
 6  8.89516722832283 -0.19222103820382 -0.14341044344434
 6  10.21518697929793 -0.65441710491049 -0.87957367736774
 6  10.14060733733373 -2.10022790269027 -1.39692665866587
 6  11.42333699749975 -0.32217710881088  0.11516355385539
 6  12.76415415091509 -0.43945397889789 -0.61172867796780
 6  14.03009428122812 -0.02909862416242  0.21087749934993
 6  15.35540153115311 -0.18275735933593 -0.47297294979498
 6  15.74046031703170 -1.67388577687769 -0.79626145244524
 6  16.40078707140714  0.45979249654965  0.47993272797280
 6  17.78284587228723  0.62955668526853 -0.09317584458446
 6  18.92520293889389  1.26473455195520  0.78882213891389
 6  20.26793959835983  1.32920235273527  0.13081978797880
 6  20.25760860666067  2.09620692579258 -1.23883857975798
 6  21.11552661966196  2.03079477937794  1.29162310231023
 1 -4.12720308380838  3.68978222962296  1.73597969376938
 1 -10.10862298559856  3.84031630613061 -0.63771829802980
 1 -10.37164158825883 -2.37332286738674 -0.93964178357836
 1 -2.64372165936594 -1.08539874257426  1.93530002070207
 1 -2.18818228452845  1.61873393449345  1.34606825582558
 1 -2.05287837423742  0.63163226962696  3.54403474087409
 1 -3.16057316641664  2.21247046984698  3.40292831503150
 1 -4.13906670717072  0.67744289858986  3.34971665686569
 1 -1.92685780478048 -1.54294496529653 -0.46145415251525
 1 -1.98239460846085  0.21446906670667 -0.78380511511151
 1 -0.11435686438644  0.67195678297830  1.08447231023102
 1 -0.19480790109011 -1.28726949354935  1.10858431673167
 1 -5.39295347304730  6.66489400140014  0.83437326862686
 1 -5.64435590689069  6.07690057145715  2.38286029852985
 1 -4.48045288988899  5.17677194519452  1.24420515311531
 1 -9.16641690149015  6.04230761276128 -0.63785513821382
 1 -8.91877094079408  8.21820154115412  0.41393116881688
 1 -7.44515244734473  8.01449828622862  1.09374833513351
 1 -12.11714218721872  3.16414556165617 -2.19252508400840
 1 -13.09959725742574  1.97037577997800 -1.81574730293029
 1 -12.46008704140414  3.29853718781878 -0.54882532203220
 1 -12.13747571247125 -1.69490041284128 -1.03781728262826
 1 -13.40276257535754 -0.43679639013901 -1.55834158855886
 1 -12.90529572877288 -1.71969563166317 -3.56202716081608
 1 -12.30134053975397 -0.19948842014201 -3.97620659905991
 1 -11.32448728812881 -1.57733876107611 -3.72468074627463
 1 -9.29557417601760 -4.72930943174317 -1.74973103610361
 1 -8.24112849804980 -5.66194214751475 -0.78674862996300
 1 -9.58469264826483 -4.82488093649365 -0.04751702040204
 1 -3.58372589108911 -3.46152275787579 -0.29536727482748
 1 -1.80951433903390 -4.14753696709671  3.31050276787679
 1 -2.90663710101010 -5.48852837773777  3.55132617031703
 1 -1.28698921942194 -5.93936472127213  2.71871523262326
 1  2.61642969776978 -1.66850347314731 -1.74266571527153
 1  2.63443988528853 -0.05111702690269 -1.99722077957796
 1  4.44456494319432 -0.96456487028703  0.53963536373637
 1  4.02251756325633  1.00841638433843 -2.44284477017702
 1  5.32278921112111  2.11474189808981 -1.87428486688669
 1  5.64135370387039  0.66061725262526 -2.80518677557756
 1  6.76870505440544  1.44780476107611  0.00949056295630
 1  6.63285115721572 -0.24223155985599  0.86593278877888
 1  7.48950107290729 -1.22389306230623 -1.31144590179018
 1  7.99914247274728  0.25716481948195 -2.02932375527553
 1  9.17820386468647  0.84257375487549  0.02685511361136
 1  8.87537065786579 -0.76626497919792  0.71543766716672
 1  10.15060969276928  0.02170831863186 -1.77423258125813
 1  9.19588919801980 -2.02593087658766 -2.03865224712471
 1  11.23094223482348 -2.18299169846985 -1.90874623272327
 1  10.00208240534053 -2.82336645134514 -0.61393878757876
 1  11.40587222882288  0.82834926832683  0.46867463826383
 1  11.41910950645065 -1.02369366696670  0.92859918001800
 1  13.08343629612961 -1.31620904020402 -1.11263353485349
 1  12.73530936083608  0.55858079407941 -1.45769010271027
 1  14.09986140644064  1.18745410871087  0.43255808450845
 1  14.06956526712671 -0.47521390029003  1.25199757375738
 1  15.33760416181618  0.52219561656166 -1.44785605440544
 1  15.75129892669267 -2.18970831203120 -0.01802993849385
 1  14.95051669606961 -2.10870539053905 -1.48666003950395
 1  16.73475175477548 -1.71509240624062 -1.20800731403140
 1  16.09847312081208  1.34214254795480  0.91327724402440
 1  16.51613569136914 -0.32953923872387  1.14981347604760
 1  18.27320405810581 -0.38224473847385 -0.46358655425543
 1  17.85743305290529  1.18329722382238 -1.03272901650165
 1  18.55401445834583  2.26249751775177  0.96875882268227
 1  18.87764372687269  0.81309614911491  1.84152739823982
 1  20.65645547784779  0.19307030463046 -0.11383549134913
 1  19.90570738923892  3.00476125262526 -0.93953613831383
 1  21.31207500830083  2.12357349944994 -1.36142412361236
 1  19.63418181578158  1.48499879007901 -2.19801818621862
 1  21.39746359985999  1.59859550045004  2.14751842064206
 1  22.01733962676267  2.09938040874087  0.93959061266127
 1  20.81056113461346  3.11967808500850  1.62143928062806

