%nproc=4
%Mem=2GB
# td=(NStates=1) CAM-B3LYP/6-31G(d,p) 

TD

0 1
12 -7.16066663966397  0.63945269336934  0.09786747414741
 6 -4.85980059805981 -1.92950412881288  0.58281481418142
 6 -4.81798172707271  2.80874932223222  1.13754011891189
 6 -9.44833956945695  3.05065056055606 -0.41375423512351
 6 -9.41405171887189 -1.72489800080008 -1.01672810191019
 7 -4.99482290689069  0.43369318741874  0.61355177347735
 6 -4.34755446154615 -0.66347616961696  0.76811483468347
 6 -2.91894089948995 -0.36543596929693  1.25510586478648
 6 -3.06799023742374  1.09064173247325  1.70285101580158
 6 -4.34426142104210  1.54514526332633  1.07351438133813
 6 -3.02527760986099  1.18254054215422  3.21029243814381
 6 -1.85813927492749 -0.56563182458246  0.18662262056206
 6 -0.46391381398140 -0.37288163536354  0.57961209050905
 6  0.57317845504550 -0.74698821172117 -0.45168054855486
 8  0.32380362046205 -1.05957136473647 -1.59228556025603
 8  1.85990780128013 -0.54315171157116 -0.01126791569157
 7 -7.05395584348435  2.65444103390339  0.36275497099710
 6 -6.08874815381538  3.45161613741374  0.79589312291229
 6 -6.43843109620962  4.79012330173017  0.77007769496950
 6 -7.83331603860386  4.82996362786279  0.43185157645765
 6 -8.15263953555356  3.46539573487349  0.11437398369837
 6 -5.49839779647965  5.88618108400840  1.07789254975498
 6 -8.70251804940494  6.03075410911091  0.32062904830483
 6 -8.46111000230023  7.13601972057206  1.00457670747075
 7 -9.12057433003300  0.67343020412041 -0.55167920162016
 6 -9.90615687538754  1.79908986208621 -0.75228155225523
 6 -11.13871296789679  1.47926626572657 -1.17165888538854
 6 -11.17439984388439  0.09567493159316 -1.35823453745375
 6 -9.89667534823482 -0.39739171347135 -0.98606362246225
 6 -12.24321314501450  2.46234680568057 -1.49255603040304
 6 -12.20527507380738 -0.78736614671467 -1.92746355485549
 6 -12.24749223762376 -1.08401081228123 -3.47874299289929
 7 -7.20999046734673 -1.42972258585859 -0.14834951195120
 6 -8.18412865266527 -2.14595976807681 -0.64479943514351
 6 -7.77361350695069 -3.56387465496550 -0.55431270857086
 6 -6.55164904900490 -3.50487482448245 -0.18641037293729
 6 -6.17559015541554 -2.14601288258826  0.12980578477848
 6 -8.53173064046405 -4.82856569896990 -0.93772225062506
 6 -5.32332680298030 -4.33390727422742  0.08330120272027
 8 -5.17014585248525 -5.51210569396940  0.03685071577158
 6 -4.15232881228123 -3.29522531233123  0.70502036733673
 6 -3.70138076897690 -3.75236045734573  2.04294466736674
 8 -3.86123772437244 -2.97972470867087  3.04240692179218
 8 -2.91873306700670 -4.81463618601860  2.01856043694369
 6 -2.23197378527853 -5.31576580568057  3.06129106460646
 6  2.81615412711271 -0.86969476407641 -1.03260446084608
 6  4.17577966696670 -0.56862503880388 -0.42030217921792
 6  5.15890937533753  0.21881814721472 -0.96557633033303
 6  5.03885230823082  1.12414506380638 -2.18754291959196
 6  6.46642097489749  0.41773362356236 -0.16589307450745
 6  7.66477401530153 -0.09981032793279 -1.03151010151015
 6  8.83260513311331 -0.02299743014301 -0.20417223002300
 6  10.20452107660766 -0.49104617631763 -0.92299326982698
 6  10.14986168636864 -2.09469040514051 -1.22161562656266
 6  11.46648952585259 -0.17291107190719 -0.06441557295730
 6  12.74785969366937 -0.42048609970997 -0.69900992389239
 6  13.85910537893789  0.10996979417942  0.18406547404740
 6  15.24320044494450 -0.20479420852085 -0.39741798159816
 6  15.60158182708271 -1.58446608040804 -0.80601021872187
 6  16.39898400430043  0.49325368536854  0.47421192839284
 6  17.76071066046605  0.47520891929193 -0.16419223382338
 6  18.82295266476648  1.21805002200220  0.65937637063706
 6  20.22423109230923  1.32665299879988  0.01038580178018
 6  20.32255360916092  2.11277957515752 -1.26951794449445
 6  21.25793672447245  1.86982991929193  1.02150751415142
 1 -4.21848333283328  3.48536405780578  1.61139572647265
 1 -10.08555894859486  3.77228806380638 -0.51880727222722
 1 -10.01580486988699 -2.49107844864486 -1.34322097429743
 1 -2.72583904080408 -1.02744105800580  2.21283197439744
 1 -1.98530213541354  1.53482706530653  1.50856150655066
 1 -2.27453191069107  0.60342079497950  3.39271298479848
 1 -2.82038709870987  2.10182423992399  3.56444861026103
 1 -3.96375981868187  0.86371105510551  3.55450786358636
 1 -1.82685517041704 -1.45905586598660 -0.36563047224722
 1 -2.11110278277828  0.17940519091909 -0.67722776237624
 1 -0.26772028942894  0.59373398729873  0.86456685578558
 1 -0.22964076607661 -0.99623413861386  1.51552550775077
 1 -5.96171494689469  6.83610225432543  0.48955466466647
 1 -5.35617260666067  5.95991935503550  2.08913521062106
 1 -4.41784574057406  5.66146731313131  0.49274244984498
 1 -9.41790384288429  6.21032718081808 -0.56219644784478
 1 -9.11593280918092  7.88786952585258  0.64827444924492
 1 -7.77919738553855  7.38572497199720  1.73239162466247
 1 -12.08402250735073  2.94215454145415 -2.57180018471847
 1 -13.19594926412641  1.79213310451045 -1.57322851435144
 1 -12.71747347844784  3.05739439413941 -0.66141738573857
 1 -12.08509328772877 -1.73210265536554 -1.50795575047505
 1 -13.17243596249625 -0.44470120692069 -1.73986951445145
 1 -12.86366271887189 -1.63656834303430 -3.94078396289629
 1 -12.38953251745175 -0.42220675827583 -3.99203269896990
 1 -11.22197847714772 -1.39620448754875 -3.66164478447845
 1 -9.15445504850485 -4.73737448034804 -1.88356162026203
 1 -7.78383774857486 -5.73017302150215 -0.90345995899590
 1 -9.22044192909291 -5.28542356365637 -0.08235005760576
 1 -3.36624732063206 -3.35428867956796  0.04374910341034
 1 -1.58431659815982 -4.62110855055506  3.66625954125412
 1 -2.98020762936294 -5.79187080468047  3.77542038093809
 1 -1.48499661116112 -6.06826609980998  2.78211216411641
 1  2.79428873297330 -2.05473730963096 -1.26633059805980
 1  2.54336181378138 -0.20634635503550 -1.96057921012101
 1  4.41644254985499 -1.24609682488249  0.50817403340334
 1  3.93641260476048  0.91586029642964 -2.43648201790179
 1  5.27923333503350  2.15326558545855 -1.66317278547855
 1  5.81490879847985  0.67905901340134 -3.09570830183018
 1  6.62139420232023  1.50123412341234  0.12617526032603
 1  6.50702482188219 -0.26876491389139  0.83108282498250
 1  7.30758814351435 -1.17327656285629 -1.47442876647665
 1  7.69295173107311  0.58600180828083 -1.98306122972297
 1  8.97101915351535  1.05518340334033  0.05521315351535
 1  8.66164465316532 -0.52879838603860  0.82512037573757
 1  10.42539009040904  0.14098663636364 -1.74869975947595
 1  9.35554053955395 -2.35213318981898 -1.84238016281628
 1  11.04278683438344 -2.27366415031503 -1.81656590049005
 1  10.16077896389639 -2.42957489948995 -0.17752719241924
 1  11.37516519741974  0.88522075227523  0.44900638813881
 1  11.29252230563056 -0.75861182248225  0.69364998659866
 1  12.77282060096010 -1.42836099729973 -0.90722839043904
 1  12.95389914241424 -0.07295660466047 -1.66766012731273
 1  13.87430886758676  1.14575713171317  0.27174451745175
 1  13.84960771387139 -0.42834243894389  1.14320083658366
 1  15.21332462096210  0.19855934093409 -1.29431378937894
 1  15.73619106200620 -2.16894718681868  0.19468801490149
 1  14.83546659735974 -2.10328270387039 -1.61635905100510
 1  16.47933756315632 -1.61236676157616 -1.39143061256126
 1  16.10498569926992  1.49185701940194  0.73469001330133
 1  16.52737718491849 -0.00879005410541  1.59815257645765
 1  18.07957889658966 -0.52529907730773 -0.23092643304330
 1  18.05044210871087  0.90875819471947 -1.16747032283228
 1  18.45260605320532  2.24015817351735  0.72423042834283
 1  18.78085524582458  0.70696487748775  1.58018801910191
 1  20.69692460516052  0.40074622282228 -0.20469340534053
 1  20.06133023962396  3.12141570347035 -1.13298689208921
 1  21.37924217631763  1.83263991679168 -1.89012037533753
 1  19.49587349174918  1.69623143394339 -1.97966493549355
 1  21.16045202040204  1.28586669576958  2.08173779097910
 1  22.23791549784978  1.64641587128713  0.65164013031303
 1  21.20273000290029  3.10184026732673  1.52301274177418

