%nproc=4
%Mem=2GB
# td=(NStates=1) CAM-B3LYP/6-31G(d,p) 

TD

0 1
12 -7.16446701970197  0.61910065816582  0.00677836523652
 6 -4.89362398039804 -1.99738091649165  0.53937046974697
 6 -4.83657358625863  2.83728217551755  1.04358072297230
 6 -9.44912964846485  3.13069856535654 -0.35232809250925
 6 -9.46856717041704 -1.71420693169317 -0.76476290539054
 7 -5.03002642724272  0.31873169126913  0.71900231853185
 6 -4.29192889898990 -0.69230905290529  0.80048807200720
 6 -2.88946795219522 -0.39694912061206  1.17218757295730
 6 -2.98791222962296  1.05610827912791  1.61546227692769
 6 -4.36858385328533  1.50426117491749  1.17960499039904
 6 -2.81147622972297  1.32351463956396  3.10783219211921
 6 -1.95869933093309 -0.67031229262926  0.02343630193019
 6 -0.47832525512551 -0.61515586278628  0.43327745704570
 6  0.46052718991899 -0.79209272217222 -0.67880326082608
 8  0.05676691679168 -1.02975838343834 -1.89759609130913
 8  1.81321313181318 -0.52548994539454 -0.38564535343534
 7 -7.07851829972997  2.59088467826783  0.24216291179118
 6 -6.01422070107011  3.39301027682768  0.65920945454545
 6 -6.43414066716672  4.82171646104610  0.80548123532353
 6 -7.64882758975898  4.87946857835784  0.34257264856486
 6 -8.10524479607961  3.50286948224822  0.04474702100210
 6 -5.41479943664366  5.81638410431043  1.23656841734173
 6 -8.56101389898990  6.01200223392339  0.18436542194219
 6 -8.23901779307931  7.26754287288729  0.76367261706171
 7 -9.12705497809781  0.70077293839384 -0.54115814951495
 6 -9.85372163186319  1.84782473557356 -0.59219554365437
 6 -11.16703580018002  1.46906524562456 -1.04366608610861
 6 -11.26817922182218  0.09131449554956 -1.25811452545255
 6 -9.95920160086009 -0.37176915121512 -0.86036105220522
 6 -12.34196302000200  2.47496806780678 -1.25383215801580
 6 -12.29910445674567 -0.70610802090209 -1.71664247274727
 6 -12.35662315071507 -0.86768918011801 -3.23532865146515
 7 -7.11366083438344 -1.42988260186019 -0.25860053705371
 6 -8.22548278807881 -2.27441261336134 -0.59201415661566
 6 -7.80966711231123 -3.70814908240824 -0.43016029332933
 6 -6.50105398949895 -3.55563990099010 -0.03071480338034
 6 -6.14720731713171 -2.24002228352835  0.08143094729473
 6 -8.53121058845885 -4.85631847424743 -0.74406288468847
 6 -5.33465793609361 -4.40276415991599  0.31460433303330
 8 -5.25011384928493 -5.63077756115612  0.25526255695570
 6 -4.05186876627663 -3.37746353615362  0.48895876117612
 6 -3.51336196709671 -3.66490171147115  1.90726109900990
 8 -3.88767036763676 -3.08725546174617  2.91489417051705
 8 -2.73304449814981 -4.80482520492049  1.93477205810581
 6 -2.20640122802280 -5.17340156925693  3.15893082858286
 6  2.81696420812081 -0.57879567416742 -1.30960216061606
 6  4.08093018201820 -0.38106628292829 -0.64841499049905
 6  5.11875535993599  0.33654992039204 -1.02642241494149
 6  5.13526194919492  1.11636428572857 -2.29747391269127
 6  6.39606393919392  0.34657650785078 -0.21908839403940
 6  7.58147568546855 -0.22439278617862 -1.07508445894589
 6  8.83516538913891 -0.12278740914091 -0.04888670147015
 6  10.12044266876688 -0.54886195789579 -0.83180415091509
 6  10.15061176137614 -2.09320025612561 -1.32522598759876
 6  11.37448032493249 -0.29611339213921 -0.07733686508651
 6  12.82988789648965 -0.43488753985399 -0.69057908080808
 6  13.93190265866587 -0.14137534033403  0.29265633313331
 6  15.23178930383038 -0.08101183028303 -0.48385662546255
 6  15.62637430633063 -1.45668330213021 -0.94555417311731
 6  16.37960206610661  0.51347570757076  0.43470797799780
 6  17.78526311571157  0.63566496489649 -0.14610042464246
 6  18.72468283778378  1.30362857985799  0.84172460546055
 6  20.20138880808081  1.31472180568057  0.25375013821382
 6  20.38052940674067  2.16665496269627 -0.95935692839284
 6  21.15918684948495  1.98256119241924  1.38650401380138
 1 -4.09693117761776  3.40871639303930  1.45580016691669
 1 -10.31587197989799  3.84926576157616 -0.38925431693169
 1 -10.06434972437244 -2.44157349814982 -1.27179383158316
 1 -2.66811326822682 -0.96390470437044  2.00682137333733
 1 -2.27026063126313  1.75063864646465  1.08286893729373
 1 -1.73699815731573  0.99754020692069  3.41425513901390
 1 -2.90307536753675  2.44492855035504  3.31125329072907
 1 -3.49871331403140  0.55821050505050  3.78845125792579
 1 -2.12658514341434 -1.72116207660766 -0.21236514571457
 1 -2.06882855535554 -0.08807155675568 -0.97405744534453
 1 -0.13311682908291  0.19620423432343  1.11023142224222
 1 -0.51503930593059 -1.43826834203420  1.39241319651965
 1 -5.63434220962096  6.93803244734474  0.86004171337134
 1 -5.31520851025102  6.01204456755675  2.26145244234423
 1 -4.29857381338134  5.77119828622862  1.05906908250825
 1 -9.38120017251725  6.05473162126213 -0.56477670587059
 1 -8.81923313921392  8.18848958785879  0.58421804360436
 1 -7.40715018081808  7.37422382188219  1.35235362086209
 1 -12.29218332343234  3.13623394939494 -2.02093509820982
 1 -13.51166083528353  1.93781767296730 -1.20374156565657
 1 -12.43843557465747  3.15414406910691 -0.44669591359136
 1 -12.35381015941594 -1.74489393449345 -1.45148010291029
 1 -13.34511323022302 -0.30327706450645 -1.58461398889889
 1 -13.36105245784579 -1.52159684588459 -3.58923880838084
 1 -12.37538110231023  0.11038650105011 -3.74309780548055
 1 -11.47740401970197 -1.50570543764376 -3.64621324132413
 1 -8.64671427442744 -4.80631137403740 -1.97635089918992
 1 -8.03866323112311 -5.79260926512651 -0.34725433843384
 1 -9.59525941084108 -4.93071809310931 -0.28593041564156
 1 -3.38089878577858 -3.58561181188119 -0.18531380288029
 1 -1.51712987948795 -4.55275171487149  3.71700461576158
 1 -3.03846345494549 -5.54703632123212  3.67588042694269
 1 -1.76620473197320 -6.20893016621662  2.94694864776478
 1  2.67641694579458 -1.69760159605961 -1.88499246424642
 1  2.54569204680468  0.15832011161116 -2.08693184538454
 1  4.27972887848785 -1.17677989318932  0.17137035303530
 1  4.19581854535454  1.34793350375038 -2.95005337503750
 1  5.66523193489349  2.06254651355136 -1.90981744994499
 1  5.88213552115211  0.64261536903690 -3.05448417941794
 1  6.61108317121712  1.38526252625263 -0.06425378257826
 1  6.18579269866987 -0.16458449584959  0.70642035873587
 1  7.48218560326033 -1.21750098529853 -1.09167049064906
 1  7.73196563246325  0.17766097419742 -2.03381630523052
 1  8.98758080968097  0.90053793879388  0.13110074227423
 1  8.58785727442744 -0.84712021822182  0.69662752645265
 1  10.03182073347335 -0.02369983228323 -1.70690558005801
 1  9.21744673017302 -2.28741671817182 -2.05143106790679
 1  11.02997555325533 -2.37541432533253 -1.73928817271727
 1  10.09493237923792 -2.70136207820782 -0.37915735543554
 1  11.27522520342034  0.79866209640964  0.15519700720072
 1  11.22321537493749 -0.89594555585559  0.75772639423942
 1  12.83586690559056 -1.59302746394639 -0.75847351495149
 1  12.99288304080408  0.20194088508851 -1.59988334963496
 1  13.70072150885088  0.73562611861186  0.79866720972097
 1  14.04538729182918 -0.75419502420242  1.15290180668067
 1  15.26179946844684  0.55892537753775 -1.36213057105711
 1  15.96246368926893 -2.01671196329633 -0.04381583548355
 1  15.01779483018302 -1.84620699629963 -1.60886830193019
 1  16.70295992539254 -1.29920544544454 -1.57123859335934
 1  16.06947214791479  1.58317615131513  0.76135267956796
 1  16.41330577777778 -0.13194236933693  1.30868362956296
 1  17.95136607530753 -0.37957450485049 -0.45853919431943
 1  17.71417848234823  1.13305062396240 -0.94161773757376
 1  18.34628542114211  2.33153731143114  1.02265027032703
 1  18.70914807510751  0.74992917391739  1.68022802310231
 1  20.28075298799880  0.22698884708471  0.03148021202120
 1  20.24703881048105  3.22044560646065 -1.10381397479748
 1  21.45079933203320  1.91753840664066 -1.42258362166217
 1  19.77422132653265  1.51755356615662 -1.65454242324232
 1  21.06841281648165  1.30040814991499  2.28417803500350
 1  22.19631133743374  2.15927715741574  0.85047001330133
 1  20.75105483538354  2.98227831113111  1.56967740824082

