%nproc=4
%Mem=2GB
# td=(NStates=1) CAM-B3LYP/6-31G(d,p) 

TD

0 1
12 -7.15247582058206  0.62758150625063  0.20510819821982
 6 -4.91383600160016 -1.90943212161216  0.53491002370237
 6 -4.82840276917692  2.81156960426043  1.02352871777178
 6 -9.39823455895590  3.07092258775878 -0.27915077477748
 6 -9.57121743544355 -1.69810532153215 -0.93148957805781
 7 -5.12711613621362  0.39386920502050  0.77274769306931
 6 -4.32918262436244 -0.75276509850985  0.77400542374237
 6 -2.90349935533553 -0.33590301600160  1.15539589378938
 6 -2.97196063446345  1.13721638993899  1.47730846154615
 6 -4.37835483038304  1.46815756455646  1.01796882678268
 6 -2.83574865696570  1.37110939903990  2.92206361526153
 6 -1.86600006100610 -0.78575383678368  0.10763472177218
 6 -0.43785120772077 -0.29269361656166  0.43102723202320
 6  0.56039717691769 -0.59067258015802 -0.71311669216922
 8  0.24356559665967 -0.92752816041604 -1.83789012071207
 8  1.82627443794379 -0.45749314571457 -0.31695848474847
 7 -7.11942239013901  2.67611320112011  0.45954464996500
 6 -6.12354163316332  3.33079405520552  0.85689922352235
 6 -6.41871912501250  4.77960224962496  0.77269795699570
 6 -7.67906061306131  4.87177780928093  0.33661205250525
 6 -8.17153142474248  3.45657485278528  0.08796134243424
 6 -5.48808676537654  5.84170663656366  1.20234499499950
 6 -8.61668946654665  6.08864989868987  0.02328931433143
 6 -8.64780867216722  7.25949206780678  0.79609585938594
 7 -9.13006527912791  0.58484134523452 -0.48887292099210
 6 -9.86674293399340  1.69056901000100 -0.59024534863486
 6 -11.21003009960996  1.47774611371137 -0.98806052555256
 6 -11.25994839873987  0.12159752385239 -1.29680839483948
 6 -9.97242292299230 -0.43692566686669 -0.95555057115712
 6 -12.27884670837084  2.44142471347135 -1.16714348914891
 6 -12.35534008030803 -0.81380879097910 -1.65740654915492
 6 -12.29257674607461 -0.96711912311231 -3.14226934553455
 7 -7.17419688798880 -1.37959757335734 -0.11884656165617
 6 -8.26205644544454 -2.21471664376438 -0.58561351655166
 6 -7.87986413201320 -3.64371263876388 -0.57206448374838
 6 -6.50580446454646 -3.58219255625563 -0.20749248114811
 6 -6.16711930833083 -2.25058333963396  0.13795659985999
 6 -8.55005247264726 -4.91129397179718 -0.94495297369737
 6 -5.36044051435143 -4.33631751525153  0.18540141274127
 8 -5.13614245214521 -5.54957944134413  0.09844687538754
 6 -4.23191677107711 -3.31699748954895  0.52395226052605
 6 -3.56284691559156 -3.68767398869887  1.86557693059306
 8 -3.77174877547755 -3.09405614181418  2.92783546464646
 8 -2.74289548324832 -4.73153787618762  1.76942552345235
 6 -2.17254784268427 -5.15823005210521  3.01220615611561
 6  2.77726023772377 -0.74951274587459 -1.28555975637564
 6  4.06927901690169 -0.48831700800080 -0.65156530553055
 6  5.06963044744474  0.29615588098810 -1.00769054175418
 6  5.12333075607561  1.17274992429243 -2.26661082638264
 6  6.37374170697070  0.41422327252725 -0.21587807300730
 6  7.60831836973697 -0.20395074197420 -0.97610456095610
 6  8.82830470307031 -0.25434056445645 -0.03494530733073
 6  10.17879850435043 -0.64982205390539 -0.64988595909591
 6  10.07666436663666 -2.02692362846285 -1.11921538653865
 6  11.40722359925993 -0.30047382818282  0.15666653525353
 6  12.76677158485849 -0.50081413251325 -0.60037005990599
 6  13.99165863426343 -0.15392659545955  0.31555862336234
 6  15.36470259515952 -0.27062079117912 -0.34012225202520
 6  15.71522319121912 -1.80044767856786 -0.69756937463746
 6  16.46078018391839  0.36950131013101  0.50547505470547
 6  17.79821441084108  0.68741013941394 -0.29953576817682
 6  18.82088245774577  1.36313453045305  0.67222765576558
 6  20.32643131233123  1.41853218671867  0.11221598479848
 6  20.44793614741474  2.03270156735674 -1.26544753745375
 6  21.22474340514052  2.12245518181818  1.26644200760076
 1 -3.97166865136514  3.30412593399340  1.25708029492949
 1 -10.15610600330033  3.93981481648165 -0.45955134663466
 1 -10.19715300470047 -2.42610195099510 -1.33256990919092
 1 -2.49658611551155 -0.59877819171917  2.00171086228623
 1 -2.38757236243624  1.80094367696770  0.85081573197320
 1 -1.76170062756276  1.15748620152015  3.07006071957196
 1 -2.89230429042904  2.36826088358836  3.29796196159616
 1 -3.57905134783478  0.71654633863386  3.68683109590959
 1 -1.81882436733673 -1.83400336073607 -0.22618652785279
 1 -2.14188586108611 -0.09390213981398 -0.84724476407641
 1 -0.32607612501250  0.84192880678068  0.58081848094809
 1 -0.14194199619962 -0.78618313351335  1.26170012521252
 1 -5.63637241264126  6.87069571367137  0.71622733193319
 1 -5.54389137853785  6.03949731283128  2.20774707180718
 1 -4.40759471547155  5.52266343274327  0.94474765036504
 1 -9.37400945344535  5.85985213331333 -0.73314354255426
 1 -9.32464368026803  8.03029376827683  0.69690931273127
 1 -7.93504297009701  7.46489288878888  1.63633201870187
 1 -12.13062716781678  3.26394672067207 -2.05964896959696
 1 -13.31995166436644  1.92656654785479 -1.39933112461246
 1 -12.44866659775978  3.07029568426843 -0.37278852285229
 1 -12.20320509890989 -1.76882632773277 -1.05808076297630
 1 -13.42912163106311 -0.37421415821582 -1.33180870837084
 1 -12.90316666926693 -1.87136182238224 -3.43862374687469
 1 -12.23652721692169  0.06335179757976 -3.66954044974498
 1 -11.33860013931393 -1.15915078217822 -3.43141176117612
 1 -8.95718532153215 -5.10753149604960 -1.96492975707571
 1 -8.13363272807281 -5.85208521272127 -0.75838545154515
 1 -9.58716860176018 -5.06098111941194 -0.34276609920992
 1 -3.42273296919692 -3.55716896759676 -0.19453472497250
 1 -1.71301946844684 -4.31807824752475  3.61829474477448
 1 -2.94636424502450 -5.47809942754275  3.72240507940794
 1 -1.51419953145314 -5.93294256745675  2.96336028892889
 1  2.61959126322632 -1.83344518041804 -1.53684764976498
 1  2.58555603320332 -0.24600032043204 -2.23103625582558
 1  4.45526643224322 -1.04942715791579  0.29013222922292
 1  4.22977194069407  1.43562227262726 -2.96258462816282
 1  5.44007941964196  2.07959821872187 -1.78085455365537
 1  5.84779208680868  0.72283339083908 -3.03396212721272
 1  6.56988905180518  1.48424242424242  0.00222286508651
 1  6.19809392879288 -0.03415145254526  0.80081979867987
 1  7.40063744844484 -1.18037727292729 -1.26911823542354
 1  7.97456989288929  0.38715192329233 -1.80955387898790
 1  8.91836388798880  0.81226911191119  0.41335896809681
 1  8.56220470917092 -0.84461996819682  0.80628849254925
 1  10.16421397279728  0.02362490019002 -1.50928581808181
 1  9.21199618511851 -2.36708468496850 -1.63985991079108
 1  11.05750830653065 -2.39827661156116 -1.53990823472347
 1  10.16933981998200 -2.57392933493349 -0.14247368706871
 1  11.36554423532353  0.72856508670867  0.49692117961796
 1  11.29058211161116 -0.85950191149115  1.11470209180918
 1  12.85843916281628 -1.53931209240924 -0.66776444404440
 1  12.88961271377138 -0.00593990299030 -1.49380274157416
 1  14.01958339503950  0.80060261626163  0.83984132713271
 1  13.70298305140514 -0.96640624532453  1.12556907340734
 1  15.46675996449645  0.25753523852385 -1.22683704170417
 1  15.61707915081508 -2.39901019311931  0.28980752685269
 1  14.91958500920092 -2.06234861046105 -1.37827524262426
 1  16.74572420182018 -1.69567509240924 -1.25116658615862
 1  16.10853605430543  1.41883971767177  0.65892243654365
 1  16.76040048724872 -0.34753392849285  1.28263102430243
 1  18.23298423712371 -0.20718726612661 -0.65512885328533
 1  17.62587965246525  1.25695301420142 -1.28224179998000
 1  18.36681747434744  2.44678883658366  0.86775478077808
 1  18.66862402270227  1.05147932893289  1.71049104940494
 1  20.86140105280528  0.37873402160216 -0.07858079407941
 1  19.84917902450245  3.15787934983498 -1.33274686808681
 1  21.58287253935394  2.31840849364937 -1.59566092939294
 1  19.86202010641064  1.43655546634663 -2.11180814981498
 1  21.23587956315632  1.61039914901490  2.13052266946695
 1  22.23678538483848  2.30827205690569  0.97241220752075
 1  20.80352008190819  3.17445752905291  1.50902134263426

