%nproc=4
%Mem=2GB
# td=(NStates=1) CAM-B3LYP/6-31G(d,p) 

TD

0 1
12 -7.11299187218722  0.53735248334833  0.23129081648165
 6 -4.77893251125113 -1.88645982438244  0.53921045374537
 6 -4.84969489838984  2.84186263356336  1.13085945084508
 6 -9.42896763226323  3.03896939243924 -0.35244810451045
 6 -9.53107342104211 -1.80388589958996 -0.90943737283728
 7 -5.04344776937694  0.49928974707471  0.69301972027203
 6 -4.34328403450345 -0.60165998799880  0.70671869506951
 6 -2.92620162556256 -0.37682710841084  1.28629898409841
 6 -3.01453489188919  1.15325799409941  1.75362609330933
 6 -4.41574856975698  1.49360010881088  1.22468949884988
 6 -3.02325740784078  1.22890517861786  3.28417982688269
 6 -1.97493095409541 -0.60497575897590  0.06264022232223
 6 -0.41739916251625 -0.33971831903190  0.59804393369337
 6  0.57674881208121 -0.63271678457846 -0.60047542804280
 8  0.12287352745275 -0.94921032863286 -1.76105243694369
 8  1.82243405390539 -0.38383577997800 -0.26905369426943
 7 -7.12810325822582  2.60215580538054  0.43136183168317
 6 -6.12393167216722  3.40087106290629  0.75928946254625
 6 -6.44267152025203  4.79670395979598  0.70418110531053
 6 -7.76906961396140  4.91239187068707  0.33291168246825
 6 -8.10229450105011  3.46352554785479  0.09254180048005
 6 -5.50070802750275  5.98907137303730  1.12002676317632
 6 -8.57033483108311  6.05899693339334  0.08590557595760
 6 -8.62970686198620  7.19026514511451  0.74513076287629
 7 -9.04678695129513  0.54162702380238 -0.46192022572257
 6 -9.79168542824282  1.72925287838784 -0.70846717081708
 6 -11.17841693829383  1.33385172427243 -1.18168988848885
 6 -11.14461686558656  0.06388175227523 -1.24261297529753
 6 -9.86622230293029 -0.41794376867687 -0.78459347544754
 6 -12.21240006370637  2.42715328632863 -1.52654942974297
 6 -12.33486803310331 -0.76819422952295 -1.75858666716672
 6 -12.34238172657266 -0.90570298149815 -3.26153127172717
 7 -7.11721118941894 -1.41746135973597 -0.20378505550555
 6 -8.26901714151415 -2.32059723182318 -0.47295225042504
 6 -7.74107025262526 -3.61608987648765 -0.57770504780478
 6 -6.42318620272027 -3.58879321632163 -0.04420615251525
 6 -6.13111570797080 -2.22484076537654  0.07221002520252
 6 -8.50531799919992 -4.94419726212621 -0.82934141254125
 6 -5.23941841214121 -4.35370925442544  0.20651352395240
 8 -4.97048588648865 -5.59846432983298  0.22257928862886
 6 -4.08339191859186 -3.29580537033703  0.52560242554255
 6 -3.46454708560856 -3.58158337963796  1.85198557145715
 8 -3.73553515411541 -2.89082581878188  2.91765444654465
 8 -2.60633182688269 -4.62568729112911  1.79088766966697
 6 -2.16679726762676 -5.15313954305430  3.01438637413741
 6  2.80336284798480 -0.73690148474847 -1.18229943034303
 6  4.14172626162616 -0.50727890419042 -0.47664781378138
 6  5.14728821322132  0.31030729612961 -1.00625039773977
 6  5.00459888288829  1.27128977827783 -2.11734589988999
 6  6.40148448124812  0.47822967316732 -0.18219470467047
 6  7.61091862976298  0.06260591369137 -1.03747069756976
 6  8.88972084468447 -0.11136626702670 -0.23816562936294
 6  10.20099072357236 -0.64063113481348 -0.93195416591659
 6  10.06482318251825 -2.07249818591859 -1.44200766576658
 6  11.45186806370637 -0.37067084788479 -0.10165929732973
 6  12.79837474517452 -0.59858390949095 -0.82138216111611
 6  13.88342781118112 -0.13985518831883  0.03526059355936
 6  15.29433555845585 -0.23389711881188 -0.48003624342434
 6  15.64086575547555 -1.60627826162616 -0.94824444214421
 6  16.35586969286929  0.26261062106211  0.50607511471147
 6  17.68964355375537  0.43734513291329 -0.13332914751475
 6  18.66444681418142  1.18594681168117  0.74552498549855
 6  20.05883455265526  1.32628296179618  0.26607137033703
 6  20.21591294509451  2.16101439863986 -0.96254724742474
 6  20.93029396019602  1.93865680198020  1.37142250565056
 1 -4.16745823032303  3.54968048944895  1.38167275417542
 1 -10.18404879757976  3.77495833083308 -0.37513290479048
 1 -10.49151244064406 -2.44344368516852 -0.92143879607961
 1 -2.57660411731173 -1.13150146404640  2.04307499869987
 1 -2.25411901710171  1.66024960756076  1.33058370877088
 1 -2.08719317681768  0.98837929082908  3.88095180868087
 1 -3.39676473647365  2.36830088758876  3.29893205860586
 1 -3.70619406210621  0.40447513151315  3.62432484528453
 1 -2.11141362626263 -1.62116207660766 -0.17160106930693
 1 -2.35725739823982  0.12022927332733 -0.70673071267127
 1 -0.29522303970397  0.73927854175418  1.01065146424642
 1 -0.15602340434043 -1.08529304450445  1.35941989718972
 1 -5.87956673207321  6.90484912901290  0.81052676187619
 1 -5.51419840924092  6.27358072117212  2.10229652675268
 1 -4.48499245524552  5.71990315671567  0.75588876447645
 1 -9.25701775427543  6.01176732483248 -0.72829305750575
 1 -9.22344356025603  8.00176091499150  0.61864148594859
 1 -7.99875934173417  7.03375977547755  1.68041642714271
 1 -11.88554265936594  2.95121544754475 -2.42217522222222
 1 -13.14335400460046  1.79566345754575 -1.80688187968797
 1 -12.33128485958596  3.27117577227723 -0.94741598559856
 1 -12.12938771717172 -1.92495194029403 -1.28615357025703
 1 -13.23688240714071 -0.27001373817382 -1.29140466796680
 1 -13.26973332593259 -1.47850253645364 -3.66191607610761
 1 -12.31412497669767  0.03902936533653 -3.62110560626063
 1 -11.73580986028603 -1.64199906700670 -3.54526314631463
 1 -8.81906150915092 -5.08919966286629 -1.92905616971697
 1 -8.01772113691369 -5.76371637583758 -0.60651026402640
 1 -9.34678456335634 -5.01013603490349 -0.32749457205721
 1 -3.28321901780178 -3.25553880458046 -0.18287355885589
 1 -1.58811697819782 -4.28833527322732  3.71343425872587
 1 -2.98058766736674 -5.55543716131613  3.72261510041004
 1 -1.41522963446345 -5.87217649084908  2.84988894179418
 1  2.77466677077708 -1.82443427932793 -1.45664962996300
 1  2.69728720632063 -0.14155987638764 -2.03625677787779
 1  4.51556246184619 -0.91966418161816  0.43541675767577
 1  4.05409437293729  1.18716742714271 -2.54277264696470
 1  5.22793820552055  2.31894215311531 -1.56821328952895
 1  5.88559586718672  1.11558266576658 -2.79976870787079
 1  6.28408047094709  1.60983498349835  0.39498214101410
 1  6.43556767616762 -0.15670370777078  0.75852556925693
 1  7.41788917361736 -0.92225146034603 -1.39231055465547
 1  7.95469790569057  0.65772898099810 -1.90687361096110
 1  9.19217126872687  0.87362524752475  0.21410904310431
 1  8.55475396409641 -0.83925943214321  0.59276714041404
 1  10.40911846324632 -0.01779924222422 -1.85112000150015
 1  9.13202818831883 -2.03385136163616 -2.03209913471347
 1  10.93163571927193 -2.13776055995600 -2.25499974387439
 1  10.05931881788179 -3.06549849184918 -0.83984342404240
 1  11.45751343224322  0.72450468066807  0.21956344384438
 1  11.39410246364636 -1.05640160146015  0.72284290589059
 1  13.13679699859986 -1.71684984618462 -1.06245391299130
 1  12.90365411791179 -0.10634994399440 -1.68012137343734
 1  13.82191362806281  0.84877743374337  0.35793313631363
 1  13.60875362846285 -0.93380298499850  0.91892840934093
 1  15.33726701520152  0.46695618061806 -1.31806616461646
 1  15.49365680858086 -2.16047633973397 -0.15011646554655
 1  14.82799585028503 -2.18021039663966 -1.62466988208821
 1  16.62081171057106 -1.67487301220122 -1.50644211371137
 1  16.05501070177018  1.19275710941094  0.95813235753575
 1  16.32535698289829 -0.42735191029103  1.46027878907891
 1  18.13685462416242 -0.59795634303430 -0.12567590799080
 1  17.74737180168017  0.79247656655666 -1.26335991179118
 1  18.31213200580058  2.28980313801380  1.15798380368037
 1  18.50458761906191  0.67452163316332  1.93301330163016
 1  20.73243815651565  0.37055320352035 -0.00874381038104
 1  19.97204131073107  3.12009557145715 -0.81217481088109
 1  21.27719197129713  2.14707135993599 -1.17576894019402
 1  19.73207711211121  1.60186199699970 -1.96349331833183
 1  20.81071704690469  1.51604971407141  2.33348296549655
 1  22.06572827912791  1.52966419611961  1.09917488378838
 1  20.88527825772577  3.03258334163416  1.50354079457946

