%nproc=4
%Mem=3GB
# td=(NStates=1) iop(3/107=0140000000,3/108=0140000000) CAM-B3LYP/6-31G(d,p) 

TD

0 1
12 -7.11139583128313  0.54997338083808  0.13981035103510
 6 -4.83830264676468 -1.96800403100310  0.57919332173217
 6 -4.84089011961196  2.85847456535654  1.33241334653465
 6 -9.32692945744575  3.11236878987899 -0.52189466476648
 6 -9.54840093809381 -1.76358812451245 -0.93737054195420
 7 -5.19397642884288  0.38543463406341  0.83929175317532
 6 -4.35756800410041 -0.72948409160916  0.86939483418342
 6 -2.94629084968497 -0.46122452045205  1.26273194229423
 6 -3.01031425832583  1.04943364496450  1.75866214551455
 6 -4.43715395009501  1.51643629472947  1.23216761066107
 6 -2.84552073287329  1.34486730603060  3.25866118071807
 6 -1.98002373207321 -0.44649063826383  0.10147395769577
 6 -0.52736844604460 -0.33424667266727  0.58721210351035
 6  0.47984990819082 -0.67319394129413 -0.51963175327533
 8  0.11150136693669 -1.01145492319232 -1.61716911001100
 8  1.78060665906591 -0.46593653205321 -0.11596698429843
 7 -7.15115275867587  2.62744595449545  0.54010493459346
 6 -6.06837698149815  3.42902667006701  0.90713658975898
 6 -6.43285819421942  4.75176203980398  0.92572083078308
 6 -7.61649643494349  4.87020882608261  0.33940006640664
 6 -8.11275080258026  3.47811475027503  0.13815181378138
 6 -5.46845887978798  5.90955042874287  1.24105426062606
 6 -8.53752376037604  6.07301757135714  0.04056466896690
 6 -8.44867327732773  7.19528867856786  0.80294435373537
 7 -8.96511555265526  0.67395438983898 -0.60700727462746
 6 -9.82527001330133  1.86301962626263 -0.78778159165917
 6 -11.01260521322132  1.51960140464046 -1.32786764646465
 6 -11.13924341154115  0.17804535033503 -1.38198822712271
 6 -9.82850045364536 -0.33719391279128 -0.95427762906291
 6 -12.18972991069107  2.49373461486149 -1.62518197089709
 6 -12.25518931183118 -0.66780290409041 -1.88133746434643
 6 -12.06557846674668 -1.17275746804680 -3.33232388358836
 7 -7.27087004940494 -1.41506634233423 -0.08111078617862
 6 -8.31576590289029 -2.26052459795980 -0.42463404330433
 6 -7.81626366616662 -3.66475702710271 -0.62372267206721
 6 -6.50059785028503 -3.54710769286929 -0.17806988868887
 6 -6.15480921262126 -2.24412236803680  0.18067990339034
 6 -8.76194853435344 -4.81250734913491 -0.88426180928093
 6 -5.40653611651165 -4.38499206260626  0.15834080818082
 8 -5.22191318361836 -5.56163302030203  0.15358130673067
 6 -4.17071157375738 -3.31457890529053  0.62128044964496
 6 -3.66303047984798 -3.80811875457546  1.89649561806181
 8 -3.72993577697770 -3.28447580548055  2.95335869406941
 8 -2.84942029482948 -4.83586220472047  1.77828686618662
 6 -2.09968892589259 -5.22612781868187  3.00179758015802
 6  2.70996731713171 -0.62082037093709 -1.11125464266427
 6  4.02437332253225 -0.43216848474847 -0.51121368416842
 6  5.06130162146215  0.30412694069407 -0.91153403040304
 6  5.03646737233723  1.20815849114911 -2.14958909390939
 6  6.40195647434744  0.39654027002700 -0.27091761616162
 6  7.54301575417542 -0.09939848784878 -1.02195252395240
 6  8.90784849644965 -0.13665548164816 -0.32451855425543
 6  10.28241370197020 -0.59586124932493 -0.90051577157716
 6  10.11257453405341 -2.05563344324432 -1.29017598359836
 6  11.45026969076908 -0.29138402950295 -0.07744570707071
 6  12.72412014751475 -0.41944197769777 -0.75209271437144
 6  13.90113138493849 -0.08226394069407  0.14554096569657
 6  15.34911090209021 -0.27830691429143 -0.53164881738174
 6  15.66019229022902 -1.68113650195020 -0.75301712801280
 6  16.42232922562256  0.39900641794179  0.33900863556356
 6  17.84162174987499  0.45204893449345 -0.23166969396940
 6  18.77470788938894  1.31301938043804  0.67217047374737
 6  20.24866767116712  1.34123355585559  0.24270097609761
 6  20.37857070287029  2.10273757885789 -1.16649134503450
 6  21.12122718971897  1.99711141104110  1.29838377837784
 1 -4.33102346584659  3.74367761916192  1.68204430023002
 1 -9.97056918021802  3.95680795529553 -0.79955448164816
 1 -10.26052047614762 -2.37677321242124 -1.30941876127613
 1 -2.62990027722772 -1.12011221392139  1.97973446414641
 1 -2.05276874317432  1.55119718081808  1.24553820282028
 1 -1.95117820422042  1.01817092349235  3.44277461486149
 1 -2.80216732583258  2.39422864566457  3.37010503270327
 1 -3.56688948944894  0.78081323562356  3.83251493669367
 1 -2.12721784078408 -1.34513518431843 -0.48527653475348
 1 -2.27010337933793  0.36135375517552 -0.73023975857586
 1 -0.41136656535654  0.65918550585059  0.92587645064506
 1 -0.43098151845184 -0.91542230883088  1.52620607890789
 1 -5.51133531123112  6.70873838583858  0.56259609090909
 1 -5.72576404770477  6.12822570397040  2.33491550405040
 1 -4.27931277587759  5.43518778677868  1.44267500010001
 1 -9.09141940174017  5.90706408840884 -0.87376872957296
 1 -9.10370943464346  8.19340906190619  0.54337411311131
 1 -7.80232816491649  7.26236307270727  1.60495945624562
 1 -12.00158063106311  3.10164931203120 -2.56575240674067
 1 -13.16355365306531  2.04520326272627 -1.84069979817982
 1 -12.19394042674267  3.24715204930493 -0.78009844934493
 1 -12.51494345924592 -1.48893981678168 -1.16762026292629
 1 -13.22212451155116 -0.11170388088809 -1.85397115151515
 1 -12.87649284848485 -1.93218688078808 -3.62164312241224
 1 -12.16335674137414 -0.11987045834583 -3.98616759515952
 1 -10.95318015741574 -1.65786681388139 -3.50442872107211
 1 -9.11218583718372 -4.71027752855286 -1.84540060306031
 1 -8.04557894309431 -5.80819677297730 -0.91323127822782
 1 -9.66517069606961 -5.04064251265127 -0.19479174787479
 1 -3.41774929342934 -3.55266187178718 -0.10235797389739
 1 -1.45143853145315 -4.28497071047105  3.23041475907591
 1 -2.88274471177118 -5.42768229312931  3.80574161186119
 1 -1.69165968646865 -6.08610939573957  2.84045740684068
 1  2.49889794459446 -1.43565018781878 -1.77565901460146
 1  2.63366980828083 -0.01554346954695 -2.02909396689669
 1  4.39442992969297 -1.07979639343934  0.38641004120412
 1  3.97740305180518  1.29476501920192 -2.56761724742474
 1  5.51688862106211  2.26627705160516 -1.98893633203320
 1  5.50680024852485  0.76188737963796 -2.98129438633863
 1  6.57210539443944  1.50426040664066  0.00349996389639
 1  6.33487135923592 -0.13749108580858  0.75322151765177
 1  7.35272739553955 -1.17115778877888 -1.27876263346335
 1  7.65573813231323  0.54984408740874 -2.10532135503550
 1  9.06532257655766  0.90821031853185  0.18450087818782
 1  8.79536265706571 -0.88505685838584  0.53171929532953
 1  10.36678130993099  0.17398354615462 -1.86561171917192
 1  9.42553216231623 -2.02208049154915 -2.34210259215922
 1  11.13375251585158 -2.48366176547655 -1.71313667176718
 1  9.86924912201220 -2.46996111081108 -0.18963635733573
 1  11.36949859145914  0.95369180258026  0.00460823162316
 1  11.51649924542454 -0.81611290889089  0.88289460956096
 1  12.67327528002800 -1.50706812611261 -1.17207947944794
 1  12.74649047894789  0.00013494949495 -1.66546087978798
 1  13.76880830113011  0.89488485178518  0.53134796349635
 1  13.76886519711971 -0.78093447234723  0.85646802080208
 1  15.53906430783078  0.39403280028003 -1.39636090489049
 1  15.73445724252425 -2.16872621382138  0.34024588908891
 1  14.87566921132113 -2.28439295929593 -1.26585795929593
 1  16.70714899449945 -1.82489338633863 -1.27621413471347
 1  16.12308558205821  1.53815214891489  0.53654957125713
 1  16.36319039683968 -0.06016230103010  1.47595609030903
 1  18.26672341004101 -0.53974048804880 -0.37110730633063
 1  17.77032434203420  0.86357525162516 -1.16199194279428
 1  18.32402145904591  2.49667093509351  0.69442138893889
 1  18.60486644914491  0.95197003650365  1.71786503200320
 1  20.58207804010401  0.21917291489149 -0.01387549534954
 1  20.22560937943794  3.22876365286529 -1.11086327102710
 1  21.47623142394239  1.95845698779878 -1.23962194339434
 1  19.72518091569157  1.56118640884088 -2.04618300270027
 1  20.90831468496850  1.30002564346435  2.03503717251725
 1  22.18971686448645  1.99813028372837  0.77453410701070
 1  20.37000707920792  2.84703082028203  1.57494463116312

