%nproc=4
%Mem=2GB
# td=(NStates=1) CAM-B3LYP/6-31G(d,p) 

TD

0 1
<<<<<<< HEAD
12 -7.22222279527953  0.58621736983698  0.10100778817882
 6 -4.79826444444444 -1.91958313671367  0.47251378407841
 6 -4.80200012891289  2.80957940524052  1.07714407930793
 6 -9.42024676017602  3.02480797629763 -0.44576743644364
 6 -9.56495680938094 -1.77419293029303 -0.80290671977198
 7 -5.14137756235624  0.40833065116512  0.73195361366137
 6 -4.32272197829783 -0.67236705870587  0.76009403260326
 6 -2.84013301870187 -0.42009143484348  1.24135448964896
 6 -2.95951939033903  1.16008867716772  1.62484321502150
 6 -4.47937493239324  1.48637938673867  1.09988701860186
 6 -2.99136421852185  1.41054334243424  3.17367877677768
 6 -1.82994645564556 -0.52304756615662  0.17719167746775
 6 -0.40827825042504 -0.36732107930793  0.63859798909891
 6  0.52239337653765 -0.46922043494349 -0.56335171567157
 8  0.23240448054805 -0.73605901350135 -1.68474480618062
 8  1.80073188368837 -0.34625202160216 -0.23103989288929
 7 -7.10450089798980  2.60407599739974  0.32188088358836
 6 -6.05418469746975  3.37684866066607  0.71011454505451
 6 -6.44155140824082  4.75389967936794  0.72418310551055
 6 -7.79326203320332  4.79164979647965  0.36463485478548
 6 -8.13738801040104  3.42675187048705  0.02624517081708
 6 -5.55717367406741  5.94021648754876  1.03836859735974
 6 -8.69022682028203  5.91547258095810  0.13376036143614
 6 -8.58771266256626  7.01274739333933  0.90383663346335
 7 -9.20072234483448  0.65763862496250 -0.53211724542454
 6 -9.88143440314031  1.75607556065607 -0.64112043614361
 6 -11.19705880248025  1.47738607770777 -1.12656437593759
 6 -11.25292769666967  0.08226359045905 -1.21324003800380
 6 -9.99996567726773 -0.40767274157416 -0.81450646674667
 6 -12.31837066076608  2.39202977397740 -1.49307608240824
 6 -12.40241478777878 -0.86351376147615 -1.72014282278228
 6 -12.33768125652565 -1.28807121832183 -3.16057117571757
 7 -7.25797526582658 -1.40840045364536 -0.03356803380338
 6 -8.32120236003600 -2.19124429652965 -0.43308826402640
 6 -7.88228437403740 -3.55222348984899 -0.33416069336934
 6 -6.51026491059106 -3.57727206420642 -0.09318105000500
 6 -6.17099969636964 -2.20562884418442  0.09532233643364
 6 -8.63060052745274 -4.76085892829283 -0.69277775617562
 6 -5.38746321662166 -4.32381626512651  0.26808968156816
 8 -5.31300013791379 -5.54023850725072  0.31803883458346
 6 -4.15237881728173 -3.31522731253125  0.57228709400940
 6 -3.51990262116212 -3.70501572287229  1.77406777967797
 8 -3.62885448604860 -3.06778351455146  2.82716539763976
 8 -2.67915910961096 -4.76999172157216  1.58651723262326
 6 -2.06102669056906 -5.17800202930293  2.73662859835984
 6  2.84866737843784 -0.53659145374537 -1.30994219461946
 6  4.13307539653965 -0.50600877717772 -0.61063121212121
 6  5.15794927932793  0.35871213661366 -0.97866763946395
 6  5.13506192919292  1.18076072537254 -2.31345551085108
 6  6.44794912771277  0.36532838303830 -0.26371285648565
 6  7.68868640654065 -0.16871721862186 -0.97691464196420
 6  8.83471534413441 -0.22240737113711 -0.05962777557756
 6  10.17241786628663 -0.59366643834383 -0.81592256275628
 6  10.08261496169617 -2.02229316541654 -1.28985245024502
 6  11.48022089898990 -0.20166394719472  0.00856172477248
 6  12.80705561326133 -0.47728177927793 -0.72405242814281
 6  14.00245971437144 -0.05507671047105  0.17303437093709
 6  15.35303142804280 -0.14550827992799 -0.51638987878788
 6  15.73529519841984 -1.58121575537554 -0.93790340804080
 6  16.44179828572857  0.45188954895490  0.38285279247925
 6  17.81787637703770  0.63168456685669 -0.19833564816482
 6  18.83142351185118  1.27856607360736  0.75396582958296
 6  20.26357502670267  1.25892622612261  0.31327609080908
 6  20.60276162996300  1.90421871907191 -1.02356334903490
 6  21.20024095489549  1.71461439773977  1.43730909430943
 1 -3.96198768326833  3.41073659505951  1.43669825672567
 1 -10.19789018171817  3.86252708770877 -0.61176656815682
 1 -10.36866015541554 -2.50189953075308 -1.00268692089209
 1 -2.65365182208221 -0.89072738663866  2.20163085428543
 1 -2.22218582378238  1.80575415801580  1.23287393779378
 1 -1.93790824832483  1.29513996689669  3.36715042854285
 1 -3.10286534653465  2.39192324982498  3.25533769916992
 1 -3.63213665636564  0.75561024502450  3.69015142794279
 1 -1.87274975987599 -1.59611957235724 -0.17667157635764
 1 -2.12258393089309  0.17546479687969 -0.57127716731673
 1 -0.15960947834784  0.60273488738874  1.13609400850085
 1  0.01682388038804 -1.11419593479348  1.38267222242224
 1 -5.90147892329233  6.83802244634463  0.51628733793379
 1 -5.37170415981598  6.25382874597460  2.04441073817382
 1 -4.50920487648765  5.72516368276828  0.84687786338634
 1 -9.52641469396940  5.61512766086609 -0.39586981518152
 1 -9.12160337623762  8.04832557145715  0.53893351515151
 1 -7.78460792659266  7.24716111561156  1.69841822732273
 1 -12.19145325042504  2.59597992399240 -2.81743474817482
 1 -13.37186685588559  2.03726761796180 -1.27347853935394
 1 -12.08393012411241  3.20048870357036 -0.59814105810581
 1 -12.55062984138414 -1.64698414351435 -1.07739269416942
 1 -13.33087180608061 -0.15722245904590 -1.34813034053405
 1 -13.06427277987799 -2.24618930513051 -3.39683956845685
 1 -12.27285084928493 -0.23983852145215 -3.75801929762976
 1 -11.13639991929193 -1.64570943804380 -3.34710333033303
 1 -8.82518212121212 -4.75540628352835 -1.69680294439444
 1 -7.98984834963496 -5.50593059725973 -0.73907352035203
 1 -9.63908379327933 -5.10325534683468 -0.29118094069407
 1 -3.54379507540754 -3.30345359605961 -0.27780305180518
 1 -1.35836400290029 -4.50547698739874  3.14482739803980
 1 -2.85344495309531 -5.04756637423742  3.67627046594659
 1 -1.83587169866987 -6.16642591579158  2.38579253215322
 1  2.75141444554455 -1.48950078597860 -1.91710567556756
 1  2.56292376997700  0.39147342694269 -1.97458061026103
 1  4.36925783138314 -1.27603981918192  0.20524374037404
 1  4.12692165566557  1.21372008240824 -2.70441881158116
 1  5.37168257995800  2.12057231613161 -2.27545401360136
 1  5.80184749234923  0.86989809730973 -3.15320405140514
 1  6.65273733663366  1.42554655465547  0.13616625942594
 1  6.33224734413441 -0.17628566596660  0.69173889058906
 1  7.41769915461546 -1.01004023922392 -1.59561088468847
 1  7.83584602050205  0.57091029912991 -1.87150007360736
 1  8.83490554215421  0.64251213621362  0.43452108430843
 1  8.75705419411941 -1.08515402160216  0.64903276697670
 1  10.29753730513051  0.23759629732973 -1.69342423192319
 1  9.19570455595560 -2.18894687118712 -2.03995992079208
 1  11.08888144384438 -2.50898768266827 -1.75015925982598
 1  9.80424331033104 -2.63597553955396 -0.43295273497350
 1  11.28594627552755  0.78923115331533  0.29197068456846
 1  11.51648470187019 -0.80393635493549  0.86965758735874
 1  12.91451477037704 -1.57417557875788 -0.96381404900490
 1  12.85147890039004  0.05744643564356 -1.60656401770177
 1  13.85095653235324  0.89430198619862  0.75512285528553
 1  13.79690244334433 -0.61300090479048  1.16708322482248
 1  15.19159244774477  0.52225171017102 -1.43965832383238
 1  15.91122856575658 -2.01850214231423 -0.03690514441444
 1  14.81925497619762 -2.09786216181618 -1.39098651375138
 1  16.66646627602760 -1.75077060196020 -1.55333680318032
 1  15.96214141484148  1.40791862556256  0.87430397469747
 1  16.52657710491049 -0.38199737483748  1.21060382158216
 1  18.26679761846185 -0.36836338373837 -0.59587292769277
 1  17.78048511301130  1.36079339823982 -1.16608018381838
 1  18.48934972757276  2.41171532923292  1.03276128142814
 1  18.60104726502651  0.86979116011601  1.74161416171617
 1  20.52110702340234  0.11463761196120  0.17498456245625
 1  20.42975708230823  3.11987554945495 -0.94991858525853
 1  21.80953520562056  1.89198585138514 -1.17428879217922
 1  20.02054595899590  1.37942975377538 -1.77421439043904
 1  20.84555053025302  1.28885699479948  2.31418103530353
 1  22.20939264556456  1.50075130483048  1.09229419571957
 1  20.96235596549655  2.70344042734273  1.53802424292429
=======
12 -7.15344591759176  0.63686243434343  0.15936362376238
 6 -4.85100971897190 -1.98203938233823  0.62224875757576
 6 -4.81837176607661  2.79722817011701  1.22657902280228
 6 -9.40893562906291  3.14711020652065 -0.48999185888589
 6 -9.50888120182018 -1.65385089608961 -0.85491192029203
 7 -5.10797422202220  0.46264608270827  0.79312973127313
 6 -4.32082178827883 -0.72327214921492  0.92070009320932
 6 -2.91489049444945 -0.43483290899090  1.25444579877988
 6 -2.93288672707271  1.13269593789379  1.62299303000300
 6 -4.41581857675768  1.47998874767477  1.20295732563256
 6 -2.86414149624962  1.24424671277128  3.24911632053205
 6 -1.94911837283728 -0.71628689008901  0.09673363166317
 6 -0.51542896549655 -0.52677702490249  0.58154228352835
 6  0.47052819001900 -0.71682519541954 -0.56078145864586
 8  0.11944318441844 -0.93353876147615 -1.68428476017602
 8  1.80977278777878 -0.61620901730173 -0.08664545344534
 7 -7.10050049794980  2.66310189999000  0.26508520402040
 6 -6.02803208220822  3.32203317911791  0.70585411901190
 6 -6.40420767386739  4.76108039743974  0.79700038723872
 6 -7.78523123012301  4.85785641714171  0.22998138943894
 6 -8.09436370797080  3.51864105940594 -0.05101255495550
 6 -5.42216017271727  5.86057852375238  1.13345810631063
 6 -8.54582237983798  6.07373840754075  0.05730271567157
 6 -8.41277516881688  7.25361147974797  0.78089433923392
 7 -9.12107438003800  0.74090695179518 -0.53675770947095
 6 -9.95102136183618  1.82899285238524 -0.71617794189419
 6 -11.24344344094409  1.48481682078208 -1.17306902640264
 6 -11.22179458335834  0.06308167226723 -1.28324703870387
 6 -9.90767644834483 -0.32651462576258 -0.89265428152815
 6 -12.44364318801880  2.43991456245625 -1.30612738753875
 6 -12.31821636793679 -0.88566597669767 -1.72567337583758
 6 -12.32039952835284 -0.98363077427743 -3.23930904950495
 7 -7.23772324062406 -1.41408102170217 -0.08648332533253
 6 -8.20342058185819 -2.17651282338234 -0.49575453065307
 6 -7.73283942954295 -3.59911817931793 -0.55041231853185
 6 -6.41766565066507 -3.52188652565257 -0.07749948184818
 6 -6.14109670607061 -2.19268755005501  0.16217902210221
 6 -8.63333080048005 -4.76796963936394 -1.02660113851385
 6 -5.27879234953495 -4.35919980348035  0.17358023062306
 8 -5.18370720862086 -5.58210269366937  0.21877890859086
 6 -4.11409498889889 -3.34394018381838  0.50480034533453
 6 -3.49835046594659 -3.67966318761876  1.93018339123912
 8 -3.64748634923492 -3.06758349454946  2.91044372547255
 8 -2.66226742044204 -4.70924564696470  1.81869044994499
 6 -2.12947353525353 -5.22064629372937  3.07678261376138
 6  2.77366987868787 -0.71147894249425 -1.14873607400740
 6  4.16289837883788 -0.57633580988099 -0.53549369836984
 6  5.05482896729673  0.17653391879188 -1.02034180688069
 6  4.92429085208521  1.17826047534753 -2.26155032033203
 6  6.35533986678668  0.34731658185819 -0.33410989618962
 6  7.59462700060006 -0.18003835073507 -1.16082303280328
 6  8.85546741934193 -0.12484761516152 -0.38073988678868
 6  10.21056168066807 -0.54148121982198 -1.03740471097110
 6  10.14178087828783 -2.08340927702770 -1.41211467646765
 6  11.48961183808381 -0.22742652345235 -0.09481861326133
 6  12.79310421812181 -0.52330638173817 -0.72627265016502
 6  14.02751221962196 -0.04467567036704  0.14574164166417
 6  15.40584670957096 -0.12840656975698 -0.38260650045004
 6  15.66708837773777 -1.58384601840184 -0.92526214391439
 6  16.39193329922992  0.37933229322932  0.55531003820382
 6  17.77251184058406  0.56620801920192 -0.06619243384338
 6  18.74085445494550  1.25990420742074  0.80233066606661
 6  20.15899456865687  1.35456579007901  0.32210697389739
 6  20.29762111591159  2.08173647084708 -1.02266325902590
 6  21.10937186798680  2.03527646394639  1.30418578197820
 1 -4.23438492299230  3.52934845624562  1.80618520542054
 1 -10.12283267596760  4.10270110511051 -0.45588097959796
 1 -10.20436372577258 -2.50735007580758 -1.09410606280628
 1 -2.55882233913391 -1.05479379327933  2.09757044824482
 1 -2.13548715391539  1.65469905250525  1.07877852825282
 1 -1.78308276577658  1.18771922482248  3.46188990249025
 1 -3.36430149014901  2.33407746524652  3.46529869526953
 1 -3.48500194289429  0.53817850185019  3.77270968376838
 1 -2.11759424432443 -1.80879083948395 -0.23465737493749
 1 -2.17487916041604 -0.05534828442844 -0.83580361996200
 1 -0.36005952335234  0.51526614051405  1.29694009310931
 1 -0.13561136313631 -1.28483299849985  1.41962591779178
 1 -5.52046082148215  6.85485412951295  0.54588029722972
 1 -5.55541253065307  6.07228059115912  2.21787808490849
 1 -4.47762171817182  5.52526369276928  1.05379855545555
 1 -9.38804085658566  5.75570171827183 -0.66278650685069
 1 -8.84071528742874  8.05236597549755  0.78448807060706
 1 -7.65624509030903  7.34744114361436  1.53362174767477
 1 -12.16844094919492  3.05401572757276 -2.12627563226323
 1 -13.24256392559256  1.94991888308831 -1.38606979847985
 1 -12.59108083918392  3.17841649634963 -0.64254549854986
 1 -12.17441221962196 -1.90620006510651 -1.29042399729973
 1 -13.38021674057406 -0.62821955875587 -1.33440896839684
 1 -13.14238059065907 -1.71348603480348 -3.58709859435944
 1 -12.60676424062406 -0.02765730333033 -3.81722521822182
 1 -11.29796607590759 -1.42950781788179 -3.63699231923192
 1 -8.59430903390339 -4.94945568846885 -2.22980624472447
 1 -8.14881424622462 -5.86410641484148 -0.67626723972397
 1 -9.57850773567357 -4.80053507480748 -0.62753457605761
 1 -3.14331502740274 -3.15484873557356 -0.01820709220922
 1 -1.32186035253525 -4.42815925562556  3.39154206950695
 1 -2.91095070367037 -5.29214083168317  3.86484932383238
 1 -1.79069718121812 -6.26389566276628  2.79826377927793
 1  2.62378168226823 -1.58764059996000 -1.66302026702670
 1  2.56745422302230  0.02197647724772 -1.95494864706471
 1  4.33483438903890 -1.54770698589859  0.18257147314731
 1  3.86088505200520  1.17944665506551 -2.65810418011801
 1  5.08945435713571  2.23337359625963 -2.02693916211621
 1  5.70829813741374  0.69568067556756 -2.85567429842984
 1  6.43851591449145  1.41355535553555 -0.22575993319332
 1  6.30568468786879 -0.07478551595159  0.81460117681768
 1  7.51810919561956 -1.19148838403840 -1.76465778937894
 1  7.78522095799580  0.64336754485449 -1.92016494009401
 1  9.06674872647265  0.91162904790479  0.11933956615662
 1  8.71458994769477 -0.93642914911491  0.47504536823682
 1  10.35536308770877  0.01815435313531 -2.02490738023802
 1  9.26998198369837 -2.20435841234123 -2.15560148494850
 1  11.09123167886789 -2.22096888078808 -1.79871411531153
 1  9.74775766176618 -2.49647158915892 -0.31187062676268
 1  11.38874655555556  0.76237846804680  0.04170565806581
 1  11.18000105350535 -0.80762672397240  0.82851347294729
 1  13.00552387128713 -1.53434159535954 -0.98024569216922
 1  12.80186393889389 -0.05762507150715 -1.69570293159316
 1  13.90837227392739  1.01950450645065  0.58247559055906
 1  14.09168192129213 -0.61374097879788  1.05767228372837
 1  15.62084537303730  0.63347283228323 -1.19384374237424
 1  15.99607705060506 -2.40390068216822 -0.22903435733573
 1  14.82842589328933 -2.01854423002300 -1.36376379147915
 1  16.49388901830183 -1.73439896479648 -1.75030650015001
 1  16.11406660736073  1.36092392609261  0.92838938323832
 1  16.42232667986799 -0.33258243334333  1.52950571177118
 1  18.17002794149415 -0.51962851025103 -0.33600694109411
 1  17.84009107360736  1.09875719461946 -1.19797337313731
 1  18.32585337793779  2.22582674037404  1.03002100740074
 1  18.71062822312231  0.80739492049205  1.93639363966397
 1  20.41397631033103  0.41179732793279  0.22237930193019
 1  19.82300640724072  3.20410397229723 -0.90878447184719
 1  21.56801105320532  2.43230988378838 -1.41572293559356
 1  19.73039694409441  1.72278408920892 -1.89774674367437
 1  21.16418239343934  1.48169627872787  2.14423404060406
 1  22.16564827112711  2.29740096979698  1.20842580888089
 1  20.56979670957096  3.10959104240424  1.51985242574257
>>>>>>> 8e03b5b5abfc0030b3aa597dc0de36371bfbd096

