%nproc=4
%Mem=2GB
# td=(NStates=1) CAM-B3LYP/6-31G(d,p) 

TD

0 1
<<<<<<< HEAD
12 -7.15898647164716  0.57812656075608  0.04551223862386
 6 -4.98454307230723 -1.96673785218522  0.49339587228723
 6 -4.77454738363836  2.84868331563156  1.19690605550555
 6 -9.36380111561156  3.06124161966197 -0.33056591629163
 6 -9.56525683938394 -1.73183869486949 -0.86933336243624
 7 -5.09405282988299  0.37465728382838  0.65289570787079
 6 -4.45279498559856 -0.70816063806381  0.77486550975098
 6 -2.96093509890989 -0.48163758945895  1.15924627882788
 6 -3.09888332673267  0.96282895119512  1.70606133683368
 6 -4.41355835073507  1.46627737653765  1.18180521042104
 6 -3.05561064316432  1.06783907200720  3.27695910481048
 6 -2.04785824682468 -0.59860512191219 -0.04111015271527
 6 -0.60617804040404 -0.39362370957096  0.49131326062606
 6  0.45769690689069 -0.67405091799180 -0.54015939643964
 8  0.31344258435844 -1.05708111571157 -1.68291462316232
 8  1.71298310881088 -0.35486288268827 -0.06718350725073
 7 -7.09707015491549  2.57063265306531  0.33341203670367
 6 -5.96408568756876  3.31037201300130  0.70222375597560
 6 -6.31150840394039  4.76717100650065  0.69543023022302
 6 -7.57165987298730  4.85760639213921  0.16642503380338
 6 -8.07922219381938  3.50305950125012 -0.00613806750675
 6 -5.36246420312031  5.77014948084808  1.27565232573257
 6 -8.50633843144314  6.05433646734673  0.00130711611161
 6 -8.33177706900690  7.21689780838084  0.64983123292329
 7 -9.07982025462546  0.67265012611261 -0.52587662136214
 6 -9.87637389708971  1.81940189328933 -0.60253657775778
 6 -11.20383948054805  1.40395873497350 -1.14537625712571
 6 -11.27099950385039  0.06616198029803 -1.22317103110311
 6 -9.91381706240624 -0.45996797109711 -0.83636865296530
 6 -12.32965178887889  2.36888745974597 -1.35147192199220
 6 -12.29941448774878 -0.71808921902190 -1.73925473397340
 6 -12.24374186258626 -0.88045045624562 -3.24853997259726
 7 -7.22644211251125 -1.39598921252125 -0.23850852785279
 6 -8.31569180898090 -2.28183335543554 -0.50831578677868
 6 -7.86743288888889 -3.62388065556556 -0.51645892319232
 6 -6.47682156625663 -3.55457979497950 -0.19950168206821
 6 -6.18994159055906 -2.23642192349235  0.10465326952695
 6 -8.66275374277428 -4.76604944734474 -0.80456893529353
 6 -5.37046151645164 -4.34873875737574  0.24345721832183
 8 -5.17644648254826 -5.53840832423242  0.24837186788679
 6 -4.24767834723472 -3.30686647644764  0.62787265256526
 6 -3.55996662756276 -3.60921614291429  1.89984035693569
 8 -3.73507510811081 -3.17345408160816  3.01221390249025
 8 -2.68305949964997 -4.69633435583558  1.65567414831483
 6 -2.00688127602760 -5.24563879297930  2.78835377087709
 6  2.75452796449645 -0.54816261086109 -1.15520672107211
 6  4.06629871887189 -0.35946412271227 -0.50002015101510
 6  5.11651513591359  0.38829509490949 -0.95457523022302
 6  5.08822724572457  1.22597524682468 -2.25149931523152
 6  6.46485081788179  0.45256710691069 -0.16361284648465
 6  7.64456199409941 -0.14914526142614 -0.86014296479648
 6  8.98870074267427 -0.12021715211521  0.08320650785079
 6  10.26902752725272 -0.46525359705971 -0.73390436093609
 6  10.20611731193119 -1.97886882298230 -1.18591205620562
 6  11.39546242314231 -0.15761954275428  0.05142601120112
 6  12.83798870657066 -0.52065611671167 -0.63464348724872
 6  13.91480094849485 -0.07014821762176  0.26205327282728
 6  15.36166229112911 -0.24580830993099 -0.47803604340434
 6  15.68649031793179 -1.71131876567657 -0.70015963366337
 6  16.47324143004300  0.40616497649765  0.39251375857586
 6  17.83469805920592  0.50712211061106 -0.29248506310631
 6  18.76112648214821  1.29944816181618  0.55759619261926
 6  20.17126579577958  1.34145447894789  0.08784354755476
 6  20.26179753355336  2.07786608380838 -1.28758975167517
 6  21.08235916671667  1.94334727102710  1.21270663406341
 1 -4.05929741424142  3.67705322672267  1.58858344524452
 1 -10.09102949564956  3.86886772177218 -0.55258064956496
 1 -10.32715600500050 -2.57713705450545 -1.12154880708071
 1 -2.62757921482148 -1.30076839073907  1.85349604080408
 1 -2.06971057625763  1.70249383198320  1.35818646904690
 1 -2.02601705920592  0.96281673457346  3.67851156465647
 1 -3.41239629962996  2.13563762126213  3.48959112451245
 1 -3.76599004170417  0.38674335833583  3.75984839763976
 1 -2.04995748064806 -1.75844580498050 -0.48202211141114
 1 -2.12534420692069  0.35120237063706 -0.72125216481648
 1 -0.50536405380538  0.50632524642464  1.06621702080208
 1 -0.29915771777178 -1.08007252245225  1.26815077027703
 1 -5.75152392779278  6.79771841594159  0.65327103630363
 1 -5.27605459485949  6.00626398949895  2.37449374647465
 1 -4.24762871887189  5.74420558695869  0.88480165576558
 1 -9.34969702220222  5.78594474257426 -0.61329155735574
 1 -9.14143535943594  7.93839457835784  0.52023164496450
 1 -7.54748421422142  7.29674607410741  1.39373775927593
 1 -12.32882698779878  3.03826415241524 -2.10451345604560
 1 -13.40593026222622  1.75258915011501 -1.41297248874888
 1 -12.32458418951895  3.06508516321632 -0.42014325832583
 1 -12.35786056445645 -1.85609505460546 -1.39581453635364
 1 -13.19425814471447  0.03745700890089 -1.49184471197120
 1 -13.25752210481048 -1.27674236043604 -3.47908779327933
 1 -12.25579914411441  0.13996945934593 -3.68595209090909
 1 -11.54736101540154 -1.49309417651765 -3.68146676667667
 1 -9.37592719571957 -4.69690043294329 -1.80448371247125
 1 -8.00443980878088 -5.60106011021102 -0.88546815981598
 1 -9.24497438233823 -5.04141916321632 -0.08422024462446
 1 -3.58961965786579 -3.41170442114212 -0.19061433293329
 1 -1.49500766726673 -4.44253069276928  3.41059397469747
 1 -2.59467907650765 -5.58973059065907  3.50949378827883
 1 -1.52004011551155 -6.21119039223922  2.54665861876188
 1  2.49373867796780 -1.48741057695770 -1.51486545154515
 1  2.76192366996700  0.11645592519252 -2.06405955815582
 1  4.26007691329133 -0.78601081628163  0.41837505350535
 1  4.13782274577458  1.28736744714471 -2.68484685438544
 1  5.63782919461946  2.20916117501750 -1.93482995119512
 1  5.52088939653965  0.69200030753075 -2.94099283028303
 1  6.53860592349235  1.67700170017002  0.03341598439844
 1  6.24359847924793 -0.17343538093809  0.88913863056306
 1  7.53361074577458 -1.17971720692069 -1.03984530813081
 1  7.74672710861086  0.45386859495950 -1.86188911251125
 1  9.02854490609061  1.01619950495050  0.48796642884288
 1  8.91806029472947 -0.85918142434243  0.80073793749375
 1  10.25540309170917  0.17308984668467 -1.49661455095510
 1  9.30017500300030 -2.32461043754375 -1.65135105990599
 1  11.15586814251425 -2.22410919481948 -1.78283252715272
 1  9.96918980498050 -2.42260420242024 -0.35667510721072
 1  11.41823950485048  0.86279851005100  0.21697318481848
 1  11.49058211161116 -0.74814077537754  1.15851647324732
 1  12.56931024992499 -1.56596475767577 -0.88061572917292
 1  12.73717747024702  0.09363005400540 -1.38426178747875
 1  13.64321575827583  1.02818537453745  0.38911625462546
 1  13.92866561966197 -0.74158376307631  1.30543706020602
 1  15.11317460596059  0.38767825282528 -1.32091644964496
 1  15.28092553545355 -2.33193348544854  0.23477202330233
 1  15.15184823552355 -2.09397177277728 -1.43200061516152
 1  16.66001563096310 -1.89598512341234 -0.96328779827983
 1  16.16582178287829  1.34413224692469  0.81404794909491
 1  16.70255470267027 -0.05268444354435  1.43547630883088
 1  18.12841378007801 -0.56398294569457 -0.60757409780978
 1  17.51037810231023  1.04256157505751 -1.28484206000600
 1  18.46730752335234  2.35262942064206  0.46233423872387
 1  18.70851801210121  1.11098527952795  1.64173417371737
 1  20.34923983668367  0.27294344254425 -0.10438337433743
 1  19.89262336893689  3.11571513341334 -1.17176076947695
 1  21.29749400150015  2.25892254505451 -1.70691205450545
 1  19.62681658605861  1.57543935473547 -1.96057302630263
 1  21.01739771497150  1.30039814891489  2.13348296549655
 1  22.13224493079308  2.12456368606861  0.88443340964096
 1  20.80769049894990  2.91781186448645  1.40380082058206
=======
12 -7.19956052905291  0.58884763286329  0.11727941534153
 6 -4.89268388638864 -2.02153333173317  0.55312184488449
 6 -4.79602953185319  2.74569301660166  1.12462882778278
 6 -9.34513924942494  3.21676717221722 -0.46528938863886
 6 -9.62937325102510 -1.64966047704771 -0.90132656175618
 7 -5.07839126372637  0.37633745184518  0.73886430473047
 6 -4.38753845994600 -0.75418524052405  0.76125414861486
 6 -2.91308031343134 -0.44529395509551  1.20032038623862
 6 -3.11198463686369  1.03828649694970  1.55406613731373
 6 -4.35008200310031  1.49004975377538  1.11329835973597
 6 -2.99509459155916  1.29688197629763  3.11323273217322
 6 -1.93963742474247 -0.74618988038804 -0.04083012471247
 6 -0.50135755835584 -0.62065641284128  0.50987511681168
 6  0.51355249244925 -0.90078359125913 -0.62201758225823
 8  0.27924916501650 -1.22386779437944 -1.70542687438744
 8  1.78175998649865 -0.59156655305531 -0.17124391329133
 7 -7.13533398129813  2.58728431823182  0.44549324482448
 6 -6.05199447844784  3.30139111491149  0.82750628422842
 6 -6.35561281438144  4.82408669806981  0.81940262746275
 6 -7.66432913991399  4.93514414591459  0.41862025332533
 6 -8.08389266086609  3.44009320462046  0.16631917821782
 6 -5.31449940664066  5.81302376827683  1.20423518401840
 6 -8.43037083468347  6.11644267796780  0.07902488788879
 6 -8.27382127342734  7.26906302490249  0.80917716751675
 7 -9.07880015261526  0.73719658075808 -0.51227526122612
 6 -9.88934519421942  1.91789174227423 -0.67384370847085
 6 -11.11374047064706  1.56576491559156 -1.29527124662466
 6 -11.16028843274327  0.20645600970097 -1.40951966596660
 6 -9.94228990969097 -0.27736971127113 -0.95511052715272
 6 -12.22955177887789  2.55730630163016 -1.63583035783578
 6 -12.25752029832983 -0.70284769486949 -1.89379018751875
 6 -12.24748223662366 -0.97835024622462 -3.32168728732873
 7 -7.25752522082208 -1.43093270687069 -0.10550522752275
 6 -8.32477271707171 -2.28141331343134 -0.54907986318632
 6 -7.83410955655566 -3.65538380588059 -0.52272955025503
 6 -6.51763564766477 -3.59440377737774 -0.09964169606961
 6 -6.16570916731673 -2.29865814711471  0.20797360156016
 6 -8.67895536293629 -4.91657449984999 -0.78815729412941
 6 -5.32180665096510 -4.47800168366837  0.18822169476948
 8 -5.17068590649065 -5.65130961436144  0.37851488218822
 6 -4.23123670307031 -3.41199698949895  0.68693855915592
 6 -3.53951458235824 -3.77488270957096  1.98803917681768
 8 -3.78205980658066 -3.12904964116412  3.03812649374937
 8 -2.83174436813681 -4.89028375077508  1.82439102000200
 6 -2.21537212511251 -5.30485471457146  3.00210514601460
 6  2.77921043274327 -0.73311110571057 -1.16710791119112
 6  4.07166925592559 -0.54235241154115 -0.41997214621462
 6  5.04417790219022  0.40973723912391 -0.82398217091709
 6  4.89751817481748  1.02841549084909 -2.22154631993199
 6  6.36312064486449  0.50664251445145 -0.14746123132313
 6  7.63411094899490  0.08200785388539 -0.93546049654966
 6  8.92735460806081  0.07810267986799 -0.16260807360736
 6  10.18277890239024 -0.41001807350735 -0.87503847434743
 6  10.07396409660966 -1.91341227732773 -1.16215968096810
 6  11.42533541044105 -0.06887066786679 -0.00460959235924
 6  12.72317722542254 -0.24022807390739 -0.71368139103910
 6  13.99500896929693 -0.07997920072007  0.25533260076008
 6  15.26396252115211 -0.15128885798580 -0.52533077287729
 6  15.57222889178918 -1.55028266206621 -1.14472409010901
 6  16.43628773467347  0.36255061506151  0.40751525872587
 6  17.89310389978998  0.43375477387739 -0.16290210481048
 6  18.85821619111911  1.24879309630963  0.64925535853585
 6  20.33487215641564  1.28540887438744  0.18221298449845
 6  20.31341269506951  2.10143844104410 -1.13764475717572
 6  21.16630756155616  2.09453238953895  1.28294365776578
 1 -3.89880136463646  3.36560208160816  1.42056664356436
 1 -9.91133152585259  4.26546738173817 -0.54963035453545
 1 -10.34486777617762 -2.31797113791379 -0.98676532873287
 1 -2.55016147304731 -0.81866017991799  1.98599929112911
 1 -2.24794840004000  1.50765434803480  0.86978762916292
 1 -1.96826128362836  1.34072452535253  3.58351206470647
 1 -3.37065212521252  2.26078013551355  3.29847201260126
 1 -3.68081152385238  0.54577926192619  3.49667208000800
 1 -2.16898938383838 -1.80289024942494 -0.28388229742974
 1 -2.02834450695069  0.03215046544654 -0.93776381598160
 1 -0.37934145154515  0.48054266816682  1.12830322942294
 1 -0.24238204020402 -1.29801431663166  1.30271422662266
 1 -5.56288506390639  6.73692233633363  0.59572528172817
 1 -5.36881387078708  6.35367873097310  2.23043934103410
 1 -4.43294725072507  5.55896706310631  0.67687086268627
 1 -9.08048010051005  6.21217736583658 -0.82368259645965
 1 -8.74213542944294  8.23674441334133  0.73402302410241
 1 -7.69331879767977  7.30288668816882  1.67068545404540
 1 -11.76057016211621  3.14092441844184 -2.44746775147515
 1 -13.23039270847085  2.07664155535554 -2.02451364286429
 1 -12.38616034713471  3.33782243694369 -0.76868811281128
 1 -12.32072685108511 -1.52501194629463 -1.13944889978998
 1 -13.12636135503550 -0.03351008780878 -1.87030255775578
 1 -12.94789114171417 -1.50667535373537 -3.78092797729773
 1 -12.22859642384238 -0.16425096269627 -3.96663015871587
 1 -11.12403868316832 -1.39457432453245 -3.75173379337934
 1 -8.94632423542354 -4.87213795669567 -1.84031729582958
 1 -8.28376774157416 -5.85172517671767 -0.62262187518752
 1 -9.46271615651565 -4.76703172447245 -0.19445126772677
 1 -3.57475817171717 -3.59804305500550 -0.18833410491049
 1 -1.66566473297330 -4.51765820552055  3.35716863216322
 1 -2.92094170277028 -5.59467108470847  3.77500033893389
 1 -1.70946905840584 -6.24369364256426  2.83681763466347
 1  2.83018232233223 -1.73860569646965 -1.50128409340934
 1  2.57609508710871 -0.12585830623062 -1.93927707990799
 1  3.98507941354135 -1.21304351955196  0.26625984198420
 1  3.80151911541154  1.20306901730173 -2.45206357605761
 1  5.28339375107511  2.15498575747575 -2.08062453065307
 1  5.64193150075007  0.44270537803780 -2.77243597459746
 1  6.54319638253825  1.53557755775578  0.30582322512251
 1  6.34517863726373 -0.21420945834583  0.81870158685869
 1  7.41610899559956 -0.87693692889289 -1.44631595519552
 1  7.69605204110411  0.77232044014401 -1.56884980858086
 1  9.10348239983998  0.94256214121412  0.29074670687069
 1  8.84050253895390 -0.56949245544554  0.67155501920192
 1  10.33205075647565  0.15373791149115 -1.80035492499250
 1  9.48064304980498 -2.14568254475448 -2.00377630243024
 1  11.05597815351535 -2.06034281818182 -1.62017626152615
 1  10.05335822182218 -2.48393033503350 -0.20937037673767
 1  11.51954963586359  0.94948717891789  0.28615010251025
 1  11.46985003840384 -0.77958391969197  0.74251487308731
 1  12.68376169506951 -1.06905506670667 -1.41610927852785
 1  12.68300205270527  0.49546023702370 -1.57274063536354
 1  13.64357579427943  0.77544010001000  0.79439678267827
 1  13.96634938803880 -0.80782038673867  0.94803131963196
 1  15.25566885538554  0.51423090809081 -1.30002436043604
 1  15.67262470537054 -2.27719801190119 -0.47957941184118
 1  14.93027607830783 -1.72459483508351 -2.02668008310831
 1  16.47134676407641 -1.50931645654565 -1.59334080358036
 1  15.99711491219122  1.27760559425943  0.78351489578958
 1  16.59101354855486 -0.12498167326733  1.23102586378638
 1  18.36273721242124 -0.73113966136614 -0.23359670007001
 1  17.89672673717372  1.02224954385439 -1.09369294509451
 1  18.43074386698670  2.41035519321932  0.81925993129313
 1  18.90652781308131  0.82624680568057  1.59941994229423
 1  20.56058097079708  0.31517766596660  0.01578864286429
 1  20.16897100370037  3.08533209510951 -0.78236182958296
 1  21.43213746584659  2.01412806560656 -1.63866522982298
 1  19.65294919931993  1.66844865566557 -1.72929989898990
 1  20.96358233343334  1.68134624372437  2.30106972417242
 1  22.20300200650065  1.99881111081108  1.02633760006001
 1  20.80445017491749  3.13567365066507  1.41758219871987
>>>>>>> 8e03b5b5abfc0030b3aa597dc0de36371bfbd096

