%nproc=4
%Mem=2GB
# td=(NStates=1) CAM-B3LYP/6-31G(d,p) 

TD

0 1
12 -7.26086665966597  0.58772752085209  0.11073876127613
 6 -4.90412503050305 -1.90721189958996  0.64060059275928
 6 -4.85894582348235  2.89819826712671  1.23892025692569
 6 -9.35614034953495  3.05242073757376 -0.45085794549455
 6 -9.57092740644064 -1.77363287428743 -0.93997042614261
 7 -5.11273469806981  0.38118793689369  0.70400081838184
 6 -4.31869157525753 -0.71003082508251  0.84825284848485
 6 -2.88692769816982 -0.36336576227623  1.28510886508651
 6 -3.03837727612761  1.09163183148315  1.74928565926593
 6 -4.41585858075808  1.53753450225022  1.20403743364336
 6 -3.05616069816982  1.33028531663166  3.20898230713071
 6 -1.93098655965597 -0.50495575697570  0.09161311961196
 6 -0.50743816641664 -0.28550289748975  0.58427255655566
 6  0.54259539673967 -0.69789330223022 -0.58878425892589
 8  0.28255949604961 -1.08561396899690 -1.64303063476348
 8  1.82233404390439 -0.48269566596660 -0.11886867576758
 7 -7.13043349124913  2.58987457725773  0.47342603810381
 6 -6.06215549454946  3.39558053385339  0.83833736733673
 6 -6.56170342344234  4.76902119151915  0.85719640684068
 6 -7.77940064706471  4.78139877137714  0.34688307960796
 6 -8.14887915951595  3.44163335863586 -0.01019847354735
 6 -5.47896585328533  5.87104957085709  1.18804356485649
 6 -8.68355615321532  5.95460649434944  0.08162514791479
 6 -8.62256614791479  7.13735985458546  0.77220347014701
 7 -9.10825309790979  0.64953781488149 -0.60157419111911
 6 -9.91098735843584  1.75502545564556 -0.73915023912391
 6 -11.21834093069307  1.35994433353335 -1.13101482098210
 6 -11.19284168806881  0.06714207830783 -1.30348906290629
 6 -9.94367004770477 -0.41926390069007 -0.95674069016902
 6 -12.38861768546855  2.35426599759976 -1.41580835563556
 6 -12.41240578687869 -0.66920433053305 -1.89633044154415
 6 -12.34465195359536 -0.94464687588759 -3.41248636723672
 7 -7.26968643694369 -1.37900751435143 -0.16888156515652
 6 -8.28565880568057 -2.27960313241324 -0.59052400760076
 6 -7.85638178377838 -3.54120238773877 -0.50415769306931
 6 -6.48510239433943 -3.55328966596660 -0.05059679157916
 6 -6.19091168756876 -2.21093937523752  0.15092789698970
 6 -8.55836330373037 -4.83487633003300 -0.96696517491749
 6 -5.42633710401040 -4.32598648214822  0.25730860346035
 8 -5.15021385928593 -5.48560304370437  0.28667569826983
 6 -4.31276485588559 -3.26692248204820  0.55792565786579
 6 -3.51383201410141 -3.65780100140014  1.87135750865087
 8 -3.61894349494949 -3.05986272247225  2.95323800490049
 8 -2.68977017071707 -4.65085980838084  1.77646622752275
 6 -2.05524611251125 -5.18146237533753  2.94395933143314
 6  2.79553206490649 -0.75119291389139 -1.11043224362436
 6  4.11638372737274 -0.45201337763776 -0.41048119711971
 6  5.13715720012001  0.20535680108011 -0.93924369706971
 6  5.03594201720172  0.97325997529753 -2.22713687898790
 6  6.39664399719972  0.38523037323732 -0.25432191739174
 6  7.67843538143814 -0.11120146704670 -0.98604555505551
 6  8.97096896949695 -0.03875900630063 -0.20744255705571
 6  10.31182180668067 -0.46900397209721 -0.97303827432743
 6  10.23683038323832 -1.93588452455245 -1.32321578657866
 6  11.45935881278128 -0.14531831263126 -0.05151428282828
 6  12.91107601530153 -0.43848789988999 -0.65992601550155
 6  14.05193466186619  0.01283008020802  0.18623569106911
 6  15.36489261416142 -0.23602733183318 -0.49363760356036
 6  15.54712638153815 -1.75424305810581 -0.90067968566857
 6  16.48100220612061  0.38255261526153  0.35008951615162
 6  17.84919950935094  0.27092849124912 -0.26748256285629
 6  18.86696706620662  1.05080329732973  0.62997343034303
 6  20.34126279547955  1.32166249974998  0.16991175437544
 6  20.41754310811081  2.29358765596560 -0.99293028572857
 6  21.18674960576058  1.96434937123712  1.35488085148515
 1 -3.95653713821382  3.59834535593559  1.44128871577158
 1 -10.14444483718372  3.82570340534053 -0.56694208570857
 1 -10.39408269766977 -2.36899624042404 -1.52215886808681
 1 -2.57008346524652 -0.99650796469647  2.13627431863186
 1 -2.35519912511251  1.85346892949295  1.37844849524952
 1 -1.93604806230623  1.04617507040704  3.42447616111611
 1 -3.47742280228023  2.29338339583958  3.30674283968397
 1 -3.83463690639064  0.74926961096110  3.78005041784178
 1 -1.85755824072407 -1.52329228962896 -0.33429733893389
 1 -2.07039871237124  0.16658390879088 -0.64739477907791
 1 -0.28650216761676  0.85100971487149  0.84789518861886
 1 -0.35285308730873 -0.86575109030903  1.41915587078708
 1 -5.75347412281228  6.77240588468847  0.70311602080208
 1 -5.46695368476848  5.81885524862486  2.30661695879588
 1 -4.54220817681768  5.55860702710271  0.67043021862186
 1 -9.31913396589659  5.93308945704570 -0.87809803800380
 1 -9.18895011091109  7.92440317921792  0.65719534133413
 1 -7.92013147894790  7.25211161066107  1.64022240774077
 1 -11.99816392149215  2.95528585458546 -2.27876088078808
 1 -13.29322899209921  1.71525541674167 -1.74685587708771
 1 -12.32263399449945  3.07932658735873 -0.39925116911691
 1 -12.42278705710571 -1.82245169026903 -1.28322327722772
 1 -13.24037275617562 -0.06139287608761 -1.55616114361436
 1 -13.23390974357436 -1.52557724392439 -3.58942882738274
 1 -12.17134069826983 -0.04570910851085 -4.02917641334133
 1 -11.47656393569357 -1.75146001310131 -3.26073469346935
 1 -8.77877748074808 -4.81529227212721 -2.01262452655266
 1 -8.00957032183218 -5.80510051425142 -0.49470908390839
 1 -9.77649753465347 -4.93371839313931 -0.52649447204720
 1 -3.23611430733073 -3.34572782348235 -0.09008427992799
 1 -1.16492465896590 -4.45274171387139  3.28303121842184
 1 -2.70331994059406 -5.26667828542854  3.91763460236024
 1 -1.67546565806581 -6.17954722792279  2.45806975987599
 1  2.88902820692069 -1.88863069896990 -1.41802576757676
 1  2.66608408600860 -0.18289400980098 -1.99929308150815
 1  4.17930883648365 -1.03546576177618  0.35948916491649
 1  4.00096906040604  1.07660637103710 -2.41276964666467
 1  5.29154456615661  2.05894615351535 -2.20772724092409
 1  5.53427073467347  0.67620872837284 -3.07662639363936
 1  6.68890095299530  1.44454845484548 -0.07226458365837
 1  6.25790991039104 -0.30663870127013  0.67814753145315
 1  7.18097548224822 -1.15548478367837 -1.36578790239024
 1  7.81080351625162  0.82187539563956 -1.91896482008201
 1  9.21236328792879  1.02104998999900 -0.14152652045205
 1  8.93097158585859 -0.48482398859886  0.90030789448945
 1  10.25770332173217  0.28686122382238 -1.86290117961796
 1  9.47204218971897 -2.05374335083508 -2.03176910171017
 1  11.08722127782778 -2.25002178607861 -1.73940818471847
 1  9.79770265626563 -2.50203214521452 -0.24743418311831
 1  11.46525420632063  0.81201343154315  0.36824831233123
 1  11.31536458985899 -0.79126508780878  0.91817243884388
 1  12.96110942984298 -1.59856801800180 -1.17809547714772
 1  12.98510226272627  0.05932662366237 -1.63799716101610
 1  13.96899833653365  1.21364392039204  0.27939528252825
 1  14.42671542464246 -0.42023162786279  1.10320683718372
 1  15.33743703220322  0.07214669966997 -1.56643100110011
 1  15.22187963086309 -2.31918221032103 -0.03948540244024
 1  14.61718476917692 -1.89794216981698 -1.71970938603860
 1  16.55633526292629 -1.95940146504650 -1.31622309180918
 1  16.24015921662166  1.46363419711971  0.66216276057606
 1  16.55479992719272 -0.17233640874087  1.19979274047405
 1  18.02650358905890 -0.80727727512751  0.06266292589259
 1  18.05826289078908  0.65109242814281 -1.36141971777178
 1  18.35421621422142  1.83318747644764  0.82353035833583
 1  18.94896205650565  0.45243942494249  1.45760576087609
 1  20.89440435313531  0.31837798599860 -0.05702863886389
 1  19.97693179977998  3.16171973387339 -0.56636022942294
 1  21.45161941404140  2.66759341214121 -1.18312967626763
 1  19.96786069046905  1.76539835063506 -1.86036300530053
 1  21.13696967216722  1.15618372747275  2.16906652385239
 1  22.25250695699570  2.13407463716372  0.86300126642664
 1  20.79815954585459  2.99945002830283  1.69560000050005

