%nproc=4
%Mem=2GB
# td=(NStates=1) CAM-B3LYP/6-31G(d,p) 

TD

0 1
12 -7.11507208020802  0.56975572367237  0.09611729912991
 6 -4.83657827582758 -1.87695887428743  0.47214374707471
 6 -4.80596052495250  2.89944839213921  1.20772713761376
 6 -9.47650238573857  3.07611310681068 -0.27278013771377
 6 -9.51614192789279 -1.83060857185719 -0.88432486158616
 7 -5.06530995559556  0.48693851195120  0.66630704900490
 6 -4.34614432053205 -0.64943476547655  0.73632165536554
 6 -2.81013001840184 -0.28335776147615  1.10271062526253
 6 -3.05850928932893  1.18598126642664  1.60921165186519
 6 -4.48477547244724  1.52039278807881  1.17681471137114
 6 -2.77767284938494  1.32345463356336  3.03828523742374
 6 -1.94747820882088 -0.54866012741274  0.00248420672067
 6 -0.43217063966397 -0.23266761396140  0.48832296159616
 6  0.58105924312431 -0.49521303420342 -0.75075045554555
 8  0.23622486258626 -0.95223063066307 -1.85675200690069
 8  1.82787459795980 -0.43232062846285 -0.27926471537154
 7 -7.19961040894089  2.65000058985899  0.27219591509151
 6 -6.04698397739774  3.47096807260726  0.76461999559956
 6 -6.42802005510551  4.77251154055406  0.76935762296230
 6 -7.74988769576958  4.88183881538154  0.31712010331033
 6 -8.21882615421542  3.48877807310731  0.09172171847185
 6 -5.49552750945095  5.83616608250825  1.28104286478648
 6 -8.61023882148215  5.94599563326333  0.09744673007301
 6 -8.52166605790579  7.08021414001400  0.76469271907191
 7 -9.11150342294230  0.62209507060706 -0.51547558125813
 6 -9.85633189288929  1.67755770887089 -0.61066739083908
 6 -11.15150424702470  1.34870320942094 -1.09820153965397
 6 -11.21614401830183 -0.01112574847485 -1.21484019801980
 6 -9.89892557325733 -0.51310328462846 -0.88187320342034
 6 -12.27794661836183  2.28102867386739 -1.32393916871687
 6 -12.34739928622862 -0.87478488858886 -1.72682349084909
 6 -12.39035652405241 -1.15862827402740 -3.21157627622762
 7 -7.16012548084808 -1.42140175377538 -0.20117479447945
 6 -8.23024326412641 -2.27762293439344 -0.48602355755576
 6 -7.72999914551455 -3.70851911941194 -0.57667494479448
 6 -6.40445432953295 -3.58142247924793 -0.04400613251325
 6 -6.15984858125813 -2.21530981228123  0.06133893809381
 6 -8.56968443584358 -4.91406424882488 -0.89347782618262
 6 -5.28001247154715 -4.31218510201020  0.25212808540854
 8 -5.08928776667667 -5.57622210561056  0.35981301200120
 6 -4.07918149754975 -3.29348513831383  0.55180504580458
 6 -3.50041067196720 -3.69103432473247  1.99921029392939
 8 -3.82607420802080 -3.08428516471647  2.99562224332433
 8 -2.68431962566257 -4.64509923232323  1.85219380028003
 6 -1.99582016991699 -5.01363559265927  3.06150108560856
 6  2.86619913161316 -0.63382117671767 -1.26694789518952
 6  4.17186927592759 -0.37651582788279 -0.60055020402040
 6  5.09646313071307  0.46558282368237 -0.98276804950495
 6  4.93005142814281  1.42522517181718 -2.13670783608361
 6  6.39385371817182  0.49535138533853 -0.27907439263926
 6  7.62385992389239  0.04255390849085 -1.08980593109311
 6  8.83036490909091 -0.01197632803280 -0.24151596439644
 6  10.23275389988999 -0.52737980968097 -0.84258522902290
 6  10.00736743694369 -1.94594553065307 -1.29126259125913
 6  11.39811268816882 -0.23500728152815 -0.02060119151915
 6  12.69477438513851 -0.48853290439044 -0.74127415031503
 6  13.95366483488349 -0.13245444824482  0.23440050755076
 6  15.23469959485949 -0.24013774287429 -0.43610184998500
 6  15.60199186808681 -1.63635126892689 -0.99440905860586
 6  16.38877298319832  0.26017037703770  0.46478098529853
 6  17.81649623902390  0.43585498389839 -0.17937375197520
 6  18.68090846034604  1.15763398039804  0.89207964096410
 6  20.14346301550155  1.17572790629063  0.30927569076908
 6  20.33953530733073  1.94866316351635 -1.04379537223722
 6  21.09939086988699  1.65147808410841  1.39026438983898
 1 -4.27365885038504  3.72358788018802  1.58434302120212
 1 -10.06028642134213  4.11574240924092 -0.58724411591159
 1 -10.19019230863086 -2.54829417021702 -1.19406605880588
 1 -2.52583904080408 -0.94971328522852  2.03622431363136
 1 -2.42691629682968  1.98819240184018  1.19022967336734
 1 -1.62491694919492  1.32700315321532  3.39241295479548
 1 -3.00223528352835  2.31552561006101  3.20456262166217
 1 -3.34895833853385  0.79153383738374  3.81047346014602
 1 -1.94481696659666 -1.66531649204921 -0.27592150135014
 1 -1.99452112461246 -0.15798854845485 -1.09519955955596
 1 -0.36300981838184  0.91290590449045  0.84613501260126
 1 -0.22244004600460 -0.84187870307031  1.27051100630063
 1 -5.77892666806681  6.77447609170917  0.96448215741574
 1 -5.43074006340634  5.95138850195020  2.37423372047205
 1 -4.36823077907791  5.57370853725372  1.09627280288029
 1 -9.40845289778978  5.83004915301530 -0.65070529872987
 1 -9.29435065096510  8.00443118201820  0.67642726452645
 1 -7.86812627842784  7.25111151065107  1.59770815631563
 1 -11.86458056315632  3.01786211221122 -2.07142014671467
 1 -13.03428309750975  1.65925981718172 -1.75692688418842
 1 -12.52511424252425  2.78493714841484 -0.39030027402740
 1 -12.54307908630863 -1.90032947804780 -1.23463841874187
 1 -13.40461918081808 -0.44743147994799 -1.30542607010701
 1 -13.00436678927893 -1.95873055925593 -3.35508539303930
 1 -12.59511307550755 -0.25300983858386 -3.77182067776778
 1 -11.44099037833784 -1.73226809390939 -3.48812743274327
 1 -9.23730333333333 -4.86279702260226 -1.86135940004000
 1 -8.03395276007601 -5.78278828302830 -1.04322393539354
 1 -9.20800068496850 -5.10464548584859  0.13329150655066
 1 -3.23038373427343 -3.27442069276928 -0.06239151065107
 1 -1.40035820232023 -4.19393583328333  3.50523343864386
 1 -2.66120572917292 -5.51317293489349  3.83230606950695
 1 -1.26641475297530 -5.78137741094109  2.55136908980898
 1  2.64433373747375 -1.48509034493449 -1.81453541854185
 1  2.51830930853085  0.07493177277728 -2.01411456365637
 1  4.15038594419442 -1.13151536673667  0.31209442544254
 1  4.04362332583258  1.68592730313031 -2.56408477817782
 1  5.23131854355436  2.44682494139414 -1.73129959815982
 1  5.60007731533153  1.24000510801080 -3.02374110511051
 1  6.36426848974897  1.56883088308831  0.09022166496650
 1  6.34019813921392 -0.05862389978998  0.55076479317932
 1  7.50681806650665 -1.10887012221222 -1.49071039463946
 1  7.89865230113011  0.65163837193719 -1.94634755835584
 1  9.03587563916392  1.05842372737274  0.02587021922192
 1  8.70706919561956 -0.69840534673467  0.48354621832183
 1  10.30541809320932  0.00740327802780 -1.76908179767977
 1  9.05341032653265 -2.01819979647965 -1.75890181498150
 1  10.84030658635864 -2.27697448134813 -2.11771601550155
 1  10.10395328132813 -2.59937187918792 -0.38817825752575
 1  11.37491517241724  0.79126135633563  0.48971045854585
 1  11.28529158255826 -0.84352031333133  0.83742436403640
 1  13.01997531643164 -1.49103726492649 -1.17677534513451
 1  12.57283103560356  0.14691538253825 -1.53157651895190
 1  13.85148658535854  1.01736429242924  0.36592393539354
 1  13.93559631273127 -0.55400500520052  1.12783930043004
 1  15.34444773327333  0.37171665666567 -1.17681203920392
 1  15.99119656255626 -2.41918221032103 -0.19386083998400
 1  15.09082213291329 -2.36280865646565 -1.70533794889489
 1  16.65909553895390 -1.51237676257626 -1.46269773927393
 1  15.98132333303330  1.38599643334333  0.71978852315232
 1  16.38050249744974 -0.30286946204621  1.32511527272727
 1  18.31950288898890 -0.44343089048905 -0.26940028042804
 1  17.85224228872887  0.84942226112611 -1.19024260006001
 1  18.28554934753475  2.14441859955996  1.11913991929193
 1  18.83623078337834  0.61504568556856  1.88665866616662
 1  20.31595650835084  0.24990113831383  0.21885894989499
 1  19.97315142174217  2.88669223112311 -0.88325191859186
 1  21.37587183928393  1.83543019581958 -1.10815217851785
 1  19.85732963736374  1.61612342314231 -1.95580254925493
 1  21.15191116631663  0.99499760886089  2.36626624382438
 1  22.17869957625762  1.49366059575958  1.16332129842984
 1  20.90188991889189  2.64665474877488  1.67915835633563

