%nproc=4
%Mem=2GB
# td=(NStates=1) CAM-B3LYP/6-31G(d,p) 

TD

0 1
<<<<<<< HEAD
12 -7.21396196919692  0.57321606970697  0.06829451685169
 6 -4.90970558855886 -1.92532371077108  0.47195372807281
 6 -4.83915384428443  2.82866131343134  1.03121948684868
 6 -9.40010474597460  3.08253374887489 -0.47292015171517
 6 -9.56331664536454 -1.78159367036704 -0.91146757585759
 7 -5.12630605520552  0.40966078417842  0.63639405770577
 6 -4.38101780788079 -0.67743756575658  0.81329935313531
 6 -2.91441044644464 -0.40525995169517  1.21840219441944
 6 -3.03459689808981  1.11714438273827  1.66936766746675
 6 -4.47887488238824  1.51954270307031  1.05532256215622
 6 -3.18518360046005  1.30497278537854  3.28856026492649
 6 -1.86338979998000 -0.63272853425343  0.12577653595360
 6 -0.45911333393339 -0.28809315651565  0.60382451175118
 6  0.52328346554655 -0.60676418931893 -0.56549192969297
 8  0.12080332043204 -1.04574998259826 -1.62753908560856
 8  1.75090690119012 -0.38278567496750 -0.14223101200120
 7 -7.11413186108611  2.60171576137614  0.48677737323732
 6 -6.04786406540654  3.39850082588259  0.78210174377438
 6 -6.45626287938794  4.80462475187519  0.80300098729873
 6 -7.74663737073707  4.81100173167317  0.32371076237624
 6 -8.18252252385239  3.40582977827783  0.15287783408341
 6 -5.46497445414541  5.90264273017302  1.13741850235024
 6 -8.56421421902190  6.03841487518752  0.09058604400440
 6 -8.44894878617862  7.17260337893789  0.71864811461146
 7 -9.15031730433043  0.59915277637764 -0.48648268196820
 6 -9.91646790649065  1.81840179327933 -0.69462578667867
 6 -11.24890398699870  1.47638597769777 -1.11785350485049
 6 -11.20891329522952  0.15283064716472 -1.17612632663266
 6 -9.99267494819482 -0.36578855315532 -0.78232324842484
 6 -12.37160598429843  2.43717428842884 -1.44030080488049
 6 -12.36445099139914 -0.74347175727573 -1.87519832833283
 6 -12.18630611901190 -0.98694110531053 -3.36991210981098
 7 -7.19229869816982 -1.43251286488649 -0.16610128712871
 6 -8.32987322712271 -2.19497466956696 -0.46984193939394
 6 -7.93477962356236 -3.53189145664566 -0.56082335963596
 6 -6.52581646574657 -3.49231356835684 -0.04892662456246
 6 -6.18231082748275 -2.18915719701970  0.14202700690069
 6 -8.68308577597760 -4.72399524192419 -0.87704618301830
 6 -5.35140961126113 -4.28629251275127  0.20901377397740
 8 -5.09208804670467 -5.49182366576658  0.04744177487749
 6 -4.14070765016502 -3.24483027282728  0.60962082738274
 6 -3.58638926982698 -3.67886310761076  1.92310268316832
 8 -3.79375097569757 -3.25819255545555  3.03574625572557
 8 -2.75092628632863 -4.80943566596660  1.77031561246125
 6 -2.21986257415742 -5.42206643574357  2.88908384388439
 6  2.84577708940894 -0.67325512011201 -1.18785998639864
 6  4.17553964296430 -0.54197237353735 -0.49309945894589
 6  5.16039952435244  0.28469473487349 -0.88059783248325
 6  5.07826624962496  1.06512916221622 -2.11121528682868
 6  6.43275760856086  0.37944979517952 -0.20785727092709
 6  7.65429296719672 -0.16983733063306 -0.98673562406241
 6  8.97131900450045 -0.21234636503650 -0.22096390919092
 6  10.25589621412141 -0.61660873257326 -0.87855882638264
 6  10.20607730793079 -2.13126406250625 -1.11922538753875
 6  11.55322819971997 -0.35915969676968  0.02640350895089
 6  12.86278118581858 -0.54159821092109 -0.63584360726073
 6  14.08590805920592 -0.07910911371137  0.17488455595560
 6  15.44027015191519 -0.19228295739574 -0.44306254605461
 6  15.81848351725172 -1.60753838763876 -0.81181079877988
 6  16.54079818571857  0.48355271527153  0.46662116931693
 6  17.85476006540654  0.52088348674867 -0.25998181278128
 6  18.84707507700770  1.30035825282528  0.67171760476048
 6  20.27095576477648  1.37895822932293  0.21669643284328
 6  20.30837219101910  2.09037733493349 -1.24260525322532
 6  21.15497642844284  2.15492842914291  1.09959532293229
 1 -4.11887337183718  3.43075859725973  1.32532711961196
 1 -10.14232462516252  3.83466430143014 -0.72082747424742
 1 -10.20571386078608 -2.73527286808681 -1.15405205740574
 1 -2.70305676257626 -1.22354066796680  2.09701039223922
 1 -2.29309291449145  1.74686826942694  1.21803245364536
 1 -2.32109656715672  1.02397285018502  3.76531024452445
 1 -3.35385044504450  2.35115917341734  3.74051621702170
 1 -4.00516395909591  0.67238192219222  3.67254966776678
 1 -1.77166965186519 -1.51897185758576 -0.34469837903790
 1 -2.10989266176618  0.28463571397140 -0.59093913351335
 1 -0.31974549194919  0.60663527742774  0.95670606970697
 1 -0.01205900790079 -0.82037655285529  1.44995895109511
 1 -5.64083285868587  6.61446009010901  0.52307801700170
 1 -5.65805279467947  5.93040640374037  2.30044634173417
 1 -4.58041199719972  5.39863102950295  0.77021019661966
 1 -9.63955600810081  5.91520766886689 -0.50523075127513
 1 -9.00154137003700  8.05499623852385  0.58036765856586
 1 -7.46491595739574  7.16157255675568  1.57308569406941
 1 -11.99841394649465  3.14655498149815 -2.38734173887389
 1 -13.33075274447445  2.01158504970497 -1.73027421892189
 1 -12.73934566566657  2.97124577927793 -0.49259050305031
 1 -12.41643642204220 -1.71260070517052 -1.35960091499150
 1 -13.31556027492749 -0.27981471827183 -1.69819534703470
 1 -13.27594394699470 -1.28693337953795 -3.74921480598060
 1 -11.75914947914791 -0.12170670827083 -3.84227772347235
 1 -11.40945722502250 -1.81814668176818 -3.68568718871887
 1 -8.86446604960496 -4.72670341324132 -1.89701296539654
 1 -8.11172053685369 -5.58779878407841 -0.98895850885089
 1 -9.63715360026003 -4.94960998229823 -0.24019584218422
 1 -3.49474016991699 -3.47375062576258 -0.05775104660466
 1 -1.50315848234823 -4.56709314901490  3.30702361766177
 1 -3.06149575817582 -5.74626624422442  3.54711755065507
 1 -1.73480159165917 -6.37076634983498  2.58297225012501
 1  2.49030833493349 -1.71123295919592 -1.46380034503450
 1  2.76089356695670 -0.14159988038804 -2.10216336853685
 1  4.17511841744174 -1.09736195139514  0.49056227222722
 1  3.99143810731073  1.14230294069407 -2.68344671437144
 1  5.50120553225323  2.01268152705271 -1.95659212741274
 1  5.69807711531153  0.65529663716372 -2.82824155515552
 1  6.52959502240224  1.29106310631063  0.00332297509751
 1  6.55540966036604 -0.03597163456346  0.79819953665367
 1  7.47539492419242 -1.08481771697170 -1.54450577417742
 1  7.72106454235424  0.45897910601060 -1.92667559115912
 1  9.07026907850785  0.89152703770377  0.02885051725173
 1  8.66727521622162 -0.45270077627763  0.71166903060306
 1  10.41893944534453 -0.05826328862886 -1.79828471797180
 1  9.37294227972797 -2.28041601810181 -1.83456938173817
 1  11.19520207590759 -2.63919070297030 -1.34410865476548
 1  9.82952583858386 -2.51261320332033  0.01124168446845
 1  11.48646632753275  0.73188541874187  0.30529201670167
 1  11.45815886928693 -0.82683864516452  0.99149977157716
 1  12.86446976587659 -1.41524968616862 -0.98721638923892
 1  12.98935268776878  0.06731742274227 -1.74554791609161
 1  13.77207864456446  0.99189174517452  0.27568491149115
 1  13.93469622272227 -0.54630423512351  1.16890340684068
 1  15.53291658015802  0.45465495049505 -1.25254961296130
 1  16.14134157705771 -2.13791408350835  0.11422996909691
 1  15.14815786648665 -2.14478685428543 -1.48283569866987
 1  16.84867449684969 -1.40513603850385 -1.31636310581058
 1  16.23807900860086  1.62676050975098  0.75415195949595
 1  16.48548299549955  0.01193201810181  1.49714247544754
 1  18.36535747444745 -0.46248279567957 -0.33777711811181
 1  17.88321538603861  1.05832315121512 -1.28088166396640
 1  18.61801259385939  2.21701585928593  0.76639464476448
 1  18.94120128042804  0.90342452345235  1.71126112641264
 1  20.75032994569457  0.27568371657166  0.02971003500350
 1  19.80822492909291  3.08848241014101 -1.37908150155016
 1  21.45389964206421  2.06912356515652 -1.36754811811181
 1  19.95561946634664  1.52055386618662 -2.07296426542654
 1  21.05847182238224  1.98137624672467  2.32321193839384
 1  22.17212891919192  1.82270350005001  0.77718268456846
 1  21.08583831373138  3.33966404970497  0.98190863136314
=======
12 -7.05018559155916  0.63421216931693  0.03619130653065
 6 -4.83259787778778 -1.93641481988199  0.54993152585259
 6 -4.86384631353135  2.82568101540154  1.11880824572457
 6 -9.36865160066007  3.06237173267327 -0.36917977767777
 6 -9.60187050075008 -1.69954546554655 -0.84965139423942
 7 -5.02899632423242  0.44091390949095  0.67434785308531
 6 -4.31619132523252 -0.71403122512251  0.80941896509651
 6 -2.85842484788479 -0.26832625832583  1.16721707590759
 6 -3.00267370577058  1.10721338963896  1.73252398309831
 6 -4.38436543144314  1.48039878867887  1.17310434033403
 6 -2.92428751085109  1.34393668176818  3.25904731363136
 6 -1.92574603560356 -0.63338860026003  0.03412737103710
 6 -0.35529295189519 -0.27388173537354  0.50184431373137
 6  0.48123926112611 -0.63753726662666 -0.64417979847985
 8  0.10567180728073 -1.23055846344635 -1.66150248194819
 8  1.77241905240524 -0.52767016341634 -0.26470325922592
 7 -7.13895434333433  2.63416900670067  0.24708340384038
 6 -6.07645692469247  3.30428140394039  0.69349288288829
 6 -6.42683993709371  4.79744403380338  0.58856954415442
 6 -7.75268797579758  4.83799443094309  0.24069246054605
 6 -8.14248852045205  3.46511570687069 -0.04514196789679
 6 -5.50825878257826  5.92391485738574  1.04726948744874
 6 -8.64073187078708  6.00751178487849  0.14018100350035
 6 -8.52626651795179  7.23161928052805  0.83613986378638
 7 -9.09762203480348  0.66035889698970 -0.50251428512851
 6 -9.90979723942394  1.76228618171817 -0.66965328942894
 6 -11.21466056265626  1.44817315641564 -0.97766948644864
 6 -11.32220462436244  0.10638600270027 -1.15018373237324
 6 -9.96354203490349 -0.40977295159516 -0.91847686378638
 6 -12.39153797749775  2.50860143114311 -1.13252002680268
 6 -12.48243278957896 -0.79067647774777 -1.64474528302830
 6 -12.38387587598760 -1.10654306550655 -3.10509562816282
 7 -7.22305177347735 -1.25834544814481 -0.09730440744074
 6 -8.30593083288329 -2.15259043114311 -0.46224117931793
 6 -7.81664781038104 -3.52848111561156 -0.51473875117512
 6 -6.52119600370037 -3.48310264726473 -0.08905063696370
 6 -6.24151674807481 -2.13284156545655  0.17154995919592
 6 -8.65383285068507 -4.64975781818182 -0.93687216561656
 6 -5.37542201250125 -4.40616449994999  0.17029990259026
 8 -5.19563840174017 -5.60779526292629  0.11916894759476
 6 -4.23466704610461 -3.30345613541354  0.57160702600260
 6 -3.60208083898390 -3.71970719201920  1.93302367526753
 8 -3.74001560216022 -3.17977471367137  2.98979166026603
 8 -2.70128132183218 -4.79389411181118  1.63032161306131
 6 -1.99775036293629 -5.36771100020002  2.72937787328733
 6  2.85337784948495 -0.75492328692869 -1.28545974637464
 6  4.13063515251525 -0.52394057035704 -0.67116726572657
 6  5.12116560096010  0.32338860426043 -1.04270404310431
 6  4.94204262726273  1.18275092439244 -2.31140530583058
 6  6.43108744154415  0.38833068326833 -0.33562004720472
 6  7.67273481138114 -0.22260260716072 -1.04870182068207
 6  8.92761463406341 -0.21146627702770 -0.07097891069107
 6  10.27419804430443 -0.67572464416442 -0.74597556805681
 6  10.09706640684068 -2.18773971007101 -1.10711417641764
 6  11.46361923882388 -0.40875465626563  0.10475134373437
 6  12.90944585228523 -0.57277132823282 -0.51962198509851
 6  14.04186365476548 -0.19422062486249  0.30857792529253
 6  15.37007313221322 -0.17073080218022 -0.47976621642164
 6  15.82302397129713 -1.64539217301730 -0.86792641034103
 6  16.41743584948495  0.47254161416142  0.50823533073307
 6  17.81078566796679  0.74366576497650 -0.16723253785379
 6  18.88993936343634  1.41017923492349  0.76507694069407
 6  20.26265493469347  1.42427276077608  0.24878964216422
 6  20.32288364216422  2.07839613681368 -1.06934792749275
 6  21.28689962076208  2.16681961826183  1.16528189158916
 1 -4.07339882438244  3.53393891529153  1.39693428032803
 1 -10.36765715841584  3.64608544354435 -0.23748914041404
 1 -10.15240853025302 -2.52820216101610 -1.09938659085909
 1 -2.65709216611661 -1.05485379927993  1.96707739893989
 1 -2.32238584378438  1.86324990759076  1.30745139553955
 1 -2.02046650415042  1.07792824572457  3.80580429392939
 1 -3.06203126312631  2.39941399889989  3.34742690809081
 1 -3.79169261196120  0.86388107210721  3.84774718751875
 1 -2.12139462436244 -1.47952791319132 -0.15066897609761
 1 -2.18748042054205  0.05801305170517 -0.83629366896690
 1 -0.32104562196220  0.83785839973997  0.65322572167217
 1 -0.17966576857686 -0.83091760696070  1.39434338953895
 1 -5.58794757015702  6.70785943004300  0.55107081628163
 1 -5.43732072147215  5.97527089018902  2.15072136923692
 1 -4.44750870687069  5.55617678407841  0.70760393599360
 1 -9.31023307580758  5.84638078617862 -0.57204743294329
 1 -9.12967418331833  8.10013075197520  0.32283190499050
 1 -7.92213167896790  7.56703310281028  1.72215060056006
 1 -12.09779388448845  2.96708703470347 -1.96207921262126
 1 -13.32724239343934  1.89372326352635 -1.11034222572257
 1 -12.28447017811781  3.38622727742774 -0.42624386838684
 1 -12.23466824522452 -1.71753119821982 -1.08595355025503
 1 -13.33050176907691 -0.08841557835784 -1.40129565706571
 1 -13.19877623022302 -1.62326701290129 -3.42636252075208
 1 -12.74759832403240 -0.07882241984198 -3.77949144484448
 1 -11.34010028932893 -1.39538440554055 -3.70071869186919
 1 -9.16619622262226 -4.49492023492349 -1.89997326142614
 1 -7.96204556935694 -5.39590959515952 -1.11306091909191
 1 -9.47599748464846 -5.04491951325133 -0.13818564116412
 1 -3.58686938283828 -3.68423167386739 -0.24099937143714
 1 -1.67607577407741 -4.54802124182418  3.27375029032903
 1 -2.76349595819582 -5.94830644824482  3.39057189608961
 1 -1.04090220172017 -6.15279455265526  2.58961291419142
 1  2.73140244434443 -1.90325216111611 -1.70165413041304
 1  2.67848532613261 -0.22316803720372 -2.23214636683668
 1  4.31272217781778 -1.03064527972797  0.32788600460046
 1  3.90326929042904  1.22028073847385 -2.61369973967397
 1  5.67875328702870  2.13518377727773 -2.23722019021902
 1  5.37229453705370  0.73742484998500 -3.53737246824682
 1  6.39755181808181  1.56865086508651 -0.14309166636664
 1  6.39045316471647 -0.16473451085108  0.55425514221422
 1  7.54578196289629 -1.28693792899290 -1.40492181578158
 1  7.93119555545555  0.50254346244624 -1.98735165876588
 1  9.17020907250725  0.82408029302930  0.32315994819482
 1  8.56388487718772 -0.83182868906891  0.77896576027603
 1  10.46027357875787 -0.03507096939694 -1.70840573007301
 1  9.42656764226423 -2.23477145364537 -1.97858378317832
 1  11.19939249494950 -2.35657244114411 -1.56319056295630
 1  9.77008989498950 -2.87383932593259 -0.30652009170917
 1  11.43265094599460  0.60480271047105  0.48740022752275
 1  11.26485953935394 -1.27262322362236  1.04107472907291
 1  12.97185050395039 -1.59638779998000 -0.97807547514751
 1  12.73265701820182  0.11453214421442 -1.45031839313931
 1  14.12598403510351  0.88234079007901  0.71364870787079
 1  14.05515826892689 -0.66550615531553  1.25810232673267
 1  15.41079436793679  0.47174665966597 -1.33264762276228
 1  15.85643308620862 -2.18549884198420  0.03212175827583
 1  15.05872892359236 -2.27032940854085 -1.46408382348235
 1  16.66226585598560 -1.57809333423342 -1.48955042454245
 1  16.01809701040104  1.40251808550855  0.71996854115412
 1  16.40683513071307 -0.08404757985799  1.39130189138914
 1  18.35725666436644 -0.32782933033303 -0.26484982538254
 1  17.66107317181718  1.31488880778078 -1.15966954275428
 1  18.58604939753975  2.40792495019502  1.19362736803680
 1  18.80308746904691  0.78609279027903  1.66818681898190
 1  20.54441935463546  0.35672182038204  0.13715077907791
 1  19.89570367696770  3.10208377027703 -0.74439803320332
 1  21.40754500660066  2.26847350015001 -1.56442780608061
 1  19.81249515391539  1.58957076787679 -1.85453242224222
 1  21.18708468366837  1.89048715781578  2.30519013621362
 1  22.24906661296129  2.02435366506651  0.97124209050905
 1  21.01169089898990  3.20853093639364  1.09013945444544
>>>>>>> 8e03b5b5abfc0030b3aa597dc0de36371bfbd096

