%nproc=4
%Mem=2GB
# td=(NStates=1) CAM-B3LYP/6-31G(d,p) 

TD

0 1
12 -7.23780435343534  0.66490523862386  0.04541222862286
 6 -4.81346596459646 -1.87106828522852  0.38302483518352
 6 -4.79975990489049  2.88516696399640  1.24209057395740
 6 -9.44680941644164  3.14069956545655 -0.41366422612261
 6 -9.55113542724273 -1.71793730473047 -0.83830025912591
 7 -5.09518294289429  0.40886070417042  0.68261868016802
 6 -4.28546825292529 -0.67673749574957  0.80588861206121
 6 -2.87658666406641 -0.50056948264827  1.27453780798080
 6 -3.05327876627663  0.95831850015002  1.71193192389239
 6 -4.35476247114711  1.55946669546955  1.18157518741874
 6 -3.02047712981298  1.11200348844884  3.27071848074808
 6 -1.93683714471447 -0.60348560996100  0.03739769806981
 6 -0.45630305290529 -0.38931327852785  0.45049917921792
 6  0.51273241044104 -0.77536104900490 -0.72505788628863
 8  0.19483072317232 -1.17685309290929 -1.78524485618562
 8  1.76282809330933 -0.56296369276928 -0.16053284218422
 7 -7.12631307920792  2.59857544734473  0.42306100160016
 6 -6.04275355435544  3.31473244904490  0.80705423902390
 6 -6.42895014811481  4.68938322772277  0.73114380158016
 6 -7.72023473047305  4.78291892339234  0.32858124942494
 6 -8.19125339693970  3.39960915621562  0.00726327262726
 6 -5.46618457515752  5.81009347524753  1.12692745324532
 6 -8.50847864546455  6.05502653635364  0.04130111551155
 6 -8.42206609790979  7.25118123672367  0.70855710551055
 7 -9.12440471307131  0.62492535363536 -0.55455948964896
 6 -9.87583384308431  1.75940589368937 -0.73908023212321
 6 -11.21132022862286  1.43774211331133 -1.13082480198020
 6 -11.24624702860286  0.10296566066607 -1.31042975697570
 6 -10.04508018871887 -0.41810378467847 -0.86096111221122
 6 -12.23698252195219  2.47092766376638 -1.30225700050005
 6 -12.41882642894289 -0.70817822792279 -1.77531834033403
 6 -12.33140062846285 -1.11485389658966 -3.24270938953895
 7 -7.22863233153315 -1.33703331693169 -0.20547522452245
 6 -8.28183842364236 -2.20761593369337 -0.41268622382238
 6 -7.88427457305731 -3.56982525002500 -0.46164344164416
 6 -6.52617650175018 -3.44654899189919 -0.08176990889089
 6 -6.14048664506451 -2.18706698799880  0.05405821002100
 6 -8.70064753215321 -4.91566440884088 -0.74630310871087
 6 -5.34480895119512 -4.35882976647665  0.21125399799980
 8 -5.17758659655966 -5.59734421782178  0.16925395609561
 6 -4.13279685908591 -3.21744753455346  0.54096396169617
 6 -3.50083071397140 -3.57248246954695  1.87554792769277
 8 -3.74988658925893 -2.97451418761876  2.91706438753875
 8 -2.69862105580558 -4.68347306970697  1.72655123602360
 6 -2.24944553245325 -5.29821405050505  2.98949388488849
 6  2.77399991169117 -0.69910770537054 -1.19884108450845
 6  4.10393248224822 -0.45322349864986 -0.46612676167617
 6  5.10540402480248  0.39409567496750 -0.95210498319832
 6  5.01421984498450  1.22699534883488 -2.21659582488249
 6  6.37574190699070  0.53011486168617 -0.09381586678668
 6  7.60770830873087 -0.19912025892589 -0.74316126662666
 6  8.95584745734573 -0.15353048344834 -0.09312112491249
 6  10.23271389588959 -0.43070014171417 -0.89108007850785
 6  10.12829953015301 -2.00787172327233 -1.27974143914391
 6  11.52611548844884 -0.25772955375538  0.01778264686469
 6  12.82282719041904 -0.47175122622262 -0.61715173807381
 6  14.02294176257626 -0.22540374317432  0.26058312581258
 6  15.40065619051905 -0.14535826492649 -0.49059729952995
 6  15.63397506640664 -1.57040467426743 -1.02242185988599
 6  16.50324443034303  0.32603696369637  0.43954846204620
 6  17.95097968736874  0.48919031743174 -0.17771358595860
 6  18.81721209070907  1.40871908890889  0.63300373337334
 6  20.28569723892389  1.29467980148015  0.18112287548755
 6  20.38752010581058  2.23537183438344 -1.14522551525153
 6  21.13715464626463  1.95996893319332  1.25738110151015
 1 -4.01684316881688  3.60358587998800  1.50967555445545
 1 -10.06272666536654  3.92126296129613 -0.63550894239424
 1 -10.24433772317232 -2.57604694549455 -1.13789044124412
 1 -2.40580703760376 -0.95669398329833  2.15251594279428
 1 -2.36433003820382  1.64211779437944  1.41141179157916
 1 -2.08810326782678  0.56324677757776  3.90166387988799
 1 -3.00992605260526  2.18410246774677  3.61868403380338
 1 -4.03765720842084  0.88544322832283  3.81070348314832
 1 -2.04392687758776 -1.56351631203120 -0.41279518871887
 1 -2.09663133563356  0.13937118751875 -0.83447348694869
 1 -0.09216273367337  0.69234384828483  0.58114851395139
 1 -0.12131993399340 -0.91359587478748  1.38212216741674
 1 -5.85143391879188  6.80838948304831  0.74751046024602
 1 -5.29942693209321  5.98414177727773  2.21080737783778
 1 -4.40030398639864  5.55728689508951  0.66393956955696
 1 -9.18385043754375  6.05965211331133 -0.81192142034203
 1 -9.22421363726373  8.09632037093709  0.41818143994399
 1 -7.87708717451745  7.38870527002700  1.66395478097810
 1 -12.23045715081508  2.98984931093109 -2.52889589428943
 1 -13.31856152535253  1.98247213841384 -1.36150734223422
 1 -12.28927065816582  3.28132678737874 -0.68232947694769
 1 -12.71587636603660 -1.71631107620762 -1.03911886678668
 1 -13.28727744664466 -0.04239097589759 -1.41177670517052
 1 -13.34011036363636 -1.65286997319732 -3.49778966346635
 1 -12.47820138433843 -0.03884842244224 -3.80115361106111
 1 -11.42308858815882 -1.73275814291429 -3.45803442344234
 1 -8.81937154015402 -5.29632037493749 -2.00267353145315
 1 -7.92665203000300 -5.73836384058406 -0.34152376537654
 1 -9.63446333123312 -4.96914193549355 -0.25978780138014
 1 -3.31248194409441 -3.27662091279128 -0.25179045054505
 1 -1.53316148264827 -4.84734117381738  3.44933784908491
 1 -3.14267387598760 -5.45523714131413  3.58559139803980
 1 -1.87982609410941 -6.26290556375638  2.50508446134613
 1  2.85553485758576 -1.75610744664466 -1.49097306230623
 1  2.59958743634363 -0.17438315871587 -2.05390854305430
 1  4.36221712731273 -0.92966518171817  0.55759897589759
 1  4.10705966946695  1.10138884928493 -2.91863023272327
 1  5.31347675937594  2.21309156805681 -2.08639510771077
 1  5.72777008460846  0.50656176367637 -2.79428815981598
 1  6.77419948284828  1.52077607760776  0.26609925272527
 1  6.20415453485349 -0.15061309870987  0.85954567126713
 1  7.33802118681868 -1.26747598279828 -1.12872419601960
 1  7.75048748464847  0.38213142124212 -1.78489141274127
 1  9.00343239483948  0.90669855485549  0.30642827502750
 1  9.09681817051705 -0.89608511471147  0.80868873257326
 1  10.27975552695269  0.06297883558356 -1.70211510101010
 1  9.06804178967897 -2.19147712421242 -1.66118204300430
 1  10.65541809750975 -2.45690247414741 -2.14135837973797
 1  10.56389927592759 -2.79369131113111 -0.28750819051905
 1  11.51803948484848  0.66312854305431  0.52817430493049
 1  11.13572662606261 -0.99937589888989  0.77473809540954
 1  12.93999731863186 -1.37586574777478 -1.12606027362736
 1  12.82119587208721  0.24544523552355 -1.51349471077108
 1  13.74991642834283  0.72089464546455  0.72671001400140
 1  14.17279003210321 -1.17123672837284  0.94245076157616
 1  15.38385167366737  0.69947943294329 -1.35142950095009
 1  15.63157059996000 -2.40507079917992 -0.06787824172417
 1  14.90147319801980 -1.93667604320432 -1.73813122822282
 1  16.58841847124712 -1.69103462836284 -1.61908337783778
 1  16.13627882858286  1.25334316801680  0.76452299659966
 1  16.68349279647965 -0.14374354945494  1.38509127032703
 1  18.46559749844985 -0.45866241364136 -0.18318165856586
 1  17.68635570007001  1.03468078697870 -1.13837741354135
 1  18.24140493309331  2.38954311201120  0.84253225852585
 1  18.60458761906191  0.87369155015502  1.66277627792779
 1  20.48076298899890  0.23531968016802 -0.01861479747975
 1  20.04028813541354  3.31092465436544 -0.86470006340634
 1  21.59573382548255  2.53504015681568 -1.37900926422642
 1  19.80926483088309  1.59619142994299 -1.77366433543354
 1  20.95094106930693  1.18852696179618  2.10524014121412
 1  22.20802250855085  2.02586381608161  1.01514648094810
 1  20.85947567746775  3.00815089838984  1.54654509500950

