%nproc=4
%Mem=3GB
# td=(NStates=1) iop(3/107=0140000000,3/108=0140000000) CAM-B3LYP/6-31G(d,p) 

TD

0 1
12 -7.12668736043604  0.60642902640264  0.11072744274427
 6 -4.79833865036504 -2.02504973557356  0.49756515891589
 6 -4.85297132773277  2.86490520842084  1.27933803900390
 6 -9.24790155465547  3.07696524952495 -0.30904337963796
 6 -9.50700679867987 -1.72886465216522 -0.91463826872687
 7 -5.11753878507851  0.45665175577558  0.67046487048705
 6 -4.37120936823682 -0.63300444364436  0.80051794649465
 6 -2.98621484208421 -0.46072447044704  1.29967563666367
 6 -3.03835706260626  1.02950165176518  1.69846612591259
 6 -4.47175741044104  1.52095674677468  1.29268366226623
 6 -2.85224140494049  1.20499331863186  3.22893820842084
 6 -1.89936566626663 -0.57540352955295  0.17654146444644
 6 -0.44325003420342 -0.30886413441344  0.58714209650965
 6  0.49041096429643 -0.72556917881788 -0.45958574867487
 8  0.19916013281328 -0.93860763846385 -1.61048844194419
 8  1.80628922732273 -0.57161710011001 -0.10837622522252
 7 -6.99760740414041  2.70320353025303  0.35534645874587
 6 -5.96061620542054  3.46357012441244  0.82860873697370
 6 -6.42263717211721  4.86633349694969  0.88094635333533
 6 -7.69580436573657  4.89258106330633  0.37754388078808
 6 -8.03909343684368  3.47955489428943  0.09170716931693
 6 -5.51043307720772  5.97494696839684  1.31093124832483
 6 -8.54198420642064  6.03518378797880  0.21977258975898
 6 -8.44779318931893  7.19111826152615  0.89963402270227
 7 -9.07549659075908  0.68015500990099 -0.60721729562956
 6 -9.80346783308331  1.80533385768577 -0.75558837233723
 6 -11.16399035173517  1.48491793629363 -1.35150000970097
 6 -11.20256974417442  0.08974652045205 -1.32612264056406
 6 -9.93908151175117 -0.37407760116012 -0.95541774307431
 6 -12.27016795449545  2.38755399679968 -1.66852630533053
 6 -12.29392318521852 -0.69698582238224 -1.85851518211821
 6 -12.16881879077908 -1.28925911821182 -3.24030468166817
 7 -7.14476743914391 -1.41624646034603 -0.28788146324632
 6 -8.26546087238724 -2.22702124762476 -0.63638521842184
 6 -7.78487052685269 -3.66977752915292 -0.53220352015202
 6 -6.51442923342334 -3.60793377547755 -0.16526860856086
 6 -6.15609934163416 -2.22536049184918  0.07859969536954
 6 -8.49234157365737 -4.88669476787679 -0.88810219331933
 6 -5.24725018791879 -4.39280284368437  0.13902887698770
 8 -5.14032502480248 -5.65845270227023  0.16481242984298
 6 -4.14197870047005 -3.31856930433043  0.57169549114911
 6 -3.63914809160916 -3.64856279897990  1.93607957645765
 8 -3.86471925532553 -3.05407276517652  2.94680803900390
 8 -2.83580893369337 -4.78891751025103  1.84264330183018
 6 -2.26378533553355 -5.22349755565557  3.08774617501750
 6  2.81643796419642 -0.61149943884388 -1.16717023422342
 6  4.13947483268327 -0.46341160906091 -0.60843340614061
 6  5.03630912221222  0.42627915591559 -0.95678855585559
 6  5.01771549714972  1.22311998729873 -2.18929306430643
 6  6.34010028872887  0.59752036803680 -0.20663118751875
 6  7.51792324492449 -0.05235378337834 -0.98273860256026
 6  8.87484519611961 -0.02795461156116 -0.22120822322232
 6  10.10055551615162 -0.54290595379538 -1.01710743074307
 6  9.99564284088409 -1.97087496739674 -1.42312927892789
 6  11.35955061886188 -0.28528341944194 -0.02267022952295
 6  12.72326006150615 -0.39594962846285 -0.67470497559756
 6  13.95292656445644 -0.01465718001800  0.20298671027103
 6  15.32520851185119 -0.22579166276628 -0.45638129062906
 6  15.56890316131613 -1.68535692399240 -0.65625745204520
 6  16.36098309100910  0.40006652395240  0.41794652935294
 6  17.71476906460646  0.59902363196320 -0.25164169116912
 6  18.75827624622462  1.23420149864987  0.62893615031503
 6  20.22938574297430  1.19822925542554  0.13210991699170
 6  20.41534438023803  1.91652895799580 -1.17416211211121
 6  21.25891095809581  1.73528522842284  1.20754469446945
 1 -3.99849021252125  3.40816406780678  1.56494259005901
 1 -9.99956207950795  4.02400467496750 -0.60595512171217
 1 -10.32913733783379 -2.54832036713671 -1.14130194959496
 1 -2.77983527072707 -0.99489969266927  2.15462195289529
 1 -2.34337780408041  1.63763582468247  1.30529417841784
 1 -1.79421250765077  0.92245135153515  3.43762409980998
 1 -3.00510761986199  2.19035825862586  3.77166518871887
 1 -3.50587338783878  0.56014116841684  3.84417610281028
 1 -2.03460857985799 -1.64533520432043 -0.07875588268827
 1 -2.36666303530353  0.17038465826583 -0.57060379497950
 1 -0.30098552725273  0.74589417671767  0.81353521652165
 1 -0.19775819611961 -0.69236000260026  1.52200565886589
 1 -6.00716489418942  6.81757926992699  0.78635846714671
 1 -5.29950142144214  6.24316719811981  2.36550856335634
 1 -4.35545038963896  5.91578584658466  1.11772250485048
 1 -9.29957021682168  5.91419480148015 -0.40147149984998
 1 -9.05619468316832  8.02697241824182  0.64146392209221
 1 -7.67044497659766  7.47978481488149  1.50692965326533
 1 -12.01327180018002  3.12671181828183 -2.36458228972897
 1 -13.13060035773577  1.85867460986099 -2.18600432863286
 1 -12.86232726542654  2.63545087918792 -0.61855229472947
 1 -12.39788175307531 -1.61907283008301 -1.17936143704370
 1 -13.12021432053205 -0.21016372687269 -1.80344609900990
 1 -13.01106630583058 -1.88504216631663 -3.41455241334133
 1 -12.23742414811481 -0.32217068836884 -3.91349032743274
 1 -11.32200704010401 -1.85756678387839 -3.44815309350935
 1 -8.84187880648065 -4.88836533733373 -2.02906896989699
 1 -7.90328471367137 -5.73568952225223 -1.06608656375638
 1 -9.36778095709571 -5.07592604100410 -0.17752002070207
 1 -3.29262678117812 -3.55438204380438 -0.19977771587159
 1 -1.63940732833283 -4.54614682808281  3.72057377497750
 1 -3.13730016731673 -5.81873139803980  3.70406144384438
 1 -1.59315983648365 -6.06301708650865  2.93567692879288
 1  2.61406946174617 -1.42762938573857 -1.94840628932893
 1  2.65723216451645  0.21440952575258 -1.74643570107011
 1  4.25067555425543 -0.99266768056806  0.25708710891089
 1  4.04662997449745  1.75610115281528 -2.41034151985198
 1  5.74113104530453  2.09146957085709 -1.85269270767077
 1  5.33366293479348  0.45635682658266 -3.15770202710271
 1  6.72068025192519  1.69735971657166 -0.25991637773777
 1  6.40622849494950  0.01583424672467  0.80682687818782
 1  7.28236035883588 -1.17029770277028 -1.14878963616362
 1  7.55303786228623  0.57538664166417 -1.91101192409241
 1  9.07778382268227  1.04612410991099  0.04392682078208
 1  8.91695481628163 -0.50945929862986  0.70941706510651
 1  10.32168680048005  0.17097324512451 -1.77989314731473
 1  9.14975458455846 -2.23007129062906 -2.10375875777578
 1  10.94413355395540 -2.33071647094709 -1.89607496559656
 1  9.88385058215822 -2.64153826852685 -0.59053644734473
 1  11.29885152675267  0.76208264166417  0.31303907470747
 1  11.25017261276128 -0.72146344394439  1.04264058415842
 1  12.90222817531753 -1.48916633593359 -1.12616488798880
 1  12.69902573247325  0.08004294029403 -1.65067940164016
 1  13.71031245154516  1.17964332763276  0.59579440814081
 1  13.99840815141514 -0.69624600350035  1.18783115711571
 1  15.29255965736574  0.44105750275027 -1.25365663446345
 1  15.40192398919892 -2.15933527472747  0.27278914341434
 1  14.78422006640664 -2.08042256225623 -1.32193356685669
 1  16.60270855045504 -1.86449734673467 -1.09469598289829
 1  16.06595986948695  1.50832916661666  0.75806172247225
 1  16.48134221202120 -0.30877716251625  1.38678717341734
 1  18.25060179787979 -0.44703121712171 -0.52855305090509
 1  17.69083639323932  1.23551244534453 -1.07035277887789
 1  18.42566162306230  2.33023429142914  0.85780772757276
 1  18.81676763926393  0.51826666616662  1.69046229172917
 1  20.54180401270127  0.08900989858986  0.03301919411941
 1  20.21964878337834  3.10096087258726 -1.00448263296330
 1  21.55589939073908  1.73060420252025 -1.35507348854885
 1  19.78038643624362  1.49961025122512 -1.92659104350435
 1  21.24351820532053  1.42670831173117  2.34805847464747
 1  22.35078297109711  1.83953442414241  0.82165881948195
 1  21.11243132163217  2.94537065426543  1.15731286798680

