%nproc=4
%Mem=2GB
# td=(NStates=1) CAM-B3LYP/6-31G(d,p) 

TD

0 1
<<<<<<< HEAD
12 -7.17832840584058  0.60937968606861  0.05113280068007
 6 -4.82617723572357 -1.94430560896090  0.44936146884688
 6 -4.75914584348435  2.90552900020002  1.08309467436744
 6 -9.56549128462846  3.09386488198820 -0.19968282798280
 6 -9.56550686438644 -1.77976348734873 -0.72700913001300
 7 -5.11525495009501  0.47788760686069  0.77651807010701
 6 -4.36387609370937 -0.68594841684168  0.84811283448345
 6 -2.88856786218622 -0.40360978667867  1.22015236943694
 6 -3.06367980638064  1.11569423772377  1.65455618631863
 6 -4.40620761566157  1.54373512231223  1.11677870777078
 6 -2.86488157025703  1.20904319241924  3.22332374127413
 6 -1.87237069806981 -0.69890515191519  0.04421838013801
 6 -0.50746816941694 -0.37601194839484  0.41190531983198
 6  0.50398153535354 -0.58341185408541 -0.72095747624762
 8  0.15099633973397 -0.97750315791579 -1.83068940064006
 8  1.72145395589559 -0.44727212361236 -0.32872966186619
 7 -7.10454090199020  2.66976256605661  0.22579127462746
 6 -6.03325260426043  3.42149312511251  0.65583911751175
 6 -6.40167742084208  4.73232752215222  0.67856854405441
 6 -7.79914262126213  4.92241287278728  0.33579197049705
 6 -8.25980025162516  3.47044623992399  0.13769631593159
 6 -5.44090204690469  5.84907737363736  1.00628538903890
 6 -8.55744354195419  6.05425645934594  0.26234321972197
 6 -8.38678256955696  7.23584970357036  0.86391264106411
 7 -9.12231450405040  0.67417027812781 -0.61198523222322
 6 -9.93510977067707  1.81315126822682 -0.61978830293029
 6 -11.27836693329333  1.40458879797980 -1.01164288378838
 6 -11.19584198809881  0.05727109120912 -1.26344505850585
 6 -9.93961964266427 -0.36772874717472 -0.84858987508751
 6 -12.33367219091909  2.49042961396140 -1.22031880668067
 6 -12.28267281358136 -0.81514892499250 -1.74213502200220
 6 -12.15733322172217 -1.20101251245125 -3.27706282488249
 7 -7.24938440674067 -1.37767738133813 -0.02929760676068
 6 -8.34894513431343 -2.27018219031903 -0.39317427262726
 6 -7.84461060666067 -3.69692796029603 -0.35572284958496
 6 -6.49067295139514 -3.64808914591459 -0.05501723362336
 6 -6.21038363476348 -2.14534281558156  0.11925472967297
 6 -8.71570903830383 -4.80678352075208 -0.78889736813681
 6 -5.29438390869087 -4.27985186868687  0.23330620322032
 8 -5.08801763966397 -5.42730721412141  0.35695272597260
 6 -4.07003058245825 -3.25474126392639  0.49961982728273
 6 -3.54482511341134 -3.61922714401440  1.86275664856486
 8 -3.84281588218822 -3.15463219941994  2.91798447954795
 8 -2.69360055375538 -4.73902862526253  1.76762534343434
 6 -2.16569715761576 -5.33011724082408  2.91888682418242
 6  2.71080359205921 -0.65069286388639 -1.31051225162516
 6  4.07796988598860 -0.54223239953995 -0.64330447944794
 6  5.15902938733873  0.26001226662666 -1.01368114081408
 6  5.08801722472247  1.06506915621562 -2.35341950725073
 6  6.44343867666767  0.28593044324432 -0.34001048624862
 6  7.61719925782578 -0.36154650155015 -1.04598154865487
 6  8.92309418201820 -0.26106123652365 -0.27546935973597
 6  10.19603022752275 -0.55589266096610 -0.98585955645565
 6  10.23636033623362 -2.08191912801280 -1.31546501150115
 6  11.44291716861686 -0.29286306710671 -0.08807793919392
 6  12.71099600730073 -0.42701675277528 -0.80351037393739
 6  13.94644411281128 -0.03604480728073  0.15579264676468
 6  15.32008813371337 -0.17457118621862 -0.53411165096510
 6  15.62960462936294 -1.62404003780378 -0.69774939263926
 6  16.36360046594659  0.57298165816582  0.38712321952195
 6  17.88191278067807  0.65795719411941 -0.16691250585058
 6  18.82495286478648  1.30019823682368  0.84739517251725
 6  20.28450711991199  1.38425875937594  0.36046080928093
 6  20.60820217401740  2.15850414761476 -0.93179417211721
 6  21.16000693149315  1.85456839313931  1.52516788018802
 1 -3.94566605110511  3.67028254965497  1.40650523742374
 1 -10.59403979667967  3.83007384238424 -0.30473586508651
 1 -10.31408469786979 -2.51052039283928 -1.02550920312031
 1 -2.43509996689669 -0.93920223412341  2.12953364456446
 1 -2.12676628182818  1.89632321492149  1.38985963636364
 1 -1.88189264676468  1.03123357625763  3.77918163166317
 1 -2.99793485348535  2.26160021752175  3.73701586698670
 1 -3.48418186088609  0.45145982998300  3.73693610641064
 1 -2.00986347124712 -1.64423438383838 -0.39080298949895
 1 -2.10564223672367  0.14154140454045 -0.68614865446545
 1 -0.34988850625062  0.65191980588059  0.83507390649065
 1 -0.21708951095110 -1.01875639083908  1.21760571577158
 1 -5.80699947534753  6.79212785688569  0.47882359155916
 1 -5.61112810221022  6.39108247134713  2.03888018511851
 1 -4.36110006600660  5.70388155455545  1.01520469606961
 1 -9.39754180668067  5.99922607070707 -0.49197942614261
 1 -9.21375259115912  8.17121786068607  0.48512813461346
 1 -7.46720618641864  7.51075747524752  1.67037542304230
 1 -12.14679878497850  3.05444577057706 -2.19244224892489
 1 -13.17775744494449  2.10123401460146 -1.69475066656666
 1 -12.40304203530353  2.99349800450045 -0.49699094309431
 1 -12.67684246264627 -1.77638708380838 -1.25556051095109
 1 -13.09957867676768 -0.31455819261926 -1.86567209470947
 1 -13.00679703230323 -1.88689337553755 -3.60369025352535
 1 -12.12084564876488 -0.10829536713671 -3.75423891959196
 1 -11.22506878617862 -1.81471633873387 -3.30349896989699
 1 -9.00907051005101 -4.97519826272627 -1.90013327742774
 1 -8.04396376117612 -5.75310531473147 -0.52534214721472
 1 -9.69834971987199 -4.78211323262326 -0.07811963456346
 1 -3.34429512541254 -3.35322857355736 -0.29035430693069
 1 -1.58520668716872 -4.53113955365537  3.32651556685669
 1 -2.75435504410441 -5.69760137773777  3.55347818671867
 1 -1.38801691319132 -6.18089736293629  2.42901685458546
 1  2.65735503960396 -1.63424526042604 -1.72607657265727
 1  2.62524000160016  0.01219549914991 -2.18442159435944
 1  4.27096800240024 -1.20642285748575  0.36122933893389
 1  4.16273523702370  1.17196590699070 -2.61289965966597
 1  5.29370478217822  2.09000925982598 -1.99772624082408
 1  5.53342064966497  0.81798290579058 -3.31096982798280
 1  6.80713277617762  1.33654765476548 -0.24195155235524
 1  6.48451257065707 -0.26125416281628  0.69688940564056
 1  7.24707209190919 -1.39557879307931 -1.16669799339934
 1  7.72155459135914  0.16042925102510 -2.00152307590759
 1  9.00191224282428  0.71188907390739  0.39677730993099
 1  8.70854934363436 -0.85061056725673  0.62592045574557
 1  10.14371192259226  0.17780031773177 -1.79291418091809
 1  9.59772475797580 -2.27141511801180 -2.15834175897590
 1  11.08992154785479 -2.32001878577858 -2.00725496939694
 1  10.41231411741174 -2.74645658765877 -0.46562600230023
 1  11.28127580848085  0.94287651785179  0.07635912341234
 1  11.31722477587759 -0.83651961326133  0.89547016861686
 1  13.02395571447145 -1.54768292949295 -1.21450911851185
 1  12.78066181868187  0.09672036303630 -1.78496185748575
 1  13.79888132483248  0.95592814881488  0.67578492149215
 1  13.77415016811681 -0.59612921762176  0.85087160366037
 1  15.33220650915091  0.33116260126013 -1.33277763576358
 1  15.63888133103310 -2.34381467356736  0.21807035313531
 1  14.88283133383338 -1.96872924852485 -1.51363877897790
 1  16.65250487988799 -1.57993351825182 -1.01787325682568
 1  15.95842104280428  1.46407424112411  0.50437698199820
 1  16.43709815701570  0.05085591049105  1.33104586578658
 1  18.17295823452345 -0.16727327472747 -0.24772811321132
 1  17.75031209570957  1.04198151705171 -1.11059463526353
 1  18.60641143374338  2.34435859355936  1.23661166646665
 1  18.68255541584158  0.75272945394539  1.90421042134213
 1  20.67907281998200  0.42708885708571  0.30530759475948
 1  20.22979708630863  3.09079264116412 -0.79294288768877
 1  21.78900315241524  2.37327398019802 -1.13620498379838
 1  20.16954085848585  1.48487029782978 -1.90638760776078
 1  20.92857883308331  1.56156426552655  2.62908252545254
 1  22.33036474277428  1.68618984868487  1.07352231853185
 1  21.13136286618662  3.05381546484648  1.85991643214321
=======
12 -7.21123169616962  0.53286203430343  0.10647833523352
 6 -4.87761237923792 -1.98832001040104  0.50354688738874
 6 -4.80393032193219  2.83398184548455  1.12230859575958
 6 -9.34426916241624  3.07435293079308 -0.49348220792079
 6 -9.52537285098510 -1.74697020802080 -0.84611104020402
 7 -5.13523694829483  0.35608542664266  0.75615603390339
 6 -4.33076278237824 -0.72935275727573  0.75510353355336
 6 -2.86526553195320 -0.39383880958096  1.21102145634563
 6 -3.02886632503250  1.11595426372637  1.59687041774177
 6 -4.36841383628363  1.48460920972097  1.15842287218722
 6 -2.79254433653365  1.24323661176118  3.11183259215922
 6 -1.96021948294829 -0.69930519191919  0.14053801210121
 6 -0.49732715531553 -0.43039738693869  0.52024615391539
 6  0.45920705790579 -0.51004451735174 -0.63527890839084
 8  0.16008724882488 -0.88834424202420 -1.80152648434843
 8  1.80197200770077 -0.54007140354035 -0.27325411431143
 7 -7.11547199509951  2.64816040584058  0.28680737623762
 6 -6.00913019201920  3.34554553035303  0.73133666726673
 6 -6.40213746684668  4.84975926532653  0.79985067226723
 6 -7.64939764676468  4.87420805230523  0.34091248254825
 6 -8.16390066166617  3.49663885918592  0.09384193049305
 6 -5.44450240694069  5.93399586548655  1.13953871437144
 6 -8.63357115471547  5.96118715241524  0.23773075847585
 6 -8.40654454575458  7.00663678227823  0.95682193199320
 7 -9.17785005760576  0.68612147324732 -0.46611064476448
 6 -9.85280153985398  1.88709866296630 -0.62168849294929
 6 -11.18216731333133  1.50670901000100 -1.07867958745875
 6 -11.26612901680168  0.11034639873987 -1.16920563456346
 6 -10.02591827252725 -0.43577555185519 -0.89085410151015
 6 -12.30367919161916  2.50827139813981 -1.44153092789279
 6 -12.35530007630763 -0.64673208330833 -1.88651946044604
 6 -12.25700318871887 -0.82728513971397 -3.34076919551955
 7 -7.21929139743974 -1.42012162576258 -0.14822949994999
 6 -8.34154439423942 -2.21348652075207 -0.58006296149615
 6 -7.86711285688569 -3.65951421892189 -0.58433571087109
 6 -6.51993587768777 -3.54678901590159 -0.08774050595059
 6 -6.19997259365937 -2.16922520382038  0.07531033523352
 6 -8.59193666106611 -4.86422926532653 -0.85586406480648
 6 -5.44553902420242 -4.35040892439244  0.25993886648665
 8 -5.21683052095210 -5.56390087348735  0.43100013071307
 6 -4.22611619101910 -3.31684747454745  0.59040890619062
 6 -3.59668029892989 -3.63032825412541  1.88005837873787
 8 -3.75269687028703 -3.12626936313631  2.95208788988899
 8 -2.67822901660166 -4.70396511891189  1.67266584748475
 6 -2.14727531543154 -5.21017524662466  2.94270920642064
 6  2.80969348104810 -0.76459425402540 -1.33265446584658
 6  4.14393648264826 -0.51465964226423 -0.58839898889889
 6  5.13989747414741  0.28285455085509 -1.08461823452345
 6  5.18636705970597  0.88929157845785 -2.44836900220022
 6  6.35948028082808  0.38350020022002 -0.18224470967097
 6  7.62162970087009 -0.34268461536154 -0.81669862036204
 6  8.81215308790879 -0.22266739713971  0.06807499469947
 6  10.22134275877588 -0.52447951965197 -0.65459643014301
 6  10.16711341154115 -2.05328626472647 -1.20463392839284
 6  11.39952282918292 -0.25735951675168  0.27226809540954
 6  12.71994690239024 -0.34913896499650 -0.56820684358436
 6  13.90592006040604 -0.13646484928493  0.28445551305131
 6  15.31441756665667 -0.22528625772577 -0.44841308110811
 6  15.66578824772477 -1.70410804460446 -0.63318293599360
 6  16.52388649454945  0.43067742774277  0.39139364656466
 6  17.87815240464046  0.70395179357936 -0.34094990959096
 6  18.84375474497450  1.38800701770177  0.61939237223722
 6  20.26424509370937  1.41989232273227  0.11952671587159
 6  20.35745709950995  2.28119641684168 -1.21180217291729
 6  21.25770670147015  2.01534447074707  1.13331869526953
 1 -3.90510199469947  3.51548707010701  1.32516710361036
 1 -10.17516790949095  3.63841467646765 -0.63075846734674
 1 -10.37963125252525 -2.39330867166717 -1.15728238043804
 1 -2.62338879577958 -1.00426874077408  2.13753444464446
 1 -2.24683828902890  1.60294387698770  1.07418806920692
 1 -1.78245270277028  0.89086953985399  3.33336705020502
 1 -2.82631769176918  2.22350640814081  3.40372253765377
 1 -3.43171661436144  0.57276196019602  3.82430484328433
 1 -2.06625911081108 -1.76147610801080 -0.32553646284628
 1 -2.30673234573457 -0.22074482408241 -0.94794483408341
 1 -0.22142565996600  0.67106172007201  0.94597499659966
 1 -0.22920072207221 -1.24512902810281  1.22697665286529
 1 -5.63828260366037  6.82595123922392  0.64341005020502
 1 -5.69520651005100  6.01457482058206  2.33864016111611
 1 -4.49583353935394  5.71773293969397  0.84510768636864
 1 -9.40660271277128  5.76973312141214 -0.33070329852985
 1 -9.09860107600760  7.82448318721872  0.81532115391539
 1 -7.59635910171017  7.21257765726573  1.57027541304130
 1 -11.83993809890989  3.23985431143114 -2.19699270397040
 1 -13.21308097729773  2.07492138333833 -1.75584677617762
 1 -12.48541027212721  3.18490714541454 -0.65829707370737
 1 -12.42342712111211 -1.65327477257726 -1.46262121702170
 1 -13.48754747364736 -0.35355209200920 -1.71827735523552
 1 -13.07525387798780 -1.74120880708071 -3.66837672217222
 1 -12.14443800800080 -0.06090062766277 -4.05218871457146
 1 -11.35116139543955 -1.49256412351235 -3.54837345734573
 1 -8.72502210521052 -4.82970371327133 -2.00889415351535
 1 -8.13228259305930 -5.67200720492049 -0.48839845284528
 1 -9.67416730163016 -4.74094911621162 -0.52737456005601
 1 -3.42495319121912 -3.45078832953295  0.04074880338034
 1 -1.60292845934593 -4.58035447514751  3.50448336363636
 1 -3.08417802640264 -5.37055867346735  3.65996883578358
 1 -1.55934404590459 -6.11258053125313  2.52656660956096
 1  2.63747305140514 -1.72445428132813 -1.75885985098510
 1  2.45989346694669 -0.02509823022302 -2.11359451165116
 1  4.45601650725072 -1.11841405660566  0.24984820082008
 1  4.23091205470547  0.94585329572957 -3.10843921362136
 1  5.44203961566157  1.94368462736274 -2.11038750695070
 1  5.98464577217722  0.43893500100010 -3.07983671467147
 1  6.68621068396840  1.45122912291229 -0.03242059925993
 1  6.24171829122912 -0.02448048544854  0.73477319401940
 1  7.21280866556656 -1.42170140534053 -1.27882920652065
 1  7.67172960886089  0.19691289938994 -1.90371329492949
 1  8.63304535613561  0.79956784178418  0.77990562276228
 1  8.91630011871187 -1.08278378457846  0.77810567426743
 1  10.33709126052605  0.39733227092709 -1.50560545004500
 1  9.35944092959296 -2.24350232673267 -1.72395832063206
 1  11.13653620932093 -2.42670945484548 -1.72564680858086
 1  10.32281516751675 -2.84600654265427 -0.17052649234924
 1  11.20781846274627  0.72161439163916  0.70731221872187
 1  11.42474552795280 -0.97398335963596  1.04262488408841
 1  12.59829314821482 -1.43555171637164 -0.96787445504550
 1  12.71017476997700  0.50686137713771 -1.40953431473147
 1  13.80944238093809  0.89867242324232  0.83165050805081
 1  14.16331908500850 -0.87723732843284  1.29259577607761
 1  15.20740402890289  0.39384886988699 -1.27998235623562
 1  15.64836227912791 -2.27958825092509  0.19061760786079
 1  14.87698074877488 -2.15178755435544 -1.37225464056406
 1  16.67604723412341 -1.93779930483048 -1.02103357285729
 1  16.12424762546254  1.39356719041904  1.03368991329133
 1  16.71023547074707 -0.23141231633163  1.38914167536754
 1  18.46919785848585 -0.16806335373537 -0.69895323572357
 1  17.83575063956396  1.28668598749875 -1.21114469026903
 1  18.67725851845184  2.29944410211021  0.87903590889089
 1  18.74039119941994  0.91245542654265  1.39998999929993
 1  20.65443035573557  0.41215736393639 -0.27899083508351
 1  20.36025013161316  3.41259482138214 -1.03613720712071
 1  21.41233548564857  2.05226187898790 -1.84638600190019
 1  19.47463136753676  1.83137494829483 -1.86951392039204
 1  21.22766874207421  1.39626773587359  2.10754037123712
 1  22.26919862616262  2.18481971167117  0.64296926322632
 1  20.97108683858386  3.00834091739174  1.30710115061506
>>>>>>> 8e03b5b5abfc0030b3aa597dc0de36371bfbd096

