%nproc=4
%Mem=2GB
# td=(NStates=1) CAM-B3LYP/6-31G(d,p) 

TD

0 1
<<<<<<< HEAD
12 -7.10871144414441  0.65744449254926  0.20993868126813
 6 -4.84930954895490 -1.85101628002800  0.49330586328633
 6 -4.86682661156116  2.87159560686069  0.98328469336934
 6 -9.38733346884688  3.12115761126113 -0.27655051475147
 6 -9.46397671137114 -1.80537604860486 -0.66987341644164
 7 -5.15239866446645  0.43583340144014  0.68736915521552
 6 -4.39574928102810 -0.63862368436844  0.75302332553255
 6 -2.88433743914391 -0.32688211391139  1.17089744394439
 6 -3.00900433883388  1.18453112141214  1.59898062876288
 6 -4.41393838873887  1.51638238703870  1.03093012291229
 6 -2.90647572967297  1.35955824392439  3.14508591749175
 6 -1.86512997399740 -0.61055631703170  0.00967492579258
 6 -0.47360478307831 -0.29188353555356  0.33575770507051
 6  0.58802994019402 -0.67591110401040 -0.80797617811781
 8  0.28219946004600 -0.97172257985799 -1.89620595229523
 8  1.84578638913891 -0.49575697209721 -0.33272006090609
 7 -7.15691613951395  2.68809439923992  0.24496319181918
 6 -6.02508178717872  3.39361033683368  0.61746528012801
 6 -6.32921017411741  4.80412470187019  0.59793048024802
 6 -7.74202690969097  4.86678731023102  0.29260765206521
 6 -8.24643891549155  3.52590178547855  0.06921946824682
 6 -5.38971692839284  5.92220468636864  1.09082384288429
 6 -8.54271206880688  6.10904193789379  0.01343832923292
 6 -8.47678156945695  7.25778189678968  0.72837908770877
 7 -9.08031030363036  0.62316517761776 -0.53783781748175
 6 -9.86371263096310  1.76810676377638 -0.54114043814381
 6 -11.22182127872787  1.35533387248725 -0.93578529802980
 6 -11.27667007090709  0.01920728482848 -1.10483919791979
 6 -9.90391607230723 -0.42351432573257 -0.75171018711871
 6 -12.23239206290629  2.30934150515052 -1.34819159395940
 6 -12.45392993929393 -0.87861527162716 -1.50824163266327
 6 -12.50601809020902 -1.27763017421742 -3.07712283088309
 7 -7.24745421372137 -1.41421103470347  0.06716203920392
 6 -8.20432067186719 -2.22672784488449 -0.45473042824282
 6 -7.75289143474347 -3.55430369786979 -0.49232650995100
 6 -6.46859074317432 -3.53645798279828 -0.01470320222022
 6 -6.16440903730373 -2.26338461976198  0.22009481368137
 6 -8.54248171557156 -4.81940478287829 -0.90056853525353
 6 -5.25326979727973 -4.31728561206121  0.13415628822882
 8 -5.03895273317332 -5.56320080348035  0.04377140784078
 6 -4.12948652805281 -3.30662645244524  0.53348321362136
 6 -3.52659329022902 -3.70273549484949  1.88936930983098
 8 -3.74514611521152 -3.18198493469347  2.95199788088809
 8 -2.62315350905090 -4.66287100950095  1.58944752565257
 6 -2.17849843774377 -5.38087231633163  2.84640957645765
 6  2.87010952265227 -0.80430822542254 -1.23512471287129
 6  4.23473556255626 -0.45020319661966 -0.58706885588559
 6  5.17752123652365  0.34472073747375 -1.04466423912391
 6  5.03351177417742  1.20350299959996 -2.26600076537654
 6  6.39759409220922  0.39951180138014 -0.13067955315532
 6  7.60943848174817 -0.11883223012301 -0.98015496599660
 6  8.86319819241924 -0.10749587998800 -0.13532534533453
 6  10.05895652015201 -0.40979805150515 -0.81825279577958
 6  10.16760346054605 -1.92655359145915 -1.23434689968997
 6  11.35792866976698 -0.08717249804980 -0.01011014241424
 6  12.70975588328833 -0.33004705580558 -0.67670769366937
 6  13.89625909430943 -0.02000320312031  0.17324439193919
 6  15.18349447434743 -0.16126985608561 -0.44781302110211
 6  15.53076474537454 -1.58642627642764 -0.77053667136714
 6  16.34316842274227  0.38346270627063  0.52641714891489
 6  17.70155474487449  0.45201660006001 -0.06879269386939
 6  18.79791016051605  1.07482569956996  0.78355878887889
 6  20.18396706590659  1.15642597609761  0.25778054125413
 6  20.32528388218822  2.15086338353835 -0.98131912461246
 6  21.16682761356136  1.65006794309431  1.36534189758976
 1 -4.25130661516152  3.76953247464746  1.43227781468147
 1 -10.08938933163316  3.89381021602160 -0.31567695919592
 1 -10.20879416881688 -2.72855219601960 -0.73839049124912
 1 -2.60313677057706 -1.04485279917992  2.09319001020102
 1 -2.25004861006101  1.81082466506651  1.18906955735574
 1 -1.84472893039304  0.89487994089409  3.42627634113411
 1 -2.78306336633663  2.53743780128013  3.41836400180018
 1 -3.69017245994600  0.73479816381638  3.61701411421142
 1 -2.05192767766777 -1.65607556795680 -0.38504241344134
 1 -2.16027770027003  0.11131838223822 -0.66280632023202
 1 -0.34242776017602  0.85506011991199  0.48205860496050
 1 -0.09557735973597 -0.80288480368037  1.21730568576858
 1 -5.56537531293129  6.89652829692969  0.36680238943894
 1 -5.65451244064406  6.11667503060306  2.10952724982498
 1 -4.34655861186119  5.44487565396540  0.98361153675368
 1 -9.37295934843485  6.05431157925793 -0.75077530573057
 1 -9.12554377027703  8.18114885378538  0.64528415021502
 1 -7.77865733153315  7.33210961046105  1.53911229672967
 1 -11.91119522462246  3.25358568456846 -2.08872187688769
 1 -13.16914658385839  1.90296418761876 -1.70204139563956
 1 -12.70748247934794  2.70167882258226 -0.35658690269027
 1 -12.27254203260326 -1.69891933703370 -0.98813376827683
 1 -13.21814053295330 -0.52115885268527 -1.43222875037504
 1 -13.38588494109411 -1.96713139933993 -3.02181206570657
 1 -12.54028759295930 -0.42011654925492 -3.52999649534953
 1 -11.63506978627863 -1.77891275837584 -3.40465908590859
 1 -8.96149575257526 -4.95456619951995 -2.00966423052305
 1 -7.77931729652965 -5.64090409460946 -1.04225383838384
 1 -9.27983786868687 -5.22164718601860 -0.13927575017502
 1 -3.42425312121212 -3.51918516921692 -0.24473974547455
 1 -1.55774394089409 -4.75573201290129  3.45837875317532
 1 -2.93408301690169 -5.87774939253925  3.39340217911791
 1 -1.67245535703570 -6.12767204040404  2.40763471637164
 1  2.89484878897890 -1.95191702760276 -1.50498446344634
 1  2.66994447204720 -0.17756347674767 -2.32200535273527
 1  4.47469837543754 -1.03442565776578  0.33433664966497
 1  4.07651661516152  1.43908261866187 -2.66538490819082
 1  5.32318773047305  2.16668692759276 -1.94919138733873
 1  5.71601890949095  0.76799790729073 -2.95731446244624
 1  6.68497055995600  1.57254125412541  0.23547619041904
 1  6.36959107850785 -0.32984102150215  0.86736645334533
 1  7.47750513521352 -1.06731596679668 -1.37069839343934
 1  7.51935437133713  0.36866007410741 -1.93937686128613
 1  8.92947499909991  0.80337822282228  0.31057869006901
 1  8.67151564026403 -0.65229073527353  0.70860872457246
 1  10.14126167756776  0.16251878957896 -1.80959584908491
 1  9.25133011851185 -2.25649362586259 -1.99068499329933
 1  11.09313186888689 -2.16906369026903 -1.60649489338934
 1  9.83345623162316 -2.63071501350135 -0.45631507120712
 1  11.24340202110211  0.93937616781678  0.29053054055406
 1  11.21836488988899 -0.73248921022102  0.80711133273327
 1  12.59504282318232 -1.36011417261726 -1.01730939853985
 1  12.78324207670767  0.17164785578558 -1.55240860216022
 1  13.70097153385339  1.04584714071407  0.47122446544654
 1  13.82443519661966 -0.46935654035404  1.11489800630063
 1  15.27839112761276  0.50326981198120 -1.40459481748175
 1  15.43502094499450 -2.22338263036304  0.13012155825583
 1  14.73201625232523 -2.03713608920892 -1.47712512761276
 1  16.44215384478448 -1.60749627452745 -1.28799026852685
 1  16.14583978467847  1.56746458015802  0.77918446274627
 1  16.33081752895290 -0.10989016411641  1.52969573077308
 1  18.15297623632363 -0.57641418881888 -0.36915025542554
 1  17.76418348284828  0.87525484438444 -1.13424700050005
 1  18.48572936553655  2.10512467016702  1.22504050935093
 1  18.80418757905791  0.54220840184018  1.69757975827583
 1  20.71868678137814  0.17977412561256 -0.25900883688369
 1  19.74508861546154  3.05869943184318 -0.65933952735273
 1  21.27622187428743  2.29704635743574 -1.27011837513751
 1  19.86291019541954  1.79220103090309 -1.90923789278928
 1  21.53697967316732  1.06243435253525  2.33165278247825
 1  22.20567227352735  2.04790602030203  0.96341130743074
 1  20.58997872777278  2.48997908120812  1.71885232573257
=======
12 -7.14001457445745  0.69504825292529  0.04747243464346
 6 -4.87705232323232 -1.86388756715672  0.46721325402540
 6 -4.85003493239324  2.85439388668867  1.04676104100410
 6 -9.48364309980998  3.13355885138514 -0.50849370907091
 6 -9.57886820052005 -1.77060257125713 -0.80294672377238
 7 -5.08898232283228  0.57110692879288  0.62434285258526
 6 -4.30289999609961 -0.62256207820782  0.77386540974097
 6 -2.88747775317532 -0.32258168386839  1.22385273947395
 6 -3.01966540494049  1.16024869316932  1.59512024272427
 6 -4.44033102800280  1.59474022282228  1.03973100300030
 6 -2.88964404650465  1.27347963606361  3.09239064796480
 6 -1.75510897189719 -0.70445570697070  0.18982294059406
 6 -0.36490391299130 -0.41120546774677  0.66989111841184
 6  0.55974711191119 -0.81501501440144 -0.47086246674667
 8  0.28100934103410 -1.19656506410641 -1.61938827052705
 8  1.84020583108311 -0.60237763416342 -0.07809459835984
 7 -7.22355280318032  2.61254684448445  0.33267196269627
 6 -6.10088936793679  3.43948492429243  0.75532906650665
 6 -6.52327958105811  4.82111640104010  0.70977166436644
 6 -7.79881258825883  4.80551118261826  0.27670606190619
 6 -8.25129940154016  3.47997719301930  0.12429497579758
 6 -5.59740769746975  5.91003346924693  1.15140990149015
 6 -8.75455325292529  5.88978001170117  0.16558354375438
 6 -8.71279517081708  7.06089220782078  0.86449269906991
 7 -9.07482975557556  0.74047690879088 -0.38662269596960
 6 -9.96147240694069  1.79689964306431 -0.68249457355736
 6 -11.24658375497550  1.40215855495550 -1.11472319181918
 6 -11.26019842374237  0.00284564866487 -1.23390210421042
 6 -9.92920860156016 -0.38085005930593 -0.71360637673767
 6 -12.34380320402040  2.48703927492749 -1.38929570437044
 6 -12.35811035733573 -0.92364977507751 -1.74110491899190
 6 -12.16679416781678 -1.05326773797380 -3.32555767436744
 7 -7.25936540484048 -1.31817143074307 -0.12591726872687
 6 -8.23777401720172 -2.21068624072407 -0.60676563176318
 6 -7.72627877347735 -3.55810407790779 -0.52970024732473
 6 -6.51045492959296 -3.48069240624062 -0.02881461336134
 6 -6.22655525192519 -2.06218449974998  0.18775157935794
 6 -8.68018548594859 -4.76785962836284 -0.80359883828383
 6 -5.29524399469947 -4.31616550005000  0.17916078867887
 8 -5.12765160306031 -5.54548903230323  0.02182921362136
 6 -4.17123070247025 -3.23355914571457  0.49460932623262
 6 -3.55800643154315 -3.64343956525653  1.89404977787779
 8 -3.77431903250325 -3.17579431563156  2.98036071717172
 8 -2.66623781748175 -4.60819554195420  1.68859744064406
 6 -2.04470505840584 -5.06956118521852  2.88575351085109
 6  2.92751526322632 -0.93190098469847 -1.01127232763276
 6  4.20032212121212 -0.54153232953295 -0.38382853185319
 6  5.17212069646965  0.29493575897590 -0.86007578027803
 6  5.06308473147315  1.06396904620462 -2.05173933923392
 6  6.52616694949495  0.42345419561956 -0.21165765096510
 6  7.73469100700070 -0.17886823372337 -0.99992694319432
 6  8.97298917151715 -0.25758088848885 -0.03336514931493
 6  10.17010763526353 -0.57679475117512 -0.96596756725673
 6  10.08349504970497 -1.99581051715171 -1.42067553255326
 6  11.51028390529053 -0.30625440624062 -0.12388151955195
 6  12.75495040274027 -0.60810486158616 -0.83085310821082
 6  13.94479394779478 -0.20006120892089  0.08092516001600
 6  15.34619074397440 -0.24018774787479 -0.51694993479348
 6  15.79929159805981 -1.64125175897590 -0.90214983268327
 6  16.42579668556856  0.32580694069407  0.40878538573857
 6  17.75346993639364  0.67174857325733 -0.19466528112811
 6  18.74022439193919  1.31492970997100  0.87885831883188
 6  20.18412708190819  1.37193752725273  0.24970973417342
 6  20.25439679347935  2.23041133833383 -1.10560155285529
 6  21.20377130793079  1.95161809810981  1.27481284468447
 1 -4.02435391989199  3.56981250265027  1.25157974487449
 1 -10.16351674437444  4.16257709270927 -1.06396178767877
 1 -10.34328761816182 -2.40567990879088 -1.16810346254626
 1 -2.76319277617762 -1.03959227312731  1.99393008420842
 1 -2.33003660886089  1.79644322692269  1.06414706510651
 1 -1.87965242274227  1.17353780668067  3.38834254775477
 1 -3.08451351135114  2.54042810031003  3.37138930433043
 1 -3.81507495019502  0.74223890789079  3.46306871967197
 1 -1.91148363326333 -1.65281524192419 -0.56100000920092
 1 -1.87967964046405 -0.00118286788679 -0.71136117571757
 1 -0.25167868526853  0.53428804270427  1.19096949604960
 1 -0.03988179017902 -1.19745426062606  1.43787774297430
 1 -6.00677945334533  6.83914255835584  0.80734644384438
 1 -5.49963695309531  5.96940030313031  2.20873717081708
 1 -4.62679663566357  5.70779194559456  0.72597577317732
 1 -9.26777883038304  5.87108325642564 -0.75115534373437
 1 -9.43445466136614  7.83850458935894  0.69032865466547
 1 -8.12627209300930  7.36541294079408  1.70769915541554
 1 -12.00691479657966  3.33262358835884 -2.07542054675468
 1 -13.33915358455845  2.09405329652965 -1.68455964746475
 1 -12.48531026212621  3.08369702440244 -0.52001324532453
 1 -12.44302908130813 -1.85149459455946 -1.26318127302730
 1 -13.41460017891789 -0.57272400920092 -1.49661518901890
 1 -13.05634198679868 -1.51116580278028 -3.56781666616662
 1 -12.35887945214522 -0.02440697829783 -3.81149464516452
 1 -11.41926820612061 -1.61925679277928 -3.64650327032703
 1 -9.02309191219122 -4.81963270617062 -1.78527179127913
 1 -8.13014237903790 -5.71331133533353 -0.82872248524853
 1 -9.67911779667967 -4.82964798609861 -0.15707753035304
 1 -3.31297199309931 -3.16049930063006 -0.21794706620662
 1 -1.43021118761876 -4.29042548224822  3.57964087938794
 1 -3.01296090469047 -5.47546916451645  3.36890972987299
 1 -1.33178128962896 -5.94962423562356  2.60494444734473
 1  2.79529883398340 -1.95471730763076 -1.31793575857586
 1  2.64972244984498 -0.53197891829183 -2.06197935013501
 1  4.49663056865687 -1.09729194439444  0.41057427342734
 1  4.06664562806281  1.12138084848485 -2.31969033873387
 1  5.76720213191319  1.90509076797680 -1.90876734493449
 1  5.45125243284328  0.41456256375638 -3.01265999699970
 1  6.86473853675368  1.47761176117612 -0.01025838303830
 1  6.46476059545955 -0.04846288368837  0.92505222192219
 1  7.56511389608961 -1.34690392559256 -1.24857618121812
 1  7.91081351725173  0.27735094319432 -1.90661358495850
 1  9.23560561216122  0.75749363436344  0.65655328752875
 1  8.96022451115111 -1.15267077327733  0.73596145984598
 1  10.31407895929593  0.25289782748275 -1.88080296979698
 1  9.25019000450045 -2.25210318681868 -2.01395732053205
 1  11.08503105880588 -2.57643442734273 -1.65108935283528
 1  9.80656354235424 -2.39593153515352 -0.46462590229023
 1  11.60381806270627  0.84838706890689  0.12346383388339
 1  11.35101815521552 -0.65912187348735  0.98249887148715
 1  12.82500581948195 -1.59155731693169 -1.27899556715672
 1  12.82262601510151  0.09076976797680 -1.91487484878488
 1  13.71021245794580  0.74782733873387  0.56177352035204
 1  13.92560531363136 -1.00518012271227  0.96013252975298
 1  15.42785607410741  0.39347883288329 -1.44498885688569
 1  15.85264270717072 -2.32860315241524 -0.22297375127513
 1  15.03112616331633 -1.85838821442144 -1.50205762086209
 1  16.57264689408941 -1.55398092299230 -1.78289975947595
 1  16.13499870057006  1.18172600630063  0.79673621792179
 1  16.69334378157816 -0.45300447554755  1.10170293149315
 1  18.15898683738374 -0.40780732813281 -0.52734607500750
 1  17.92886995149515  1.57304462336234 -0.98444202000200
 1  18.25033582618262  2.42645680338034  0.97448545384538
 1  18.62383954425443  0.82692687368737  1.87364736503650
 1  20.41363627632763  0.40413656185619 -0.07691062706271
 1  19.76255036163616  3.24288785068507 -0.89582317571757
 1  21.29990424252425  2.44053070587059 -1.10353171647165
 1  19.79280318471847  1.72977478827883 -2.01504847384738
 1  21.40049602480248  1.13730183928393  2.17128674587459
 1  22.23234494079408  2.07550878057806  0.94386935323532
 1  20.79726945684569  3.00399048234824  1.89171961246125
>>>>>>> 8e03b5b5abfc0030b3aa597dc0de36371bfbd096

