%nproc=4
%Mem=2GB
# td=(NStates=1) CAM-B3LYP/6-31G(d,p) 

TD

0 1
<<<<<<< HEAD
12 -7.09907048004800  0.60677942604260  0.12405009240924
 6 -4.87296191419142 -1.91684286268627  0.61632816551655
 6 -4.76101603050305  2.88744719201920  1.12243860876088
 6 -9.30170490599060  3.07141263676368 -0.41750461016102
 6 -9.47988830253025 -1.79287479847985 -0.92279870897090
 7 -5.05705913051305  0.39880969906991  0.77943836213621
 6 -4.38367807390739 -0.72161198319832  0.90275829902990
 6 -2.96261526692669 -0.39501892759276  1.39561991619162
 6 -2.98329176757676  1.02382505080508  1.69994072477248
 6 -4.31055805070507  1.52333308210821  1.17798482838284
 6 -2.84081916401640  1.24203649174918  3.22176358525853
 6 -1.85860932193219 -0.73796905830583  0.28373233153315
 6 -0.42212963556356 -0.43372771997200  0.66171030033003
 6  0.48891002820282 -0.72183569646965 -0.45721110161016
 8  0.16194743484348 -1.15973138073807 -1.54597092879288
 8  1.78429023952395 -0.44298169456946 -0.04831162006201
 7 -6.90923137103710  2.59640523032303  0.28390708620862
 6 -5.99543882288229  3.34424540034003  0.71711524512451
 6 -6.37395464856486  4.77337162656266  0.83670435763576
 6 -7.63560626762676  4.77923855535554  0.32227061836184
 6 -8.05313958555856  3.44455365066507 -0.00454790849085
 6 -5.46998495519552  5.88696116201620  1.31736649714971
 6 -8.50663846144614  5.94187522122212  0.03713069846985
 6 -8.44767865916592  7.17769388798880  0.65611186098610
 7 -9.02521479407941  0.69977283838384 -0.67052108580858
 6 -9.79755601530153  1.78669862296230 -0.71992831693169
 6 -11.21149024562456  1.51948028712871 -1.18895061456146
 6 -11.19775217911791  0.15625098919892 -1.37052576657666
 6 -9.88707438813881 -0.38138011231123 -0.98049306540654
 6 -12.32023084678468  2.49806037703770 -1.46696347114711
 6 -12.27012155845584 -0.72516992709271 -1.83758456695670
 6 -12.07774526292629 -1.00565297649765 -3.37096221482148
 7 -7.21658112641264 -1.34119373297330 -0.10163484048405
 6 -8.29885012481248 -2.16205137723772 -0.52488744394439
 6 -7.80650679627963 -3.57703597109711 -0.58975625292529
 6 -6.50907479157916 -3.54526886388639 -0.15291702360236
 6 -6.15043764016402 -2.15380366166617  0.08038084228423
 6 -8.60054752215222 -4.84408725112511 -0.79216769516952
 6 -5.30890536083608 -4.32216610011001  0.23622649524952
 8 -5.17719655755576 -5.56592107550755  0.31439847054705
 6 -4.13459703910391 -3.31248703850385  0.60844070937094
 6 -3.47569820072007 -3.68960418171817  1.97673804670467
 8 -3.58301990259026 -3.09532626882688  3.02426510761076
 8 -2.68278947264726 -4.73919864226423  1.76868544944494
 6 -2.03161374927493 -5.24237846694669  2.94061899739974
 6  2.71304381608161 -0.56628442304230 -1.19387058745875
 6  4.08971106010601 -0.43668184448445 -0.56902705170517
 6  5.15938942334233  0.32421868726873 -1.02439221192119
 6  5.02631105410541  1.36521917121712 -2.16635080038004
 6  6.43752808560856  0.47287913811381 -0.29321580678068
 6  7.57238477637764  0.02439209230923 -1.08206515701570
 6  8.88635050765077 -0.14506963736374 -0.27720953375338
 6  10.03703432793279 -0.58296536823682 -1.03722469296930
 6  9.91559826002600 -2.02968390449045 -1.43272673767377
 6  11.33907678457846 -0.35462924372437 -0.06106523792379
 6  12.66143105080508 -0.58668271937194 -0.76902692559256
 6  13.80203967236724 -0.37327853065307  0.28867593509351
 6  15.20884700960096 -0.27972170127013 -0.41057929772977
 6  15.71192286118612 -1.56009364316432 -1.04224384208421
 6  16.24404851075107  0.35204956495650  0.52483699089909
 6  17.59960454985498  0.71744314271427 -0.09102491709171
 6  18.69501987148715  1.42054027102710  0.83162359535954
 6  20.14067273647365  1.38705903940394  0.12249701290129
 6  20.21121247504751  2.27962625982598 -1.12360335303530
 6  21.05744667546755  1.84542747904790  1.23429879327933
 1 -3.96834831933193  3.68152367376738  1.38641322822282
 1 -10.07077747044704  3.86075691069107 -0.84577996949695
 1 -10.32916620602060 -2.60083942474247 -1.24850150235023
 1 -2.74275073197320 -1.11195950985098  2.05387607880788
 1 -2.25218882408241  1.70738432103210  1.05260591099110
 1 -1.99488394589459  0.88918937183718  3.89935364886489
 1 -3.02487754775478  2.29909396689669  3.51608377377738
 1 -3.58659210191019  0.59846453045305  3.85296770957096
 1 -1.80337282218222 -1.90286024642464  0.04398048884889
 1 -2.16943861636164 -0.27010976057606 -0.61407144674468
 1 -0.23814733213321  0.50400501440144  0.94252465156516
 1 -0.27826562856286 -1.08755327052705  1.38687264246425
 1 -5.68369714511451  6.85259390349035  0.71846755595560
 1 -5.48696568596860  6.23284664776478  2.33794009110911
 1 -4.37228118411841  5.71294246064606  1.10948412401240
 1 -9.50428248074808  5.82316846494649 -0.55437566576658
 1 -9.13252446834684  7.89246998589859  0.48477809960996
 1 -7.68531799759976  7.31214761426143  1.40881926742674
 1 -11.96704080918092  2.85196552255226 -2.28951195589559
 1 -13.36315598479848  2.02604649584958 -1.44325551705170
 1 -12.29308103920392  3.24277293199320 -0.82709395339534
 1 -12.45574035243524 -1.90089953505350 -1.61780673557356
 1 -13.18310702960296 -0.10325706250625 -1.49035456295630
 1 -12.89142549514952 -1.75007969416942 -3.77933781828183
 1 -12.21800536473647 -0.23769830743074 -4.07824131983198
 1 -11.13943022232223 -1.66085095219522 -3.46603522352235
 1 -9.27307691069107 -4.99159990289029 -1.69061232533253
 1 -7.84533389818982 -5.65150515471547 -0.68022763576358
 1 -9.30288017291729 -5.00171519281928  0.07620579797980
 1 -3.45847654355436 -3.20202345304530 -0.30673594509451
 1 -1.75263342984298 -4.36802324202420  3.51303421872187
 1 -2.67640724932493 -5.82073369096910  3.72835567446745
 1 -1.18141625312531 -5.86925619881988  2.67381133403340
 1  2.57932723682368 -1.50865270117012 -1.61905587058706
 1  2.47604508210821  0.22725700530053 -2.01548470067007
 1  4.18592949854986 -1.12195441064106  0.31604482048205
 1  3.89437840134013  1.49850856125613 -2.47222559225923
 1  5.37880329202920  2.42470272917292 -1.83457992619262
 1  5.51331863946395  0.99080018751875 -3.15646437743774
 1  6.51237330023002  1.41296529652965  0.10719336213621
 1  6.27880199959996 -0.24202223962396  0.42244196089609
 1  7.40377776247625 -0.99424866006601 -1.43680500410041
 1  7.97798023392339  0.57314052215222 -1.89522244584458
 1  9.16912896449645  0.82079996499650  0.48249588178818
 1  8.61014950365037 -0.99210471667167  0.60193805750575
 1  10.31919947134713  0.04259679737974 -1.98799368886889
 1  9.02738772427243 -2.35951392789279 -1.93740966576658
 1  10.89936249194920 -2.66282306620662 -1.96408065196520
 1  9.98594148014802 -2.76850879287929 -0.68936837653765
 1  11.33899158005801  0.59299152935294  0.48969045654566
 1  11.26695974937494 -0.93445940724072  0.82670329192919
 1  12.89951327022702 -1.69800796199620 -1.23622128972897
 1  12.72164591709171  0.15236592759276 -1.49875323662366
 1  13.63357479417942  0.44605716171617  0.86174351735174
 1  13.70345309840984 -1.42091169586959  0.85506202270227
 1  15.00588387688769  0.51854133913391 -1.29498385638564
 1  15.75754319721972 -2.30852114421442 -0.22323377727773
 1  15.01066411711171 -1.95165754135414 -1.70625804090409
 1  16.63125275467547 -1.52776830173017 -1.41695316481648
 1  15.66129132983298  1.25096292999300  1.15286183048305
 1  16.14352880008001 -0.37484665976598  1.25169793099310
 1  18.06936787548755 -0.28060460786079 -0.48424176457646
 1  17.62641970647065  1.29980729962996 -0.96908048384838
 1  18.25193598619862  2.49624378207821  1.19853785908591
 1  18.77964512481248  0.96678085908591  1.96919691999200
 1  20.33505841854186  0.30360650885089 -0.22884582058206
 1  19.73515762236223  3.19946350825082 -0.97876146954696
 1  21.21507575967597  2.31329798259826 -1.38474983828383
 1  19.80959486388639  1.77636944774477 -2.15124209320932
 1  21.00021599679968  1.12013012211221  1.96284590179018
 1  21.92738444474447  1.84014524422442  0.86496146244625
 1  20.69597932783278  2.79507959125913  1.54385482598260
=======
12 -7.17474804780478  0.59636838493849  0.20872856025603
 6 -4.84516913491349 -2.02602378077808  0.48958549124913
 6 -4.82186211511151  2.85996444374437  1.16480284518452
 6 -9.34102883838384  3.05425092059206 -0.46637949764977
 6 -9.45544585828583 -1.65238074907491 -0.84974140324032
 7 -5.05893931853185  0.40005982408241  0.69737015531553
 6 -4.33698340444044 -0.72464228622862  0.83003102630263
 6 -2.92147115251525 -0.43976340204020  1.32781313551355
 6 -3.02362580098010  1.05977864616462  1.65740647134713
 6 -4.35234222912291  1.49912066086609  1.21338836873687
 6 -2.87382246434643  1.37513980208021  3.16583799269927
 6 -1.95133859485949 -0.58451371277128  0.10255421372137
 6 -0.50468789138914 -0.52836718391839  0.59671380068007
 6  0.42116325352535 -0.72973648654865 -0.46354173467347
 8  0.22538377847785 -0.77227263486349 -1.69467579927993
 8  1.77103891439144 -0.56592398879888 -0.06590337923792
 7 -7.08532898079808  2.63708929872987  0.22725142064206
 6 -5.98857813681368  3.35171614741474  0.68146167976798
 6 -6.37739499259926  4.80797508690869  0.75879656685669
 6 -7.65390809780978  4.78822945444544  0.30170856215622
 6 -8.02371664326433  3.47809700500050 -0.13178063176318
 6 -5.51869982668267  5.91816428232823  1.19720448094809
 6 -8.51831962956295  5.96314734843484 -0.01342435703570
 6 -8.39854374567457  7.19567568616862  0.71493774357436
 7 -9.09727199979998  0.64524738583858 -0.54213824752475
 6 -9.82665892559256  1.77133708680868 -0.70025634973497
 6 -11.18281737833783  1.49372771187119 -1.16942866236624
 6 -11.21910431433143  0.10596596069607 -1.27936665066507
 6 -9.93289897059706 -0.37491946624662 -0.83245826192619
 6 -12.23242206590659  2.47676824782478 -1.33286006080608
 6 -12.43323787008701 -0.71570898099810 -1.63430423892389
 6 -12.43397088548855 -1.07533994519452 -3.07141225982598
 7 -7.16625609390939 -1.35929554315432 -0.24438911591159
 6 -8.18261850165016 -2.19676484858486 -0.65936089128913
 6 -7.83160930653065 -3.57904617211721 -0.51119839713971
 6 -6.52295617971797 -3.59235357235724 -0.11656338823882
 6 -6.19077167356736 -2.21830011131113  0.07609041324132
 6 -8.51464893229323 -4.84411725412541 -0.92694117251725
 6 -5.30774524482448 -4.37001088458846  0.26253912651265
 8 -5.11940077797780 -5.56989147254725  0.21984901560156
 6 -4.15742932233223 -3.36648243804380  0.44570443574357
 6 -3.56347697859786 -3.70489571087109  1.85138551145115
 8 -3.63134473507351 -3.19851658785879  2.91785446654665
 8 -2.72294348804880 -4.74309903230323  1.75416399729973
 6 -2.17619820772077 -5.13653788288829  3.08552348784878
 6  2.70533304500450 -0.67562535713571 -1.16632783318332
 6  4.10608269726973 -0.45526370267027 -0.48737888688869
 6  5.12951643604360  0.27282354775478 -1.05472524522452
 6  5.06856527952795  1.09230187948795 -2.32020618591859
 6  6.40362469526953  0.43072492269227 -0.22619910511051
 6  7.58690622852285 -0.09055940284028 -0.99220617111711
 6  8.83531540414041 -0.16554168456846 -0.14721653445345
 6  10.16605723022302 -0.55626269796980 -0.92017298779878
 6  10.11376807700770 -2.03198413451345 -1.43480694569457
 6  11.32305518241824 -0.27431121192119  0.06456732533253
 6  12.68772368006801 -0.43647769886989 -0.63286330923092
 6  13.84360382878288 -0.08330953375338  0.20316738423842
 6  15.28998512341234 -0.12633636273627 -0.39877811761176
 6  15.62401407030703 -1.45721335513551 -1.06147576527653
 6  16.37907201310131  0.26117047704770  0.50984549174917
 6  17.72059664906491  0.49014041244124 -0.10809662426243
 6  18.81510187968797  1.33271148814881  0.72329276227623
 6  20.18423709290929  1.34597493099310  0.19704446764676
 6  20.28335968976898  2.22149044624462 -1.03133412611261
 6  21.23924485528553  1.86035897219722  1.27519288268827
 1 -4.20861234573457  3.53061858325833  1.57364195109511
 1 -10.14312470517052  4.01624245924592 -0.61053644514451
 1 -10.20924421382138 -2.53124246504650 -1.01860851305131
 1 -2.64790124702470 -1.13800211411141  2.26691738293829
 1 -2.20731433663366  1.63772735533553  1.18683933433343
 1 -1.74464892239224  1.27843829672967  3.43477719121912
 1 -3.08468352835284  2.42471652915292  3.47480964636464
 1 -3.57413085578558  0.57981266526653  3.58544095689569
 1 -1.98538102300230 -1.52745270567057 -0.53146705590559
 1 -2.07301897439744  0.37671492189219 -0.55369540914091
 1 -0.22827634503450  0.53065767966797  0.88109850895090
 1 -0.26792459445945 -1.33206772197220  1.55971992719272
 1 -5.71742051745175  6.87381602570257  0.57775348454846
 1 -5.71159814921492  6.13652701580158  2.24070036713671
 1 -4.26784074007401  5.82239340574057  1.14741791739174
 1 -9.30634268676868  6.04632078017802 -0.72608283648365
 1 -9.01683289918992  7.87200793969397  0.35266488828883
 1 -7.89596906270627  7.51412781228123  1.50184857035704
 1 -12.00832493759376  3.22396272227223 -2.18624162886289
 1 -13.12808247744774  1.93645753695370 -1.58004919641964
 1 -12.58601033213322  3.06257491219122 -0.54144538853885
 1 -12.21132591099110 -1.76397584268427 -1.11626658155816
 1 -13.38521724062406 -0.34384112091209 -1.37189271677168
 1 -13.30432678527853 -1.49210389658966 -3.28477836233623
 1 -12.50910447464747 -0.27917245484548 -3.71893538923892
 1 -11.41591787108711 -1.47530239733973 -3.17396601660166
 1 -8.70742034503450 -4.90836157905791 -1.92726599069907
 1 -7.93483284808481 -5.55117512171217 -0.69614922792279
 1 -9.45509539443944 -5.07545256655666 -0.39997181978198
 1 -3.47045774167417 -3.68652190289029 -0.28421369286929
 1 -1.82369053555356 -4.38568500820082  3.54597751305130
 1 -3.03398300690069 -5.50940255785579  3.64989782868287
 1 -1.41064917641764 -5.96076534973497  2.66564051695170
 1  2.40987029112911 -1.58702053795380 -1.26172013701370
 1  2.51196867446745  0.11066534613461 -1.99314246644664
 1  4.02060296589659 -1.05247746294629  0.62111532753275
 1  4.16882584608461  0.92511122152215 -2.72712108180818
 1  5.32113752545254  2.12631289018902 -2.08388485668567
 1  5.83319062666267  0.63642474997500 -3.08283701470147
 1  6.50065212811281  1.65049904990499 -0.07987534473447
 1  6.36432055145515 -0.01770980838084  0.73765348204820
 1  7.18435582028203 -1.19293852905291 -1.44512583618362
 1  7.97863029892989  0.37360056815682 -1.95342826642664
 1  8.82624467606761  1.02720060506051  0.35661329352935
 1  8.85345383408341 -0.86906241244124  0.63684154785479
 1  10.26522407380738 -0.01492895519552 -1.93202809230923
 1  9.25385037053705 -2.12810078657866 -2.10494641944194
 1  10.87971052675267 -2.40288707260726 -2.02118636253625
 1  9.99183206920692 -2.56070801280128 -0.60008944864486
 1  11.12536021692169  0.84313654385439  0.29076056355636
 1  11.13903695709571 -0.96023198449845  0.97058768036804
 1  12.76734005290529 -1.47686584778478 -0.84828249584958
 1  12.83322707520752  0.03339403040304 -1.80640400170017
 1  13.58967040374037  0.90707326332633  0.58880622362236
 1  13.83518627172717 -0.89144874957496  0.97139365586559
 1  15.10527381588159  0.50489997499750 -1.35939029702970
 1  15.51820926382638 -2.16456674877488 -0.32846430033003
 1  15.04973802450245 -1.81686406200620 -1.97822523762376
 1  16.65024465386539 -1.56760228512851 -1.44754622412241
 1  16.19844504520452  1.30449828352835  1.04086063036304
 1  16.47105155235523 -0.57140631573157  1.12556531773177
 1  18.37712865156516 -0.50149669706971 -0.13322666306631
 1  17.63155021952196  0.87510482938294 -1.06945052085209
 1  18.42119291189119  2.56684084178418  0.94770277557756
 1  18.66808396869687  0.88966314731473  1.73064306460646
 1  20.48828374107411  0.25810195839584  0.00511757575758
 1  20.12185629222922  3.37204076597660 -0.78515210861086
 1  21.31421567366737  2.45626227902790 -1.39562092539254
 1  19.80212411681168  1.92298410921092 -1.95099206820682
 1  21.44958093329333  1.19083719281928  2.16667628482848
 1  22.21938364466446  1.99906113581358  0.82241720802080
 1  20.93052278217822  2.95311539483948  1.62413285378538
>>>>>>> 8e03b5b5abfc0030b3aa597dc0de36371bfbd096

