%nproc=4
%Mem=3GB
# td=(NStates=1) iop(3/107=0140000000,3/108=0140000000) CAM-B3LYP/6-31G(d,p) 

TD

0 1
12 -7.12489718141814  0.56413479697970  0.13344971497150
 6 -4.87886670317032 -1.97164439503950  0.41651705410541
 6 -4.82881891249125  2.82046076397640  1.32830293549355
 6 -9.36595335983598  3.05967352035204 -0.60127260256026
 6 -9.57489358735874 -1.75907767346735 -0.66759356425643
 7 -5.12693972517252  0.41848793939394  0.70571839583958
 6 -4.37518976627663 -0.68171931513151  0.77349524422442
 6 -2.91727794839484 -0.36115451345135  1.23965963506351
 6 -3.02848607550755  1.07868657025703  1.72768904820482
 6 -4.40875110981098  1.52889754085409  1.24831922582258
 6 -2.88491467226723  1.16482930223022  3.28283359795980
 6 -1.95127085678568 -0.61547753695370  0.08263207350735
 6 -0.47612332153215 -0.35981922992299  0.46871025332533
 6  0.49256117931793 -0.67962458435844 -0.60799058915892
 8  0.27186740354035 -1.10566434413441 -1.79365675877588
 8  1.71594019241924 -0.44804474287429 -0.19703509110911
 7 -7.07485512891289  2.65350856075608  0.35582650675068
 6 -6.00228037183718  3.35245901330133  0.77511338743874
 6 -6.30159506790679  4.77185404900490  0.84406266496650
 6 -7.63933871917192  4.84054585978598  0.26739286568657
 6 -8.04942446994700  3.45720265906591 -0.11531353275328
 6 -5.43081511541154  5.87933740744074  1.27452760796080
 6 -8.42156216421642  6.07182745234523  0.08723933643364
 6 -8.28198660866087  7.23750289999000  0.78493255255526
 7 -9.14131317241724  0.68950594499450 -0.44153072697270
 6 -9.88873635993599  1.82759608390839 -0.69303211671167
 6 -11.22054600730073  1.49992943744374 -1.17858271797180
 6 -11.30655014221422  0.13670121592159 -1.20023005130513
 6 -9.96411401500150 -0.39087928132813 -0.87071927322732
 6 -12.17162810051005  2.48389363076308 -1.34552400510051
 6 -12.45823961686169 -0.63842996679668 -1.67794712531253
 6 -12.38087999689969 -1.08453864616462 -3.15809646084608
 7 -7.24220718311831 -1.36836167186719 -0.16069874497450
 6 -8.31112543884388 -2.19911845734573 -0.41926350625063
 6 -7.90648268806881 -3.61632218361836 -0.47806810661066
 6 -6.50884867536754 -3.55196817891789 -0.06251833353335
 6 -6.21001473317332 -2.17095505130513  0.16741857725773
 6 -8.67323966346635 -4.86056215461546 -0.83318670177018
 6 -5.30786624952495 -4.42049561296130  0.13703867796780
 8 -5.21939293159316 -5.58182503950395  0.12597854645465
 6 -4.15536003860386 -3.31340878827883  0.47608593019302
 6 -3.56929110591059 -3.61213915661566  1.78806477497750
 8 -3.80551333473347 -3.17794515241524  2.93596695489549
 8 -2.61575692849285 -4.68077669616962  1.66108514601460
 6 -2.14727368436844 -5.19308451435144  2.87108450885088
 6  2.70598691909191 -0.72069035793579 -1.14109762696270
 6  4.13042392759276 -0.36902217011701 -0.55829839263926
 6  5.06053154445445  0.33162969096910 -1.09418229522952
 6  5.14628835443544  1.14449212451245 -2.34974910991099
 6  6.40154643334333  0.45543615961596 -0.24293481788179
 6  7.60095154775478 -0.17304585258526 -1.01818214691469
 6  8.88744645624563 -0.13527534363436 -0.19834593699370
 6  10.21579704030403 -0.62628429162916 -0.95202092209221
 6  10.23672694929493 -2.07328520842084 -1.26927389338934
 6  11.41450611441144 -0.21475636673667 -0.14294225672567
 6  12.84187192269227 -0.46253628712871 -0.71737924302430
 6  13.94165543734373 -0.19766548084808  0.27071348294830
 6  15.37085307630763 -0.29283836743674 -0.36778243074307
 6  15.71917818881888 -1.73840222852285 -0.79443126942694
 6  16.41301829452945  0.29674619191919  0.47317205190519
 6  17.82786037373737  0.48125185478548 -0.06855338233823
 6  18.77454787338734  1.43676175467547  0.68530178687869
 6  20.17017982238224  1.48408784128413  0.25624233023302
 6  20.29229207500750  2.12750005510551 -1.17300199609961
 6  21.03288835583558  2.04134583448345  1.41723566356636
 1 -4.22505286878688  3.63326657805781  1.68226432223222
 1 -10.03645576887689  3.95671794629463 -0.69049357555756
 1 -10.45226965106511 -2.37686322142214 -1.01749956935694
 1 -2.61743903110311 -1.12834303700370  2.06932342304230
 1 -2.28139160546055  1.81896395749575  1.21012466146615
 1 -1.83745683208321  0.83812291869187  3.60739107650765
 1 -2.94810191929193  2.26994621742174  3.55586360856086
 1 -3.50415321582158  0.50985613991399  3.68680036523652
 1 -2.19292441144114 -1.56212688348835 -0.42370037713771
 1 -2.12766913591359  0.13011063086309 -0.73486022062206
 1 -0.26927235593559  0.46684627192719  0.76250011301130
 1 -0.08398681898190 -1.12585335193519  1.27326078437844
 1 -5.64486866456646  6.72642015401540  0.60471030233023
 1 -5.57520899219922  6.14763764516452  2.36045805830583
 1 -4.46784162876288  5.44877914591459  0.85371610421042
 1 -9.24795505530553  5.88709209120912 -0.70723207590759
 1 -8.81926098979898  8.26565628662866  0.46374615031503
 1 -7.66458439053905  7.26351318771877  1.37465642594259
 1 -11.99176964996500  3.15630477757776 -2.04635046654665
 1 -13.12715001270127  2.07411615401540 -1.73679940814081
 1 -12.36430746344634  3.22660999509951 -0.56222666216622
 1 -12.62429439433943 -1.63097402020202 -1.21810531143114
 1 -13.42347464656466  0.05713300280028 -1.58564431883188
 1 -13.46826202540254 -1.36687034913491 -3.57100805890589
 1 -12.09864026972697 -0.17291576287629 -3.62137111551155
 1 -11.67985282468247 -1.78864989218922 -3.23188146634664
 1 -8.92643726232623 -4.88721522232223 -1.80086614961496
 1 -7.80987537273727 -5.64910086338634 -0.82005196029603
 1 -9.55554973397340 -4.81875032343234 -0.17326959565957
 1 -3.54973249174918 -3.42877948354835 -0.50012775087509
 1 -1.96852023962396 -4.47179939333933  3.75172689028903
 1 -2.89013545084509 -6.14928445334533  3.31620265796580
 1 -1.21318183868387 -5.82618340314031  2.45847920902090
 1  2.58934698949895 -1.71699832263226 -1.43346479517952
 1  2.57740418171817 -0.20433234843484 -2.17995905340534
 1  4.45535602230223 -1.07149556335634  0.27770917111711
 1  4.20109542104210  1.40095563826383 -2.90521100680068
 1  5.54293122532253  2.05645606950695 -1.92088952735273
 1  6.07493706220622  0.84524571547155 -2.93354961186119
 1  6.59006719061906  1.42453243384338  0.04069368326833
 1  6.19960783288329 -0.04107144384438  0.64705090059006
 1  7.30702282508251 -1.20431110411041 -1.46015077227723
 1  7.80829338783878  0.53921302430243 -1.77305812871287
 1  9.08440448474848  0.93827332483248  0.21674410251025
 1  8.66814993579358 -0.92352070477048  0.71881800520052
 1  10.24605923772377  0.07401354915492 -1.84675983398340
 1  9.44301391049105 -2.31610989448945 -2.01821020292029
 1  11.07503664426443 -2.34166756605661 -1.82188754685469
 1  9.89193139023902 -2.72608672337234 -0.57748514221422
 1  11.43940558215822  0.91134756815682  0.13056082688269
 1  11.25487308280828 -0.76288758635864  0.87927424752475
 1  12.75628358085809 -1.56704412371237 -0.94776704820482
 1  13.01637746764676  0.02462739873987 -1.53587792149215
 1  13.98397981828183  0.76535189848985  0.65064989368937
 1  13.73175148574857 -0.83963034193419  1.24726710071007
 1  15.06681708310831  0.28401179817982 -1.39583085188519
 1  15.61087488428843 -2.33274261546155  0.14682654715472
 1  15.10662230663066 -1.99730425042504 -1.58040941444144
 1  16.78319659925993 -1.70561145814582 -1.08949546284629
 1  16.09735300880088  1.35209354305431  0.88970488678868
 1  16.49543362116212 -0.47994427922792  1.28747724242424
 1  18.49584632233223 -0.45605211921192 -0.27614781038104
 1  17.80621793139314  0.92401129522952 -0.99644538813881
 1  18.12462151905191  2.23445471347135  0.67089903670367
 1  18.97675363786379  1.07699253875388  1.68385163066307
 1  20.41374120642064  0.37428842644264  0.11498739093909
 1  19.69029584808481  2.96015679217922 -1.06190837553755
 1  21.39552335313531  2.23159430153015 -1.31968995019502
 1  19.94757315491549  1.38386867706771 -1.91609999439944
 1  20.58250210371037  1.74749038993899  2.57250091889189
 1  22.27993588638864  1.89697016771677  1.33294994859486
 1  20.94164424292429  3.18421453865387  1.26397353405341

