%nproc=4
%Mem=2GB
# td=(NStates=1) CAM-B3LYP/6-31G(d,p) 

TD

0 1
<<<<<<< HEAD
12 -7.26011658465847  0.58796754485449  0.12046973437344
 6 -4.90494511251125 -1.96018719711971  0.48694522722272
 6 -4.91820174907491  2.83261170847085  1.04670103500350
 6 -9.45321005650565  3.07588308380838 -0.45459831953195
 6 -9.48168848254826 -1.75449096009601 -0.95049147824782
 7 -5.12331575617562  0.44994481258126  0.61040145844584
 6 -4.39685939203920 -0.67680750275027  0.69642766596660
 6 -3.03527253265327 -0.31683110881088  1.20303065726573
 6 -3.14767820622062  1.09536220452045  1.56781751245125
 6 -4.42243923882388  1.54826557535754  1.08154518441844
 6 -2.89584466656666  1.32759504760476  3.10871228012801
 6 -1.89854331533153 -0.57123238463846  0.05371933023302
 6 -0.49124654725473 -0.41024537173717  0.50924505380538
 6  0.51719285648565 -0.56040955385539 -0.52200758125813
 8  0.37127836793679 -0.95962136973697 -1.66722305400540
 8  1.77147895839584 -0.43525092149215 -0.07135392429243
 7 -7.20260070797080  2.63638922872287  0.26272496799680
 6 -6.21543082208221  3.39901087688769  0.76598013161316
 6 -6.61520877397740  4.87756204560456  0.78203889108911
 6 -7.88771147814781  4.77254788628863  0.27557594889489
 6 -8.27645191679168  3.52563175847585 -0.07362481618162
 6 -5.58447640434043  5.88306077197720  1.21452621312131
 6 -8.76248404600460  5.91836286998700  0.18645563096310
 6 -8.57733162446245  7.02520863946395  1.03544979477948
 7 -9.21811408400840  0.68490135123512 -0.45950998469847
 6 -9.95659191889189  1.78407836093609 -0.70921724582458
 6 -11.24962405900590  1.44074241334133 -1.13140485998600
 6 -11.30319272317232  0.03133849794980 -1.25092380638064
 6 -10.00238591929193 -0.37675965026503 -0.91716673277328
 6 -12.36561538523852  2.34399497049705 -1.38722549734974
 6 -12.40065461176118 -0.76329373947395 -1.77650845934593
 6 -12.41858934733473 -0.96809922112211 -3.30818593719372
 7 -7.26972644094409 -1.37824743834383 -0.12010668766877
 6 -8.22759299909991 -2.24751992409241 -0.52358731393139
 6 -7.84586073167317 -3.63122138963896 -0.49092636993699
 6 -6.49939382348235 -3.58793313031303 -0.02221395329533
 6 -6.20972356875688 -2.20997927922792  0.07911071527153
 6 -8.54370183758376 -4.89020186258626 -0.94092257065707
 6 -5.28055252555256 -4.37611149464946  0.25802867546755
 8 -5.07726656455646 -5.56577106050605  0.32173920462046
 6 -4.19318289768977 -3.24032982278228  0.50763062836284
 6 -3.50397102800280 -3.61388660996100  1.94526489938994
 8 -3.81644324492449 -3.06351308750875  2.98306098719872
 8 -2.56520771447145 -4.53172789518952  1.79289787068707
 6 -2.00996158405841 -5.03979820892089  3.04321925742574
 6  2.86820933263326 -0.68621641624162 -1.10132133253325
 6  4.21775386438644 -0.45348352465246 -0.50781093009301
 6  5.19829331373137  0.21670793619362 -0.96057583028303
 6  5.22205062806281  1.26663931323132 -2.08152231753175
 6  6.42851718451845  0.28719056925693 -0.12608909410941
 6  7.64503204110411 -0.28044839173917 -0.85026197669767
 6  9.00276214881488 -0.18846397679768 -0.07754956775678
 6  10.29525014951495 -0.57613468516852 -0.78389936043604
 6  10.32376907710771 -2.01816275237524 -1.44631809680968
 6  11.51602447934794 -0.40472425322532 -0.00151928332833
 6  12.83173808150815 -0.52398644974497 -0.71237126002600
 6  14.00704017241724 -0.08260946374637  0.09577664516452
 6  15.46390251515152 -0.03568729782978 -0.52165040484048
 6  15.67496916581658 -1.65321295509551 -0.88101771947195
 6  16.49298340424042  0.52054641464146  0.33749825702570
 6  17.86117070647065  0.48528992739274 -0.26916273087309
 6  18.88007837733774  1.18738695569557  0.70067050005001
 6  20.34088275747575  1.27743807730773  0.19551431463146
 6  20.41610296409641  2.07233553075308 -1.05796678937894
 6  21.29484041484148  1.78334127042704  1.30414577797780
 1 -4.07135862036204  3.50264578597860  1.32017660456046
 1 -10.34268466116612  3.82186302130213 -0.56178156965697
 1 -10.13854714411441 -2.65464480528053 -1.15257190939094
 1 -2.78792524942494 -0.92009032293229  1.97366805800580
 1 -2.21163476867687  1.45622920552055  1.03293394379438
 1 -1.89474393189319  1.02825327822782  3.25777949144915
 1 -2.92510757075708  2.50660471797180  3.36095826122612
 1 -3.46932037473747  0.61254593859386  3.93954636743674
 1 -2.00442292719272 -1.57570753115312 -0.26336024522452
 1 -2.24334600710071  0.16784403480348 -0.79955999559956
 1 -0.09624314171417  0.65177979187919  0.95432583168317
 1 -0.46020382238224 -1.05952046724672  1.40604455965597
 1 -5.83225200060006  6.80214885898590  0.77857356655666
 1 -5.39294628402840  5.97983134623462  2.28660495759576
 1 -4.58959291529153  5.56697786418642  0.83720689628963
 1 -9.53459551205121  6.09819596769677 -0.58186841504150
 1 -9.22317353325333  7.87632837173717  1.11224084588459
 1 -7.86022548834884  6.93601000050005  1.77712609810981
 1 -12.16812091719172  3.00534086008601 -2.19239224392439
 1 -13.38470814001400  1.79737362856286 -1.49012020352035
 1 -12.41633336443644  3.00755941064106 -0.64459570357036
 1 -12.57369214761476 -1.78657810291029 -1.26215117001700
 1 -13.39919863876388 -0.31277801460146 -1.71833736123612
 1 -13.24532088468847 -1.64290897709771 -3.50293017751775
 1 -12.43536710091009  0.10650611301130 -3.83889738543854
 1 -11.57627390669067 -1.48517338443844 -3.57487610761076
 1 -8.57170677367737 -4.83159390229023 -2.12592585668567
 1 -7.84911427622762 -5.74757476167617 -0.77215682868287
 1 -9.61159104400440 -5.07131215251525 -0.67849967256726
 1 -3.40262095799580 -3.08856210691069 -0.42367763926393
 1 -1.50328849534953 -4.23786022572257  3.52083499879988
 1 -2.81581118971897 -5.25096671427143  3.74236707560756
 1 -1.50536864836484 -5.71738101130113  2.82106605950595
 1  2.74641394549455 -1.72583441934193 -1.32874683968397
 1  2.74819229682968 -0.05384110451045 -1.85207836003600
 1  4.34733563916392 -1.03735595079508  0.50270348634863
 1  4.26003496699670  1.29655836623662 -2.55465383508351
 1  5.46219163086309  2.25443570247025 -1.71096756495650
 1  5.84414172177218  0.86108721622162 -2.83726245724572
 1  6.65890795369537  1.37484148414841  0.13190583338334
 1  6.31458557795780 -0.18116615401540  0.82226194289429
 1  7.37463484818482 -1.40859009420942 -0.88642996659666
 1  7.59059149504950  0.06358956705671 -1.88111103470347
 1  9.16192824442444  0.92923080808081  0.02941057325733
 1  8.91336982568257 -0.80743624982498  0.83300116381638
 1  10.31707925932593  0.04958749644965 -1.62011690119012
 1  9.30205519101910 -2.24359233573357 -1.84947087188719
 1  11.28471102680268 -2.17276406030603 -1.98215245914591
 1  10.25923880988099 -2.64537647964797 -0.45603504320432
 1  11.44613229412941  0.54326655685569  0.61114260176018
 1  11.41771482488249 -1.16917287858786  0.85624624622462
 1  12.98733205210521 -1.48675683688369 -1.35169283688369
 1  12.77356110861086  0.41929262026203 -1.60151351265127
 1  13.63247468416842  0.96797935393539  0.57738508150815
 1  14.04469722282228 -0.59750935563556  1.10944746124612
 1  15.37175046354635  0.63431291629163 -1.47956231423142
 1  15.68612605550555 -2.35348564066407  0.02819136523652
 1  15.08953200390039 -1.82957533313331 -1.83077049214921
 1  16.51486111551155 -1.60163568846885 -1.60460192969297
 1  16.00927612831283  1.54716254995500  0.58048459275928
 1  16.74538898609861 -0.11947112221222  1.37046980818082
 1  18.25496643534353 -0.65368191559156 -0.46751009140914
 1  17.81215828032803  0.94467178607861 -1.24304788058806
 1  18.54356514911491  2.04165832353235  0.44578258355836
 1  18.73508066836684  0.69862404340434  1.76271627192719
 1  20.65726063876388  0.21804795299530 -0.07548048404841
 1  19.99786389298930  3.14073763566357 -0.83341693509351
 1  21.30034428652865  2.33016966976698 -1.34265562886289
 1  19.76822072647265  1.68826063686369 -1.86556352535254
 1  21.04672064726473  1.11353946304630  2.20025964316432
 1  22.45017672397240  1.65775700540054  0.82985795209521
 1  21.07774750465047  2.84047413071307  1.75950639113911
=======
12 -7.18697927092709  0.63192194029403  0.12126981438144
 6 -4.75072969096910 -1.96223740214021  0.43454998769877
 6 -4.89338926782678  2.84015246254625  1.16117248214821
 6 -9.51181591709171  3.08208370387039 -0.38774163386339
 6 -9.50505081878188 -1.73924943594359 -0.82699912901290
 7 -5.20415383998400  0.47891770987099  0.67407782608261
 6 -4.34862456855686 -0.70124994699470  0.76677470067007
 6 -2.87878688408841 -0.36839626532653  1.05529588378838
 6 -3.03654709310931  1.12791545984598  1.55414614531453
 6 -4.51648864376438  1.53388413721372  1.12073910381038
 6 -2.88733381548155  1.29045133323332  3.13596500540054
 6 -1.93008646964696 -0.57848310971097 -0.03190923262326
 6 -0.42958038063806 -0.48060240744074  0.56937106640664
 6  0.56456759395940 -0.63307682058206 -0.59158453895390
 8  0.21184242434243 -0.97441284888489 -1.73757008870887
 8  1.77834964546455 -0.33613100950095 -0.14204099299930
 7 -7.18732918081808  2.62144773457346  0.16844554005401
 6 -6.11376065506551  3.38779975577558  0.74745827942794
 6 -6.43231048414841  4.85358964836484  0.81555224242424
 6 -7.75650835783578  4.88718935043504  0.46200459175918
 6 -8.21059533113311  3.47904710001000  0.04674722102210
 6 -5.57551550825083  5.96547901380138  1.24885964646465
 6 -8.55309310691069  6.04892592629263  0.17898488388839
 6 -8.52238612991299  7.21341746034603  0.72079832963296
 7 -9.15975824842484  0.71880474157416 -0.60657469116912
 6 -9.94535079477948  1.83882383548355 -0.68091441554155
 6 -11.34525362196220  1.37768610771077 -1.07021874137414
 6 -11.32875527942794  0.12014737883788 -1.18725743974397
 6 -9.89940562126213 -0.40594256855686 -0.88601361746175
 6 -12.43484230793079  2.35985655665567 -1.29677645244524
 6 -12.37548209450945 -0.84447185728573 -1.62287309580958
 6 -12.30881837023702 -1.18906131733173 -3.13923904250425
 7 -7.10039950825083 -1.33652326592659 -0.12598727572757
 6 -8.27080732053205 -2.19704487658766 -0.48116307150715
 6 -7.84668081368137 -3.64978324582458 -0.45950322762276
 6 -6.53374725882588 -3.59469380638064 -0.07139887178718
 6 -6.05407800420042 -2.23123140444044  0.07031983618362
 6 -8.69600706810681 -4.78452129452945 -0.90375885428543
 6 -5.41378584888489 -4.37461134463446  0.23223609620962
 8 -5.33493233113311 -5.57760224362436  0.31078810951095
 6 -4.15103868326833 -3.37682347214721  0.52150201550155
 6 -3.59206983788379 -3.67526274757476  1.89356972987299
 8 -3.88023962456246 -3.13423015921592  2.88799148024802
 8 -2.62142333603360 -4.59292401480148  1.71030961186119
 6 -2.32262285018502 -5.33977820692069  3.00139507500750
 6  2.76243875557556 -0.64656245084508 -1.23942514291429
 6  4.20471256025603 -0.41785996229623 -0.50619076807681
 6  5.19173265766577  0.22687895329533 -1.05623539623962
 6  5.11176959996000  1.07467011631163 -2.18998316361636
 6  6.48916324912491  0.32128397859786 -0.24668115331533
 6  7.72231976987699 -0.17360770767077 -1.03157010751075
 6  9.05521739433943 -0.10095522592259 -0.37899971277128
 6  10.36219684418442 -0.51440851255126 -1.02969393989399
 6  10.33140984118412 -1.98115905200520 -1.41310477547755
 6  11.52320519741974 -0.19289307010701 -0.00874000540054
 6  12.88663357105711 -0.51969602070207 -0.65318534143414
 6  13.91486095449545 -0.28008921172117  0.39997706520652
 6  15.36987311221122 -0.22998672777278 -0.34843308310831
 6  15.70809247814782 -1.68931656545655 -0.70774039173917
 6  16.45357946384638  0.23397775777578  0.60620512771277
 6  17.86708129752975  0.50998239663966 -0.15322113671367
 6  18.89493986348635  1.25052326932693  0.69993042604260
 6  20.33312198139814  1.43422375587559  0.23902866606661
 6  20.27512886668667  2.19648794599460 -1.18696968966897
 6  21.28704963576358  2.07595053135314  1.25547091049105
 1 -4.17026851135114  3.65773129452945  1.38853344024402
 1 -10.03664405710571  3.99472030703070 -0.54978036953695
 1 -10.25273856325633 -2.43301264206421 -1.27736438863886
 1 -2.81256771367137 -1.25641395529553  1.76081677287729
 1 -2.30023362856286  1.77085066766677  1.11323197359736
 1 -1.97886234373437  1.10925137803780  3.61975568906891
 1 -3.26056111611161  2.31784584208421  3.46482864826483
 1 -3.53789723242324  0.59411409540954  3.73682609540954
 1 -2.07954043894389 -1.55868582898290 -0.49608351755176
 1 -1.95203687618762  0.38649589999000 -0.77056709630963
 1  0.07888437103710  0.36906152005200  1.11046144524452
 1 -0.16300410241024 -1.41771628682868  1.27319127432743
 1 -5.64549332473247  6.81612025612561  0.72222793199320
 1 -5.63261025042504  6.07525088818882  2.32203850095009
 1 -4.51921587758776  5.65732689908991  1.17468064366437
 1 -9.52737478997900  5.92450859895990 -0.42446267446745
 1 -9.27319853575358  7.94821556045605  0.42172179397940
 1 -7.80832029782978  7.46460285978598  1.37181556705671
 1 -11.93554765986599  2.97130745674567 -2.18045104980498
 1 -13.24382405160516  2.00558444964496 -1.45877706920692
 1 -12.56032776387639  2.94801345604560 -0.36040728472847
 1 -12.06967174557456 -1.66835628072807 -0.96581153605361
 1 -13.27527624652465 -0.40490722752275 -1.47064259175918
 1 -13.09319567216722 -1.94740942714271 -3.40273015751575
 1 -12.59687325152515 -0.21001553915392 -3.73773726942694
 1 -11.22716899619962 -1.58646351345135 -3.43228184818482
 1 -8.84096369936994 -5.07313805670567 -2.02050531463146
 1 -8.16398576337634 -5.80115011921192 -0.36235584858486
 1 -9.81908179307931 -4.81368638993899 -0.53191501410141
 1 -3.40886158205821 -3.42990624132413 -0.23540881238124
 1 -1.49564773127313 -4.61725816551655  3.67561047634763
 1 -3.27081669026903 -5.58454007160716  3.55904874377438
 1 -1.77791590309031 -6.01781105430543  2.67968192109211
 1  2.67103640774077 -1.86651848774877 -1.49519348434843
 1  2.71192867046705  0.06370064966497 -1.97382053425342
 1  4.46713761936194 -0.94360657585759  0.45831904790479
 1  4.28274723822382  1.11912062246225 -2.95922429212921
 1  5.42191760346035  1.93864412331233 -1.75263173137314
 1  5.97562487008701  0.81810291779178 -2.97305603660366
 1  6.64936699959996  1.60935493549355 -0.29024638183818
 1  6.47923204260426 -0.22692072947295  0.71938165486549
 1  7.64293167786779 -1.39418865406541 -1.35259658325833
 1  7.86357879377938  0.32214542264226 -1.99250217381738
 1  9.12926497809781  0.86068395339534 -0.08138050585058
 1  9.07738622732273 -0.71006651285129  0.65018288198820
 1  10.70790834223422  0.23904644234423 -1.85255014451445
 1  9.53157814331433 -2.15327330383038 -2.31364728952895
 1  10.99495205090509 -2.44309109300930 -2.23544778867887
 1  9.83273615961596 -2.62966490849085 -0.42119155885589
 1  11.52154983588359  0.76296852705271  0.20843233073307
 1  11.31583463686369 -0.63157911921192  1.09191981358136
 1  12.80073339223922 -1.40443860506051 -1.16875454305431
 1  13.01975572807281  0.30289098009801 -1.41415477677768
 1  13.72133357005701  0.65863841984198  1.04486182918292
 1  14.06673942704271 -1.03776338103810  1.22828934543454
 1  15.25026831533153  0.30342982798280 -1.26039039703970
 1  15.93189063196320 -2.53424371647165 -0.06196765066507
 1  15.12211526222622 -2.10124249984999 -1.62157957305731
 1  16.68888851825183 -1.67173269816982 -1.11065253475348
 1  16.16350155085508  1.07507534123412  0.90641718601860
 1  16.48240268746875 -0.48827800290029  1.40785354655465
 1  18.23592453115312 -0.53540008740874 -0.44461780218022
 1  17.53558062256226  1.14170148904890 -0.96387996379638
 1  18.55673646624663  2.23862802050205  0.98997700300030
 1  18.73797095739574  0.95504968596860  1.73546354665467
 1  20.82657757045705  0.42042819101910  0.19604666866687
 1  20.01579568616862  3.31499506140614 -0.92097569096910
 1  21.31373562566257  2.30495714851485 -1.67247861116112
 1  19.56000990539054  1.88468027882788 -2.05128209720972
 1  21.15056103130313  1.43703181228123  2.09901951915191
 1  22.28209991629163  2.14703593329333  1.00031499779978
 1  20.74230396029603  3.14881496479648  1.55834627512751
>>>>>>> 8e03b5b5abfc0030b3aa597dc0de36371bfbd096

