%nproc=4
%Mem=2GB
# td=(NStates=1) CAM-B3LYP/6-31G(d,p) 

TD

0 1
<<<<<<< HEAD
12 -7.16625719871987  0.57871661976198  0.04376206360636
 6 -4.90633525152515 -1.89227040544054  0.54162069476948
 6 -4.85759568846885  2.89574802210221  1.28289465436544
 6 -9.44881961746175  3.16852234773477 -0.36464932463246
 6 -9.56067638133814 -1.71248675967597 -0.94657108620862
 7 -5.07415083968397  0.44629444754475  0.68381880018002
 6 -4.35833553965397 -0.67191701370137  0.84543256645665
 6 -2.97644665006501 -0.37297672337234  1.35236559075908
 6 -3.01650508890889  1.17473014131413  1.73154388508851
 6 -4.45387238213821  1.57964871367137  1.20139716961696
 6 -2.86525160726073  1.40546283438344  3.24026543544354
 6 -1.95283874487449 -0.64890015141514  0.08031198949895
 6 -0.49551697429743 -0.48851319851985  0.48553268256826
 6  0.46586772397240 -0.79854336723672 -0.50551593209321
 8  0.20503174327433 -1.22567797539754 -1.61585791749175
 8  1.79619142964296 -0.40912830923092 -0.09533632253225
 7 -7.07652810071007  2.64239982978298  0.29179787528753
 6 -6.11114039303930  3.41516249204920  0.74730826442644
 6 -6.42650990409041  4.82405669506951  0.78441912911291
 6 -7.75809851685169  4.77473810531053  0.41951034233423
 6 -8.19212348394840  3.51159035433543  0.16827937423742
 6 -5.55027298399840  5.93794626052605  1.10550531103110
 6 -8.57214501210121  5.99514054775478  0.19753673907391
 6 -8.48495238653866  7.08718483708371  0.96311256105611
 7 -9.12059433203320  0.65638849995000 -0.46076010971097
 6 -9.80893715341534  1.77407736083608 -0.71849817391739
 6 -11.24864396099610  1.47072541164116 -1.27253897339734
 6 -11.18181058495850  0.09203456755676 -1.36511522552255
 6 -9.94459013971397 -0.33352532683268 -0.95936095219522
 6 -12.34271309500950  2.41669224022402 -1.56816359115912
 6 -12.27850239653965 -0.67664507460746 -1.90657146564657
 6 -12.12398988738874 -1.08089050025003 -3.47223234183418
 7 -7.25007447574758 -1.45656527012701 -0.17665234223422
 6 -8.32433267306731 -2.24495966806681 -0.54444940014001
 6 -7.80984713031303 -3.59126739423942 -0.46212348964896
 6 -6.52291617571757 -3.58003234023402 -0.06302803470347
 6 -6.25901849824982 -2.22130041134113  0.06202900710071
 6 -8.61038850625062 -4.89367220962096 -0.80577905630563
 6 -5.23577804810481 -4.36382026552655  0.16636950955096
 8 -5.16559539743974 -5.60024450785079  0.06081311201120
 6 -4.17695127452745 -3.25733152295229  0.63615348064806
 6 -3.58214884578458 -3.61657687898790  1.98549892279228
 8 -3.83195479607961 -3.01869860606061  2.97381006210621
 8 -2.69304049774977 -4.52036675907591  1.85178375927593
 6 -2.25473606150615 -5.31355558465847  3.03464840034003
 6  2.78640115181518 -0.56801459605961 -1.15899710011001
 6  4.24315640464046 -0.47312548884888 -0.41685183418342
 6  5.19787327172717  0.26722298769877 -0.92716248894889
 6  5.06576499949995  1.09474212351235 -2.21262542784278
 6  6.47359169196920  0.28409025922592 -0.08187467266727
 6  7.73134067196720 -0.26926727362736 -0.82711966246625
 6  9.01875374797480 -0.17663279367937 -0.10514232703270
 6  10.26628725322532 -0.66430350205021 -0.87921889238924
 6  10.18637533773377 -2.18014895099510 -1.28690215521552
 6  11.45623850075008 -0.33026680748075 -0.00645977737774
 6  12.75656056375638 -0.43988803990399 -0.78596861976198
 6  13.94417388578858 -0.23023422622262  0.13359042654265
 6  15.49442556745675 -0.24099782888289 -0.46829506930693
 6  15.77305897479748 -1.59465709950995 -1.02292190989099
 6  16.42430653655365  0.35941030103010  0.52200670787079
 6  17.86490107950795  0.57522892129213 -0.19852566716672
 6  18.80845121462146  1.35938415541554  0.67982841584158
 6  20.25606427562756  1.43153348684868  0.08105286848685
 6  20.20998235203520  2.31243954115412 -1.12968396109611
 6  21.11433236403640  2.05650858715872  1.15361072447245
 1 -4.06718820332033  3.70516603800380  1.77027161406141
 1 -10.29226961966197  3.73812464746475 -0.58026341784178
 1 -10.35081837123712 -2.35939528032803 -1.14024067626763
 1 -2.57374383128313 -1.05327364126413  2.17828852005201
 1 -2.34110771597160  1.68058164076408  1.09984063446345
 1 -1.82585704320432  1.13864431733173  3.37896160966097
 1 -3.25420048004801  2.40910496799680  3.55603776917692
 1 -3.50280372307231  0.69587427142714  3.78674108690869
 1 -2.27289977487749 -1.58765872627263 -0.40731464066407
 1 -2.11911358385839  0.20014726512651 -0.71578161776178
 1 -0.20829434683468  0.59031364526453  0.93549394849485
 1 -0.12578038003800 -1.20040455565557  1.50376433163316
 1 -5.90313908930893  6.71285993009301  0.57290299949995
 1 -5.70930792019202  6.15890925402540  2.12292858995900
 1 -4.38944290029003  5.69836100250025  0.84811798739874
 1 -9.26226827932793  5.87898404650465 -0.63864409260926
 1 -9.15298651455145  7.91771251015102  0.64965458725873
 1 -7.88134760056006  7.07921432093209  1.97269565506551
 1 -11.76597070217022  3.33302362836284 -2.12187519221922
 1 -13.03548321752175  1.71679557075708 -2.17459865136514
 1 -12.68778050915092  2.98960761546155 -0.57793903790379
 1 -12.18508328672867 -1.78224766986699 -1.47189214411441
 1 -13.18471719061906 -0.02775951275128 -1.69993552105210
 1 -13.03324967756776 -1.91379606580658 -3.83624350885089
 1 -12.41552511671167 -0.25119965756576 -4.09451294699470
 1 -11.00408668796880 -1.34688955605561 -3.64367298729873
 1 -8.82145174817482 -5.16599734263426 -2.10630389448945
 1 -7.82956232103210 -5.76298630283028 -0.63935354835484
 1 -9.52011189608961 -4.98956397769777 -0.25243706630663
 1 -3.39946064196420 -3.29086233693369  0.03303803230323
 1 -1.87801596809681 -4.54683112281228  3.75684860016002
 1 -3.16547615621562 -5.70503212081208  3.45957879677968
 1 -1.68174628612861 -6.10129940314031  2.51515546844684
 1  2.56407571167117 -1.66520835673567 -1.52087605260526
 1  2.66924440204020  0.08371265086509 -1.80155330753075
 1  4.24615552115212 -0.78058027322732  0.55139835583558
 1  4.06675563906391  1.00819953035304 -2.63199156885689
 1  5.39284469616962  2.16070632953295 -2.32722919111911
 1  5.70932824042404  0.38473958145815 -3.00377910891089
 1  6.57036909980998  1.33937793779378  0.50079272207221
 1  6.09747386678668 -0.45341337873787  0.82343205990599
 1  7.31542892759276 -1.18670790599060 -1.12173349694969
 1  7.82681511741174  0.16617982608261 -1.78976189978998
 1  9.12172422402240  0.95186307130713  0.16030366256626
 1  8.93729221792179 -0.80142564876488  0.80794865856586
 1  10.33837138853885  0.05038757645765 -1.84328921842184
 1  9.18527351285129 -2.26766474297430 -1.71567749254925
 1  10.84660721642164 -2.42322910681068 -2.15890013391339
 1  10.05000788678868 -2.95632757475748 -0.52690212991299
 1  11.27902558345835  0.65831806200620  0.56815830333033
 1  11.37592064546455 -0.80101606290629  0.87292791439144
 1  12.76615993489349 -1.36263442464246 -1.44019168676868
 1  12.63142689518952  0.28106879787979 -1.61047440874087
 1  13.74125556225623  0.76848940494049  0.67943528652865
 1  13.93270602370237 -0.93344294899490  1.00661717821782
 1  15.52447573607361  0.59936942194219 -1.31603596159616
 1  15.66136357925793 -2.46942723482348 -0.26323777767777
 1  14.95703875457546 -1.98476085168517 -1.88558597369737
 1  16.76148577797780 -1.74277980288029 -1.61024249374938
 1  15.99149435013501  1.06517435113511  1.06213275757576
 1  16.44077852505250 -0.33799297439744  1.37176993819382
 1  18.09185012371237 -0.50067661506151 -0.60293363376338
 1  17.66929399389939  1.28512583148315 -1.07087066286629
 1  18.48218901150115  2.33021717941794  0.94725273057306
 1  18.89198635893590  0.83770795179518  1.70200020032003
 1  20.52640755345535  0.44120026822682 -0.24493742974297
 1  19.80150425702570  3.32754631653165 -0.96523011641164
 1  21.25803005510551  2.46451310411041 -1.78447981128113
 1  19.70204410881088  1.88665047584758 -2.03069003800380
 1  21.25045102030203  1.17346545564556  1.84152376957696
 1  22.11975368166816  2.35121635133513  0.69983494979498
 1  20.54362409230923  2.91742182548255  1.56284672517252
=======
12 -7.19960053305330  0.61567031513151 -0.05279759235924
 6 -4.87110172817282 -1.88205938433843  0.53001953465347
 6 -4.77885781468147  2.96820526782678  1.17245361026103
 6 -9.47221195669567  3.05341083658366 -0.49268212791279
 6 -9.50645095879588 -1.75433094409441 -1.00358678777878
 7 -5.13021644624462  0.55283510161016  0.60978139643964
 6 -4.38782848894890 -0.60795061706171  0.78587661086109
 6 -3.03833283868387 -0.32129155485549  1.29367972217222
 6 -3.04345778417842  1.19979264756476  1.64788551925193
 6 -4.47046404130413  1.56841759055906  1.10273730363036
 6 -3.01418650075008  1.38439072717272  3.22040344924492
 6 -1.88060152115212 -0.61594685608561  0.22675663396340
 6 -0.41315873847385 -0.43682803000300  0.64938906820682
 6  0.61915305250525 -0.64714822772277 -0.49686506700670
 8  0.30755199529953 -1.06676208380838 -1.54891122282228
 8  1.92132394289429 -0.44351174757476 -0.04560134903490
 7 -7.15569601750175  2.63387897769777  0.28995769126913
 6 -6.08687796679668  3.46373734953495  0.69939347294729
 6 -6.53872112521252  4.79320360976098  0.84664535173517
 6 -7.78811151815182  4.84598523002300  0.39470786208621
 6 -8.23435770737074  3.53147234253425 -0.02054950865087
 6 -5.57477543424342  6.00117258315832  1.09589434993499
 6 -8.66211400900090  5.99096012971297  0.22164915031503
 6 -8.71395528682868  7.07900401900190  0.92518876867687
 7 -9.03846611921192  0.62776563766377 -0.64400843454345
 6 -9.76884314401440  1.77059701280128 -0.74456078017802
 6 -11.20590968756876  1.41930026912691 -1.16208792829283
 6 -11.18068047194719 -0.01664630053005 -1.27304601860186
 6 -9.89958563926393 -0.40971294559456 -0.95762077817782
 6 -12.32075089878988  2.38072864386439 -1.25045181998200
 6 -12.28851339763976 -0.80344775487549 -1.67969877837784
 6 -12.38966645504551 -1.10792320352035 -3.29329444804480
 7 -7.24952442074208 -1.43405301890189 -0.19970464746475
 6 -8.33283352315232 -2.25610078217822 -0.62364731993199
 6 -7.82363850945095 -3.59996826432643 -0.59178645594559
 6 -6.46350023412341 -3.51555589258926 -0.13019475137514
 6 -6.21175377177718 -2.18264654595460  0.02430523472347
 6 -8.45344281168117 -4.86591943434343 -1.02588106650665
 6 -5.27218168846885 -4.36040992449245  0.17595046764676
 8 -5.07720655855586 -5.49239372277228  0.14749177987799
 6 -4.14097767716772 -3.20525631543154  0.61624148944895
 6 -3.59163979487949 -3.63307852915292  1.93255362826283
 8 -4.03228482908291 -3.15256199239924  3.09020170127013
 8 -2.61206239993999 -4.51854657705771  1.85830441134113
 6 -2.33013360126013 -5.12120634973497  3.05067000250025
 6  2.81922443414341 -0.79012680728073 -1.04712591299130
 6  4.16706879587959 -0.53361153745375 -0.51145129412941
 6  5.23057654205421  0.24554081948195 -0.87844761746175
 6  5.15225364836484  1.19996264556456 -2.08107227252725
 6  6.44760909370937  0.25985783598360 -0.05848233343334
 6  7.64071160906091 -0.20177052395240 -0.85440239073907
 6  8.88247011961196 -0.26806193659366  0.06949513671367
 6  10.21643226772677 -0.59364643634363 -0.82045301580158
 6  10.19765646584658 -2.00498143424342 -1.44395786078608
 6  11.54573745064507 -0.49651343214321  0.06131700030003
 6  12.79119402710271 -0.52602665376538 -0.74084410731073
 6  13.98253772217222 -0.14908611141114  0.13368043554355
 6  15.41175730063006 -0.16108983808381 -0.52924116391639
 6  15.64400606950695 -1.58652628642864 -1.14249386708671
 6  16.50766487238724  0.35966032603260  0.37244175137514
 6  17.78288287768777  0.58530992939294 -0.34399021362136
 6  18.85580595009501  1.12735095209521  0.64062449544955
 6  20.33647231643164  1.39387972147215  0.18535329852985
 6  20.39281063486349  2.18164646184619 -1.12658365106511
 6  21.18769970077008  1.95880881718172  1.23567893129313
 1 -3.96949843434344  3.53955947734774  1.73700828772877
 1 -10.21986237893789  3.86292712771277 -0.66582197369737
 1 -10.20688397779778 -2.55055439623962 -1.24671132333233
 1 -2.74904136103610 -1.12446075997600  2.19970066126613
 1 -2.16454005920592  1.74056763936394  1.22846349674968
 1 -2.20235469296930  0.96160661356136  3.78748246174617
 1 -3.31930699069907  2.30027408490849  3.73123528892889
 1 -3.80156359905991  0.37523220722072  3.35581799459946
 1 -1.93664614951495 -1.61942190259026  0.02568865966597
 1 -2.12220389288929 -0.05284803440344 -0.60952099169917
 1 -0.28764228162816  0.51928654255426  1.03432383148315
 1 -0.34406220822082 -1.00994550975098  1.45423937913791
 1 -5.90967974337434  6.87968661276128  0.53252896209621
 1 -5.55507249664967  5.97473083618362  2.08691498859886
 1 -4.51432538853885  5.81994316071607  0.93494667026703
 1 -9.37547960046005  6.08860500860086 -0.70634086228623
 1 -9.58054927082708  7.81608234713471  0.85307492929293
 1 -8.14856432223222  7.40619701920192  1.68735712121212
 1 -12.18366247134714  3.00688101410141 -2.12715572027203
 1 -13.12152182138214  1.67684157535754 -1.28137932943294
 1 -12.41941367246725  2.92731138583858 -0.20480172417242
 1 -12.42208698709871 -1.78777822292229 -1.07860281518152
 1 -13.28210692959296 -0.36316305310531 -1.48974450195020
 1 -13.45544189678968 -1.65251993819382 -3.50056994149415
 1 -12.31377494169417 -0.15831036863686 -3.89335283098310
 1 -11.59427570687069 -1.82136700380038 -3.70042866286629
 1 -8.89060866386639 -4.93902464536454 -2.15073833793379
 1 -8.02630199499950 -5.84433443764376 -0.96072568556856
 1 -9.33139302420242 -4.98544356565657 -0.54401622422242
 1 -3.52361305720572 -3.10227347804780 -0.13080835233523
 1 -1.94691285778578 -4.31272771247125  3.73496641194119
 1 -3.21536114471447 -5.66260787838784  3.52926576547655
 1 -1.75813392489249 -6.07067634083408  2.78642259515952
 1  2.62535183928393 -1.90618245414541 -1.24689865486549
 1  2.68598607620762 -0.29250497089709 -1.99455260746075
 1  4.45752665826583 -1.34267648284828  0.22803601960196
 1  4.04942390589059  0.91443015341534 -2.64411278097810
 1  5.02351776347635  2.38508876777678 -1.83190965916592
 1  6.17165447304730  1.14962607010701 -2.72950168116812
 1  6.66743880678068  1.23739773977398  0.22415505830583
 1  6.30896501590159 -0.34797283468347  0.89771948864887
 1  7.56003338803880 -1.11742097729773 -1.25178650225022
 1  7.79751218711871  0.53070627872787 -1.66139906350635
 1  9.09208125972597  0.74153203820382  0.40365799799980
 1  8.68349683838384 -1.05493099929993  0.85255311901190
 1  10.22108966036604  0.03550608830883 -1.69059394889489
 1  9.10573555905591 -2.13503147964797 -1.85630155495550
 1  10.93512606830683 -2.16999378327833 -2.36235047894790
 1  10.25274816081608 -2.77609955195520 -0.57018645834583
 1  11.47724540544054  0.64093632383238  0.33044453195320
 1  11.75349840324033 -1.10273623492349  0.77284790639064
 1  12.91010432933293 -1.65638379957996 -1.00289795739574
 1  12.88287203970397  0.14813550455046 -1.68604196549655
 1  13.71608304500450  1.06576913291329  0.30704804780478
 1  13.98345109820982 -0.81157076177618  1.14321083758376
 1  15.37148043654365  0.70821030603060 -1.36312067006701
 1  15.59975741864186 -2.20799109120912 -0.23573502740274
 1  15.03880693139314 -1.92866524212421 -1.88192560766077
 1  16.56233586298630 -1.79053457835784 -1.51029249874988
 1  16.34405960666066  1.29546738043804  0.77010355465547
 1  16.69239368656866 -0.20710988608861  1.17381014221422
 1  18.23770470917092 -0.36355290269027 -0.87659099949995
 1  17.70956802130213  1.45866318521852 -1.26489006480648
 1  18.79832062466247  2.20230438813881  1.21110911621162
 1  18.95878303860386  0.62619680068007  1.59366936723672
 1  20.60424533723372  0.35792194039404  0.01070813481348
 1  19.77804191079108  3.06821038293829 -0.96906049944994
 1  21.47345159725973  2.56635328812881 -1.21959332263226
 1  19.99385328972897  1.51042285308531 -2.15117208620862
 1  21.13091906710671  1.60857896699670  2.07201681888189
 1  22.29633133943394  2.12314354405441  0.95587055335534
 1  20.76855658555856  3.05246532983298  1.48905934643464
>>>>>>> 8e03b5b5abfc0030b3aa597dc0de36371bfbd096

