%nproc=4
%Mem=2GB
# td=(NStates=1) CAM-B3LYP/6-31G(d,p) 

TD

0 1
12 -7.21602217521752  0.63120186828683  0.08473616101610
 6 -4.80382500050005 -1.95259643804380  0.46844337703770
 6 -4.76188611751175  2.87685613291329  1.09142550745075
 6 -9.45678041354135  3.12443793929393 -0.48792165186519
 6 -9.57092740644064 -1.71945745674567 -0.81191762086209
 7 -5.23172659725973  0.46581639973997  0.71763218151815
 6 -4.36791649774978 -0.76096591859186  0.74737276047605
 6 -2.93793279867987 -0.36343576927693  1.23774412861286
 6 -3.12753619201920  1.00121278957896  1.61209193989399
 6 -4.44257125202520  1.49836058485849  1.17690472037204
 6 -3.02107718981898  1.41029331743174  3.13806521542154
 6 -1.96809027002700 -0.72564782618262  0.04777873617362
 6 -0.55039246184618 -0.39392373957396  0.42025615491549
 6  0.47923906110611 -0.67583109600960 -0.59074445494549
 8  0.20518175827583 -0.99080448804880 -1.76702303400340
 8  1.72415422592259 -0.53881127752775 -0.20247703660366
 7 -7.03349379727973  2.59750534033403  0.23756245174517
 6 -6.00856013501350  3.38512948874888  0.66056959055906
 6 -6.44321157425743  4.75761005040504  0.66097678487849
 6 -7.64566727372737  4.87199783128313  0.10369876117612
 6 -8.08551282288229  3.48757795309531 -0.02914036773677
 6 -5.42204016071607  5.91158362426243  1.07238199869987
 6 -8.50193799139914  5.97749878357836  0.17133411881188
 6 -8.36556044734474  7.14701081968197  0.83587983778378
 7 -9.13091536413641  0.67237009810981 -0.41720575427543
 6 -9.86114237393739  1.77369732283228 -0.68409473357336
 6 -11.22200129672967  1.43404174327433 -1.10082180168017
 6 -11.28174057795779  0.15054041814181 -1.13779249324932
 6 -9.99691537223722 -0.43665563986399 -0.77554257035704
 6 -12.35431425512551  2.48511908290829 -1.19761653645365
 6 -12.38974352065206 -0.71239864996500 -1.75044585308531
 6 -12.18940642904290 -1.08219063026303 -3.20266538513851
 7 -7.30363983228323 -1.41822143574357 -0.11802647964796
 6 -8.24234447424742 -2.28300347244724 -0.45251020622062
 6 -7.87568371397140 -3.58517678517852 -0.36110338763876
 6 -6.53889777387739 -3.59066340334033 -0.02979471137114
 6 -6.17786038243824 -2.23516179747975  0.07439024322432
 6 -8.58669613701370 -4.77401024342434 -0.69138761716172
 6 -5.26430090039004 -4.35274915841584  0.25137801040104
 8 -5.10394923282328 -5.49534401780178  0.28650568126813
 6 -4.14090767016702 -3.35922171197120  0.53094295959596
 6 -3.43212384328433 -3.63310853215322  1.84190456335634
 8 -3.58634023462346 -3.17907464366437  2.98664134523452
 8 -2.54838603230323 -4.67330205260526  1.62595117601760
 6 -2.09427001490149 -5.26666089518952  2.91022595809581
 6  2.78550106180618 -0.62893068766877 -1.10974217461746
 6  4.05954804380438 -0.48526670297030 -0.52918306730673
 6  5.02098558295830  0.36738300370037 -0.99306907960796
 6  5.11853027602760  1.25171782108211 -2.22308647394739
 6  6.44017835063506  0.24964681488149 -0.17316380158016
 6  7.61801933983398 -0.20606095299530 -1.05076202670267
 6  8.90587245984599 -0.13662879327933 -0.17536934973497
 6  10.18963958845885 -0.50975804750475 -0.90302127262726
 6  10.11220792099210 -2.00596153225323 -1.43604706970697
 6  11.43227610451045 -0.31819560036004 -0.01498062946295
 6  12.79862477017702 -0.49555360646065 -0.78549857275728
 6  14.00957042544254 -0.14833603640364  0.13594066156616
 6  15.41906803170317 -0.16896062516252 -0.50795903570357
 6  15.72685435433543 -1.58599623342334 -1.18071768946895
 6  16.50036414231423  0.30710507050705  0.46465097229723
 6  17.76913150255026  0.46569796819682 -0.13664947954795
 6  18.65205557505751  1.31565978297830  0.82269270227023
 6  20.19445811501150  1.38620895439544  0.45767053025303
 6  20.35086644044404  2.13528182538254 -0.90363135583558
 6  21.04461539233924  2.02949588588859  1.46643200660066
 1 -4.09385086958696  3.41039656105611  1.47591217811781
 1 -10.08661905460546  4.01458229322932 -0.81592698419842
 1 -10.45680897029703 -2.37202654345435 -1.01089774197420
 1 -2.61148760566057 -1.06789510341034  2.18590928212821
 1 -2.33765737093709  1.75527911051105  1.11412206260626
 1 -2.10694515201520  1.17216766966697  3.49875358885889
 1 -3.12331739173917  2.50284434193419  3.40169233463346
 1 -3.66792023472347  0.81915659965997  3.67274968776878
 1 -2.20695318021802 -1.74920488088809 -0.17566147534753
 1 -2.40439211171117 -0.14960771037104 -0.76781682128213
 1 -0.46386990439044  0.68443305720572  0.80472087118712
 1 -0.12621042304230 -0.93887840304030  1.40320427562756
 1 -5.56708548394839  6.87707635173517  0.69524523372337
 1 -5.74961195059506  6.08716207930793  2.20246654375438
 1 -4.49080303630363  5.71129229562956  0.85621879747975
 1 -9.31283333583358  5.85977212531253 -0.56494672287229
 1 -9.04198541444144  8.03819455835584  0.83089271107111
 1 -7.57752721852185  7.27858425792579  1.62123050855085
 1 -12.07094119921992  3.26275660166017 -2.01667467216722
 1 -13.31195086428643  2.04133802500250 -1.54199539103910
 1 -12.40021175227523  3.03719237393739 -0.11831307530753
 1 -12.40854563296330 -1.53357280238024 -1.05798075297530
 1 -13.33119183808381 -0.24947168396840 -1.55808133563356
 1 -13.11391774437444 -1.91756644284428 -3.46309619411941
 1 -12.32468603280328 -0.08057259485949 -3.87186068176818
 1 -11.25034131343134 -1.68396326342634 -3.45136375637564
 1 -8.98021762476248 -4.93717446034604 -1.58162142624262
 1 -7.85140450525052 -5.60544054825483 -0.65771538453845
 1 -9.32089197409741 -4.87263228452845 -0.20329215181518
 1 -3.31824252015202 -3.59839309000900 -0.09523479497950
 1 -1.40693886038604 -4.37352379207921  3.41332424772477
 1 -2.84112372097210 -5.60147176477648  3.44207704660466
 1 -1.36106421792179 -6.05926519971997  2.72374632753275
 1  2.68719802390239 -1.68117995389539 -1.72316628162816
 1  2.54936241384138  0.12475675527553 -1.92986613881388
 1  4.36418732433243 -1.03650586578658  0.43383659965997
 1  4.08834779827983  1.43968267866787 -2.65121349104911
 1  5.51164657635764  2.23375363426343 -2.06265273347335
 1  5.67137444504450  0.72498360586059 -3.18854758575858
 1  6.59335139803980  1.33144714471447  0.32068471127113
 1  6.49197331673167 -0.33115115251525  0.72493220992099
 1  7.39163654835484 -1.26018525372537 -1.21930325392539
 1  7.80374281018102  0.24716792489249 -1.98282120572057
 1  8.99011106270627  1.02802068706871  0.19797742994299
 1  8.76913540224022 -0.67926343254325  0.66342420612061
 1  10.35662321372137  0.15326786448645 -1.77417230673067
 1  9.16375136063606 -2.06243421992199 -1.91725765056506
 1  10.83442599829983 -2.32814959885989 -2.02110635453545
 1  9.99850273627363 -2.56500844284428 -0.67053649334933
 1  11.59312699359936  0.67789001920192  0.45751723922392
 1  11.47157021042104 -1.07415337663766  0.73779440104010
 1  13.07888120702070 -1.52766092729273 -1.28416608420842
 1  12.86951070357036  0.18112880388039 -1.66462982428243
 1  13.78537997469747  0.82779533553355  0.51580892389239
 1  13.79279203230323 -0.98492809750975  1.06374289078908
 1  15.46705999449945  0.62826231123112 -1.32928728672867
 1  15.87567501040104 -2.42464275637564 -0.33460491439144
 1  14.82958600930093 -1.69497187278728 -1.87311472657266
 1  16.48637826722672 -1.69768529342934 -1.81338280778078
 1  16.15252045274528  1.30442827652765  1.09102564686469
 1  16.38415286248625 -0.33135231033103  1.26164892609261
 1  18.30868180688069 -0.51204775217522 -0.26181952235224
 1  18.03161022552256  0.71431875077508 -1.27564113991399
 1  18.18002879547955  2.19812397009701  0.90437844314431
 1  18.52190935123512  0.88358253925393  1.76380638093809
 1  20.73985889858986  0.43506965516552  0.41745880988099
 1  19.71253536013601  3.02705626752675 -0.81581517491749
 1  21.45053930603060  2.28648530133013 -1.22321368466847
 1  19.91872577697770  1.59585139593959 -1.80694766376638
 1  20.85202117731773  1.72969107820782  2.37661727892789
 1  22.10408211451145  2.03231446114611  1.29575454175418
 1  20.71959168906891  3.11384146744674  1.66036647714771

