%nproc=4
%Mem=3GB
# td=(NStates=1) iop(3/107=0140000000,3/108=0140000000) CAM-B3LYP/6-31G(d,p) 

TD

0 1
12 -7.19497418911891  0.55450383388339  0.08459482948295
 6 -4.91744056055606 -1.96262349294929  0.51663706610661
 6 -4.76425245584558  2.80832955085509  1.05348545374537
 6 -9.36989375387539  3.13877143014301 -0.40473294859486
 6 -9.48233433143314 -1.67842960866087 -0.95618242314231
 7 -5.08458548974898  0.38166425702570  0.52053987798780
 6 -4.26317856515652 -0.73611475467547  0.80869876457646
 6 -2.88403462406241 -0.43467186518652  1.21325699479948
 6 -3.01572479937994  1.03866256785679  1.58931521082108
 6 -4.37585782048205  1.57567221832183  1.07729212311231
 6 -2.93528970977098  1.24463728302830  3.07466278087809
 6 -1.85532126182618 -0.62519850905091  0.02108591889189
 6 -0.42775848504850 -0.54019726772677  0.60875425772577
 6  0.57672959615962 -0.69890651255126 -0.59318910901090
 8  0.24594481128113 -0.93679745744574 -1.73585097819782
 8  1.83484208260826 -0.45917585598560 -0.26901228882888
 7 -7.02350999439944  2.64306751665167  0.31030195429543
 6 -6.06253639743974  3.34704847224722  0.74176005210521
 6 -6.44812972137214  4.79441630523052  0.75727398609861
 6 -7.69502428772877  4.82517432263226  0.36521264766477
 6 -8.07634716221622  3.49340627942794  0.04007200580058
 6 -5.62021405530553  5.90244971867187  1.34772492769277
 6 -8.50223023102310  5.99570984058406  0.21682229472947
 6 -8.38782719271927  7.19157830753075  0.75144920422042
 7 -9.11688072917292  0.69451644604460 -0.45966254015402
 6 -9.73987147344734  1.86936026032603 -0.70421323482348
 6 -11.10911486418642  1.52487193169317 -1.14345920562056
 6 -11.18833832103210  0.24081162696270 -1.20546057435744
 6 -9.86724432803280 -0.31558175157516 -0.90013221452145
 6 -12.21018195589559  2.61444668606861 -1.42411186388639
 6 -12.38830262316232 -0.71127725152515 -1.76235556615662
 6 -12.33890579947995 -1.10335052735274 -3.19430008120812
 7 -7.22514547694769 -1.36711154685469  0.01948927382738
 6 -8.27358168446845 -2.15479402490249 -0.47618919881988
 6 -7.91717375717572 -3.55162571397140 -0.41474177397740
 6 -6.55504329482948 -3.51973495559556 -0.10442252395240
 6 -6.18506223792379 -2.15983393919392  0.19361119651965
 6 -8.71890422992299 -4.73423952235223 -0.69510289338934
 6 -5.35071053395339 -4.35345890929093  0.15606058015802
 8 -5.27702869516952 -5.59088594559456  0.13827977657766
 6 -4.18636313891389 -3.40754820222022  0.51004932653265
 6 -3.70420459725973 -3.73475141784178  1.85221118961896
 8 -3.72837562096210 -3.18689604750475  2.91178453665367
 8 -2.85611096389639 -4.82991160966097  1.75976501400140
 6 -2.29049800680068 -5.42832803870387  2.93390079047905
 6  2.82108842924292 -0.63768205710571 -1.21322483968397
 6  4.10184106930693 -0.44301956985699 -0.52265482828283
 6  5.16325181648165  0.28909543754375 -0.97058993599360
 6  5.16553027862786  1.08549622492249 -2.21063519851985
 6  6.44998127682768  0.35563617961796 -0.15785631003100
 6  7.58633008560856 -0.24690323832383 -0.98201853055306
 6  8.93102081368137 -0.24764658075808 -0.07800390279028
 6  10.17539299989999 -0.61806346954695 -0.78413413341334
 6  10.15490876747675 -2.00792867276728 -1.25985295129513
 6  11.47607227102710 -0.37779267036704  0.00336237373737
 6  12.80005774127413 -0.53930396389639 -0.63700120522052
 6  13.96418769056906 -0.13096881118112  0.31678809040904
 6  15.23971996299630 -0.15284436803680 -0.52446809930993
 6  15.75580185118512 -1.58976736503650 -0.97027885418542
 6  16.37417441014102  0.39075559285929  0.44176891159116
 6  17.76000358805881  0.57187091669167 -0.22471899889989
 6  18.80412083068307  1.32012009050905  0.69241249794979
 6  20.23591639603961  1.48727816031603  0.16451315731573
 6  20.37722056785679  2.14872217731773 -1.12152684858486
 6  21.02357742474247  2.09583128302830  1.31594553455346
 1 -4.19065942944294  3.51539479087909  1.42389848564857
 1 -10.15605772907291  3.82908518301830 -0.29713423962396
 1 -10.27958238233823 -2.20272580768077 -1.43775159455946
 1 -2.53307059425943 -1.06884708740874  2.08009450015002
 1 -2.34493796009601  1.67780984208421  1.29422307130713
 1 -2.07091017741774  0.81251035743574  3.25924626202620
 1 -2.85129223832383  2.35788501130113  3.21933995619562
 1 -3.66841964246425  0.56555170947095  3.64847653285329
 1 -2.09442456145615 -1.63846451725173 -0.59958796589659
 1 -2.08881525052505  0.22610022982298 -0.73300003460346
 1 -0.09884531323132  0.33030261756176  1.01284514751475
 1 -0.46346476677668 -1.51553231983198  1.30779423772377
 1 -5.49910408810881  6.57127463946395  0.50421025232523
 1 -6.18418989028903  6.31585446684669  2.31522353485348
 1 -4.38658350295030  5.64674894289429  1.46978771137114
 1 -9.38449870967097  6.01236461846185 -0.37433878657866
 1 -9.19288835253525  8.18635835683568  0.33391316701670
 1 -7.45300323242324  7.46942377877788  1.25868482878288
 1 -11.86370684368437  3.19312845994599 -2.24501033253325
 1 -13.19319661736174  2.17913665606561 -1.71249697789779
 1 -12.29173020572057  3.10060739483948 -0.56056649614962
 1 -12.45341730663066 -1.57228815161516 -0.99789329022902
 1 -13.33072537163716 -0.05255796629663 -1.53276903130313
 1 -12.96014121332133 -2.01144480658066 -3.33805476357636
 1 -12.53774418011801 -0.17278574987499 -3.85998497689769
 1 -11.21470631003100 -1.43818484568457 -3.34732301050105
 1 -9.22833745234523 -4.72400890169017 -1.69869593259326
 1 -8.21906629182918 -5.76823277657766 -0.46256621172117
 1 -9.71640581958196 -4.77506595499550  0.02920065136514
 1 -3.29745726422642 -3.52751935753575 -0.19533727182718
 1 -1.61336472407241 -4.66976919031903  3.38495021262126
 1 -3.14602103940394 -5.61556108100810  3.58595963366337
 1 -1.56686720722072 -6.43312409720972  2.82997635873587
 1  2.72597065186519 -1.66273289608961 -1.34405585428543
 1  2.54816125742574 -0.07621953715372 -2.18614967246725
 1  3.94949543624363 -1.03382179597960  0.35007640784078
 1  4.20829614111411  1.34503004570457 -2.55958644434443
 1  5.67316424862486  2.16527695159516 -1.76198363676368
 1  5.51469103760376  0.64673586448645 -3.01894815171517
 1  6.86770495439544  1.20127010761076  0.20045965986599
 1  6.39398727082708 -0.23942127882788  0.80911710721072
 1  7.52231435423542 -1.15783645664566 -1.37628238543854
 1  7.89047160566057  0.16068517151715 -1.92028285118512
 1  8.91121716601660  0.78880837833783  0.45307773587359
 1  8.85353847464747 -0.96805515821582  0.81137726112611
 1  10.33374800660066  0.10114626242624 -1.61674683268327
 1  9.19623923302330 -2.43851213471347 -1.84181256315632
 1  11.03888302890289 -2.28156155545555 -1.73849920802080
 1  10.15103730083008 -2.64964907960796 -0.50250764446445
 1  11.36742838443844  0.59654608800880  0.43137090789079
 1  11.39158675417542 -1.09928122572257  0.75948226832683
 1  12.88549650215022 -1.53469088838884 -0.86163843534353
 1  12.99074490439044 -0.07965302930293 -1.60428476217622
 1  13.63456487678768  0.96306166946695  0.41022585128513
 1  14.00990930153015 -0.64692107100710  1.25863823782378
 1  15.23393379477948  0.57916131313131 -1.36885815461546
 1  15.78013180998100 -2.13718305950595  0.05749761426143
 1  14.97975962036204 -2.05647016701670 -1.71086245974597
 1  16.72199047864786 -1.56393729072907 -1.35109162246225
 1  15.88008128162816  1.34462279597960  0.70096601290129
 1  16.32637671547155 -0.42274855965596  1.18589708440844
 1  18.26960369806981 -0.24191070507051 -0.48378857445745
 1  17.66324363396340  1.41228012211221 -0.97797354095410
 1  18.46247530443044  2.34532580058006  0.81232317911791
 1  18.85916187868787  0.96544138363836  1.78148139363936
 1  20.74989482178218  0.66353735133513  0.01530742294229
 1  19.85700251875188  3.22901367786779 -1.00640282498250
 1  21.42219602040204  2.35256639873987 -1.21615959715972
 1  19.80467886548655  1.47800809100910 -1.83979236363636
 1  20.86961081458146  1.42648828972897  2.15315898469847
 1  22.02851074387439  1.91447191789179  0.97278393199320
 1  20.71693177167717  3.08679479667967  1.53389052575258

