%nproc=4
%Mem=2GB
# td=(NStates=1) CAM-B3LYP/6-31G(d,p) 

TD

0 1
12 -7.15181575457546  0.61650039813981  0.12820050745075
 6 -4.91579619761976 -1.90489166756676  0.61165769846985
 6 -4.77692762166217  2.79750819811981  1.04362072697270
 6 -9.30633536903690  3.11792728822882 -0.34273713341334
 6 -9.54509482318232 -1.63936944794479 -0.88897532663266
 7 -5.04279770437044  0.45624544264426  0.76336675497550
 6 -4.37181688778878 -0.67969779177918  0.73121114431443
 6 -2.89549855525553 -0.43020244594459  1.25597595179518
 6 -3.00282372077208  1.09639230753075  1.62132286298630
 6 -4.38666566146615  1.46307705650565  1.12015904580458
 6 -2.98843392549255  1.12964525262526  3.22308371727173
 6 -1.87841130213021 -0.68863412481248  0.16860081838184
 6 -0.51391881448145 -0.53077742494249  0.59067319661966
 6  0.50646178337834 -0.64802831573157 -0.55397077757776
 8  0.13494473457346 -1.09266467406741 -1.59942627432743
 8  1.79081089158916 -0.37812520892089 -0.13978076697670
 7 -7.05455590349035  2.65127071687169  0.25135383088309
 6 -6.03656293529353  3.40695167096710  0.62196573017302
 6 -6.37233448654865  4.79695398479848  0.69491017821782
 6 -7.75603831083108  4.91360199169917  0.34557294859486
 6 -8.07726199779978  3.48967816311631  0.02664521082108
 6 -5.49669762646265  5.87727019291929  1.09908466896690
 6 -8.56592439003900  6.03442447614762  0.11957894329433
 6 -8.30209410071007  7.22281840044004  0.79228547834783
 7 -9.09220149274928  0.66660952205221 -0.47575160886089
 6 -9.84111037073707  1.82260221332133 -0.66929325342534
 6 -11.15815491209121  1.47614595369537 -1.14693641314131
 6 -11.22033443734373  0.08956432053205 -1.32034074807481
 6 -9.89180486118612 -0.35216719101910 -0.91397641374137
 6 -12.23913273697370  2.52219279027903 -1.41654842964296
 6 -12.31697624392439 -0.77958536863686 -1.80281108960896
 6 -12.24736222462246 -1.15062747394739 -3.31910702930293
 7 -7.31202067036704 -1.41282089568957  0.00065538853885
 6 -8.32490273007301 -2.20828600070007 -0.47033198839884
 6 -7.84841098669867 -3.61624989248925 -0.48268554585459
 6 -6.53745762986299 -3.60702503950395 -0.17567929982998
 6 -6.23891648804880 -2.22996127742774  0.17503030723072
 6 -8.63830129752975 -4.85838868126813 -0.82953143154315
 6 -5.30906537683768 -4.45695957945795  0.21439431203120
 8 -5.12382122002200 -5.62542702610261  0.13119014971497
 6 -4.15985956535654 -3.35447123692369  0.65910577587759
 6 -3.50441107200720 -3.70090531183118  1.99086945984598
 8 -3.79446104670467 -3.09062579877988  3.03725640674067
 8 -2.86515770947095 -4.81505622802280  1.74892347324732
 6 -2.18050863876388 -5.26930115921592  2.96317125262526
 6  2.76878939063906 -0.60481827642764 -1.17684888528853
 6  4.09313140214021 -0.39017719401940 -0.57208735773577
 6  5.10982446684668  0.39636590199020 -0.96523629632963
 6  5.07758618161816  1.29359200850085 -2.15244941024102
 6  6.36669100190019  0.36381823202320 -0.17385387058706
 6  7.62444998289829 -0.07004735163516 -0.96663361386139
 6  8.95427730033003 -0.09906503690369 -0.22448426122612
 6  10.29387001150115 -0.57680475217522 -0.90461143164316
 6  10.04876157635763 -2.09524046014601 -1.42299576457646
 6  11.42648552545255 -0.49214299509951  0.03974484308431
 6  12.75932083978398 -0.49751380248025 -0.63928395129513
 6  13.93456292469247  0.04290308750875  0.14420148764876
 6  15.27347347224723 -0.13329705880588 -0.58826706650665
 6  15.65078674757476 -1.66060369416942 -0.85597521522152
 6  16.31754586048605  0.45484984498450  0.29171367856786
 6  17.84358894829483  0.58662006040604 -0.24157997259726
 6  18.76293666316632  1.38027624462446  0.76773720672067
 6  20.23271194039404  1.32277261076108  0.24273903710371
 6  20.44242559635964  2.12360065726573 -0.99110010271027
 6  21.18783971477148  1.96395933223322  1.34146951035104
 1 -4.23871535603560  3.59872539393939  1.33060764766477
 1 -10.10903129582958  3.81483231823182 -0.59320471197120
 1 -10.15139842924292 -2.22068140894089 -1.53706035823582
 1 -2.83872032893289 -1.23214152805280  2.03926461766177
 1 -2.08157176237624  1.63294687728773  1.24906555695569
 1 -2.09150360786079  0.82341279417942  3.62826654015402
 1 -3.14335939593959  2.19516357385739  3.53139530493049
 1 -3.76956039873987  0.59068375237524  3.60851326412641
 1 -2.08278076297630 -1.73387334773477 -0.17178108730873
 1 -2.09528120062006 -0.15360811041104 -0.79660970057006
 1 -0.40451396879688  0.61132574647465  1.12716311541154
 1 -0.05910371237124 -1.33259777497750  1.25586954215421
 1 -5.92936171157116  6.77750639473947  0.77266297549755
 1 -5.36016300570057  5.99282264536454  2.26215251235123
 1 -4.37376133213321  5.70898206460646  0.73396657225723
 1 -9.61636368886889  5.93600974907491 -0.53376360456046
 1 -8.76442765866587  8.24986572547255  0.53240286208621
 1 -7.68719818561856  7.29896629612961  1.44259264476448
 1 -12.04463856895690  3.08567889388939 -2.32744574927493
 1 -13.23628329752975  2.14542843404340 -1.52931412291229
 1 -12.36246797789779  3.15702435713571 -0.68611985598560
 1 -12.32233701210121 -1.67664710981098 -1.00863581848185
 1 -13.31382010091009 -0.43496023282328 -1.83441896939694
 1 -12.88504485708571 -1.96430111631163 -3.56801668616862
 1 -12.38547211141114 -0.27592212981298 -3.86872036773677
 1 -11.28927520682068 -1.77117198429843 -3.58566718671867
 1 -9.10849045204520 -4.78232897579758 -1.97223048714872
 1 -7.88096746154615 -5.71817182138214 -1.23517313031303
 1 -9.25705559045905 -5.37564258555856 -0.00403222582258
 1 -3.55791648754875 -3.18701195189519 -0.27064233573357
 1 -1.40829899639964 -4.37917435713571  3.30534344964496
 1 -2.91168077667767 -5.37651926952695  3.77597043594359
 1 -1.55842395389539 -6.23826309950995  2.82372632553255
 1  2.67890719481948 -1.47701953785378 -1.75868983398340
 1  2.69838731633163  0.12356663626363 -1.98995214741474
 1  4.11318222382238 -0.82630484568457  0.55060827682768
 1  4.15240420392039  1.30101881228123 -2.79996836653665
 1  5.12549796149615  2.36578683758376 -1.70891735993599
 1  5.91055836343634  1.13098420592059 -2.84400313131313
 1  6.59887195009501  1.36096009600960  0.36079872267227
 1  6.43995811521152 -0.14019205660566  0.90467018371837
 1  7.47349473417342 -1.07791702690269 -1.34866619021902
 1  7.89979241514151  0.43801700980098 -1.78256117971797
 1  9.00826287788779  0.88410629562956  0.17690532273227
 1  8.66109459815982 -0.74078958515852  0.62466032973297
 1  10.48123567496750 -0.20404786708671 -1.93163805330533
 1  8.96149113461346 -2.17894587108711 -1.97062298709871
 1  10.71855441114111 -2.10730751465147 -2.20838508240824
 1  9.96238912491249 -2.91454339633963 -0.70201964166417
 1  11.44971265216522  0.55324755495550  0.74129561706171
 1  11.45852890629063 -1.16247220852085  0.93982460406041
 1  13.21631495039504 -1.56586474767477 -1.11319898749875
 1  12.75937969046905  0.08388907990799 -1.64441780308031
 1  13.75422685938594  1.05973852985299  0.11097844084408
 1  14.05274802790279 -0.51910151485149  1.12586910341034
 1  15.31408469696970  0.41678116311631 -1.66017037503750
 1  15.39918736163616 -2.25512580468047 -0.02708416231623
 1  15.14560761146115 -2.00089246484648 -1.69465688078808
 1  16.83786341574158 -1.81840736563656 -1.25350682018202
 1  16.08675387608761  1.51241907560756  0.50895744004400
 1  16.33234768196819 -0.15831500660066  1.34531729292929
 1  18.19881081978198 -0.37742428982898 -0.39656299669967
 1  17.86054311881188  0.93069038793879 -1.28746232203220
 1  18.44905569816982  2.41345550325033  1.02381038633863
 1  18.72241940224022  0.79525370637064  1.62262226252625
 1  20.76368128082808  0.30488663686369  0.11141820582058
 1  20.05368947554755  3.09893345524552 -0.92380597399740
 1  21.45945019711971  2.13134978777878 -1.45442680598060
 1  19.91392529692969  1.67560937173717 -1.87537450645064
 1  21.13329930513051  1.47994610371037  2.27842745994599
 1  22.13997570387039  2.05415664536454  0.90611557785779
 1  21.09310904080408  2.85777586088609  1.55072551305130

