%nproc=4
%Mem=3GB
# td=(NStates=1) iop(3/107=0140000000,3/108=0140000000) CAM-B3LYP/6-31G(d,p) 

TD

0 1
12 -7.08913360506051  0.62405078857886  0.14771114111411
 6 -4.85782459895990 -2.01959919051905  0.54623002540254
 6 -4.73373940454045  2.86368508640864  1.10252035723572
 6 -9.38330509500950  3.06308386138614 -0.32878535383538
 6 -9.56608270627063 -1.74809657535754 -0.93809061396140
 7 -5.18800583178318  0.38773486408641  0.77120494449445
 6 -4.38087033433343 -0.74430557375738  0.82209010371037
 6 -2.96765298589859 -0.43585198319832  1.26330199929993
 6 -3.04294752165217  1.00250895249525  1.74442072137214
 6 -4.36851708640864  1.45589024012401  1.20852524642464
 6 -2.96449263006301  1.16047886718672  3.27381269586959
 6 -1.88894462416242 -0.63036902610261  0.11578538883888
 6 -0.44251996119612 -0.47458070607061  0.66019940224022
 6  0.52717464066407 -0.66803342524252 -0.51323111321132
 8  0.13078329512951 -1.07202097979798 -1.57481487458746
 8  1.81120971937194 -0.40833077147715 -0.20036542414241
 7 -7.06423406680668  2.65999920982098  0.29696062016202
 6 -6.04665480928093  3.43031679907991  0.75597147324732
 6 -6.49232414081408  4.80957782138214  0.87469572827283
 6 -7.80343512881288  4.90155196039604  0.35699182558256
 6 -8.07723725122512  3.54935187398740  0.08823682228223
 6 -5.48440047394740  5.85885535923592  1.11550170537054
 6 -8.59378938693869  6.18987925752575  0.21187179967997
 6 -8.29400781078108  7.41001015071507  0.77256131543154
 7 -9.15718475957596  0.61162815721572 -0.42747932183218
 6 -9.87076456275627  1.79770309460946 -0.71450426392639
 6 -11.24708866156616  1.49344878937894 -1.08073293299330
 6 -11.18774826202620  0.16914446024602 -1.32757278557856
 6 -9.89920752435244 -0.47863805720572 -0.87874007530753
 6 -12.29421035873587  2.62342758415842 -1.48524797749775
 6 -12.22093588648865 -0.75628175197520 -1.92237156775678
 6 -12.28596050495049 -0.90542073437344 -3.41610226142614
 7 -7.25857882028203 -1.40966580228023 -0.14744741984198
 6 -8.29969429572957 -2.27175572107211 -0.55632721262126
 6 -7.78309034883488 -3.65980653205321 -0.56047634743474
 6 -6.48958674917492 -3.50782376447645 -0.12709479117912
 6 -6.20455418711871 -2.21128908470847  0.07796963236324
 6 -8.58982132163216 -4.76201229962996 -0.89757314041404
 6 -5.33573903680368 -4.36126969036904  0.20263523762376
 8 -5.18310930323032 -5.58449530653065  0.18190413901390
 6 -4.09233373597360 -3.26367381478148  0.56732505410541
 6 -3.56188036483648 -3.66094403710371  1.86226219471947
 8 -3.78189097249725 -3.00806816471647  2.83455681388139
 8 -2.86732208500850 -4.85025364386439  1.82726176367637
 6 -2.31895085208521 -5.22157736363636  3.19842724312431
 6  2.83010933133313 -0.67801609050905 -1.28130164736474
 6  4.09577046224622 -0.54734000190019 -0.59387194999500
 6  5.15529102040204  0.26277280528053 -0.91392426942694
 6  5.19114283988399  1.12633030833083 -2.22997713271327
 6  6.44545082378238  0.25403601960196 -0.15500602500250
 6  7.69919137173717 -0.39465801380138 -1.02588291699170
 6  8.87043475507551 -0.33402521862186 -0.17867396979698
 6  10.18274373497350 -0.55357702090209 -0.89095481548155
 6  10.10817409400940 -2.07765564546455 -1.55426239223922
 6  11.44790945474547 -0.36363125422542 -0.00750871337134
 6  12.73511124662466 -0.48874890839084 -0.67182468756876
 6  13.90306157795779 -0.25966168046805  0.12412882448245
 6  15.39401539253925 -0.24863394699470 -0.45540119261926
 6  15.76016228722872 -1.70091848014801 -0.91038286458646
 6  16.45091208390839  0.43433995129513  0.48203293799380
 6  17.71725931363136  0.65004873447345 -0.28254478147815
 6  18.81196161476148  1.34584266276628  0.70409366606661
 6  20.27812061646165  1.44402383488349  0.21766847284728
 6  20.44180702650265  2.24062136723672 -1.04651934783478
 6  21.11149621662166  2.20614231413141  1.34797873787379
 1 -3.92018238173817  3.42801605300530  1.43605970177018
 1 -10.34652677597760  3.86338861336134 -0.47721224742474
 1 -10.27334175827583 -2.46244177927793 -1.15266308570857
 1 -2.53499078627863 -0.92978318101810  2.07310380108011
 1 -2.28975244154416  1.67694975607561  1.31917556655666
 1 -1.93423651005101  0.95905501190119  3.75574591199120
 1 -3.17224433353335  2.08054727752775  3.42150017221722
 1 -3.44397719821982  0.52367752205221  3.80822250745075
 1 -1.85405052405240 -1.54993566436644 -0.44012201930193
 1 -2.09489585858586  0.21420904070407 -0.55067180178018
 1 -0.30402583128313  0.61720130743074  1.05713957695770
 1 -0.25679409970997 -1.15414618121812  1.36256971527153
 1 -5.53608778647865  6.69077658965896  0.29127895919592
 1 -5.75794726602660  6.44390727212721  1.99370138263826
 1 -4.36181102570257  5.61283555155515  1.17237797039704
 1 -9.47039729952995  6.14199758175817 -0.48400975367537
 1 -8.98974803850385  8.08133785478548  0.52976275197520
 1 -7.67869580168017  7.38519535593559  1.78847780808081
 1 -11.90679115211521  3.40199934703470 -2.23295912741274
 1 -13.27725502320232  2.14219296169617 -1.81681740994099
 1 -12.41758279097910  3.05066240034003 -0.58828926842684
 1 -12.35533749864986 -1.73425434823482 -1.52685618651865
 1 -13.29519181828183 -0.39923263376338 -1.49928568296830
 1 -13.00586578577858 -1.71555521762176 -3.61075203330333
 1 -12.45603600930093  0.06177770647065 -3.97675665406541
 1 -11.44527936733673 -1.32103313051305 -3.58881715991599
 1 -8.83354797339734 -4.88518501930193 -2.01725778877888
 1 -8.23322770797080 -5.81938789208921 -0.63523347844784
 1 -9.81550572957296 -4.85698414681468 -0.60501276997700
 1 -3.27688520702070 -3.18677528312831 -0.10044778287829
 1 -1.94926831443144 -4.41231344474448  3.90123184078408
 1 -3.16753319061906 -5.69112863776378  3.59578061576158
 1 -1.55330585108511 -6.03607439223922  2.90888424952495
 1  2.53937199199920 -1.78906552935294 -1.68413986268627
 1  2.59305574687469 -0.01077299249925 -2.07911896939694
 1  4.18066855355536 -1.04674308810881  0.53143454365437
 1  4.11625693719372  1.08126366906691 -2.63165365106511
 1  5.37048398059806  2.24918534243424 -2.03025046344634
 1  5.60904047254725  0.58683987488749 -2.97809406630663
 1  6.48707689158916  1.23953393399340  0.16672628652865
 1  6.33780165226523 -0.20225756245625  0.69167536303630
 1  7.12527465026503 -1.51886255925593 -1.30383514071407
 1  7.72015457395740  0.20995009800980 -1.93182400530053
 1  8.83741978627863  0.69429892739274  0.43336576467647
 1  8.76266938773878 -1.19588794149415  0.60396652005201
 1  10.32670730253025  0.18177432523252 -1.70108526652665
 1  9.30415002410241 -1.94942322582258 -2.46148453035303
 1  11.19302844344434 -2.29630302960296 -2.01006636473647
 1  9.96435863296330 -2.75661977667767 -0.74949234293429
 1  11.13565520712071  0.52130856425643  0.44268203900390
 1  11.31551914741474 -1.28138943654365  0.94945126522652
 1  12.90214816731673 -1.52581000030003 -1.01200347184718
 1  12.62260809070907  0.16349128512851 -1.57611194489449
 1  13.69693111341134  0.72983834713471  0.57500232893289
 1  13.98161647224723 -0.87280365926593  1.09907228122812
 1  15.28401880328033  0.39448284528453 -1.40540180898090
 1  15.85910970777078 -2.60753009420942 -0.12109024452445
 1  14.88693033743374 -1.98976349634963 -1.41253262676268
 1  16.76299457905791 -1.57543844084408 -1.54310082338234
 1  15.95186846034603  1.44904323802380  0.63641955825583
 1  16.66771084888489 -0.22678896369637  1.28306680138014
 1  18.32840957865787 -0.34749126312631 -0.66616681228123
 1  17.71968927852785  1.34970386448645 -1.08652439603960
 1  18.53115217211721  2.39732100010001  0.63693564036404
 1  18.83158912141214  0.81127596709671  1.52121536703670
 1  20.68412824512452  0.47102810041004  0.12750864306431
 1  20.08239505800580  3.22545332183218 -0.83093527822782
 1  21.53444724552455  2.37907905000500 -1.42099008020802
 1  19.82504090169017  1.62440273047305 -1.76476486088609
 1  21.20786463996399  1.55174081498150  2.23552722152215
 1  22.27435532833283  2.55873634433443  1.03115976957696
 1  20.59588966746675  3.21385750295030  1.65877301400140

