%nproc=4
%Mem=2GB
# td=(NStates=1) CAM-B3LYP/6-31G(d,p) 

TD

0 1
12 -7.26227680068007  0.53535228332833  0.10682837023702
 6 -4.81478609660966 -1.92892407080708  0.36775330803080
 6 -4.79299922882288  2.81457990529053  1.12175854075408
 6 -9.39348408390839  3.07726322182218 -0.42310517021702
 6 -9.51964227792779 -1.74892040304030 -0.93473990309031
 7 -5.09502292689269  0.47295711381138  0.59599001730173
 6 -4.36915662176218 -0.62022184418442  0.61011903510351
 6 -2.90112911831183 -0.36722614831483  1.08075843004300
 6 -2.96788022642264  1.18669133743374  1.54678540924092
 6 -4.39596659155916  1.49294004280428  0.99436646654665
 6 -2.86030111221122  1.30344263236324  3.01188259715972
 6 -1.84068752975298 -0.58102336373637 -0.05601164286429
 6 -0.42240966356636 -0.49279362656266  0.41015514481448
 6  0.51872300950095 -0.71501501440144 -0.75528090859086
 8  0.25954719481948 -0.98215362296230 -1.89285561726173
 8  1.72959476997700 -0.49107650405041 -0.28538532743274
 7 -7.17509795769577  2.65947153695370  0.38109680518052
 6 -6.10747002600260  3.39182015781578  0.83462699629963
 6 -6.44018127122712  4.72548683808381  0.79378006520652
 6 -7.75932863986399  4.84843547504750  0.43025141644164
 6 -8.13839811141114  3.45997519281928  0.08225077137714
 6 -5.52807076377638  5.86480894679468  1.00079483998400
 6 -8.63266106370637  6.03172420612061  0.18925591099110
 6 -8.51616550785079  7.11841796039604  0.92547879767977
 7 -9.16725899849985  0.67699056015602 -0.52347638133813
 6 -9.80575683538354  1.76011596469647 -0.70948727282728
 6 -11.23795289188919  1.44057239633963 -1.03262498199820
 6 -11.31058346224622  0.13782914701470 -1.21279999399940
 6 -9.98912459315932 -0.45160713501350 -0.87265228132813
 6 -12.28193701740174  2.54851542254225 -1.23902067686769
 6 -12.48024257055706 -0.72727013711371 -1.72027283578358
 6 -12.32933042144214 -1.21427383858386 -3.09429454805481
 7 -7.31123059135914 -1.46268588218822 -0.06991166816682
 6 -8.38845908570857 -2.30473564566457 -0.47241219641964
 6 -7.88726487208721 -3.65829409690969 -0.47398467576758
 6 -6.51330521462146 -3.63066740374037 -0.08578030993099
 6 -6.19108170457046 -2.31929021032103  0.01381418561856
 6 -8.67396486388639 -4.82057489988999 -0.77453593199320
 6 -5.28926339663966 -4.37766164966497  0.19157202980298
 8 -5.03776261416142 -5.60788527192719  0.24444147484748
 6 -4.16069964936494 -3.24076986678668  0.53395326062606
 6 -3.56776740764076 -3.60260548184818  1.90168054095410
 8 -3.82936453705371 -3.04775151135114  2.95968864996500
 8 -2.62131332503250 -4.55579030143014  1.86361494239424
 6 -2.00935152305231 -5.05127935703570  2.95175011051105
 6  2.81785429712971 -0.65322311691169 -1.32101330173017
 6  4.14488657765777 -0.54531270757076 -0.63846399539954
 6  5.12291577597760  0.30183644904490 -0.96652642534253
 6  4.99359778277828  1.37806045534553 -2.07199136443644
 6  6.42627696049605  0.36835868606861 -0.09043552875288
 6  7.68400593849385 -0.29141948884888 -0.86086303680368
 6  8.92554442704271 -0.10340547094709 -0.06933874667467
 6  10.30441106560656 -0.62203927562756 -0.74190516101610
 6  10.06608330853085 -2.12722365846585 -1.03281674667467
 6  11.49248212511251 -0.20929471027103  0.05224609320932
 6  12.88050295799580 -0.46223027412741 -0.68982900580058
 6  14.03518298669867 -0.11211241404140  0.16205327282728
 6  15.30457658255826 -0.14391812091209 -0.62279051885189
 6  15.68703037193719 -1.55995362916292 -0.98727834553455
 6  16.44730883678368  0.37914227422742  0.36405091229123
 6  17.81639622902290  0.58094949334934 -0.18245406000600
 6  18.77793816331633  1.29399761676168  0.75305573857386
 6  20.26718538773877  1.27058739223922  0.30002476567657
 6  20.45295664946495  2.02202049924992 -1.06757775047505
 6  21.17438836963697  1.91160409670967  1.42575793919392
 1 -3.96286777127713  3.63100862226223  1.16262084898490
 1 -10.07351774447445  3.84837567256726 -0.47019241074107
 1 -10.41912520192019 -2.23305264606461 -1.08110476267627
 1 -2.51366782368237 -1.11679999389939  1.75624631583158
 1 -2.23793739893989  1.77890147274727  1.13605425582558
 1 -1.71943640114011  1.02140259315932  3.40654436793679
 1 -2.96928198819882  2.37023108060806  3.40949311471147
 1 -3.40565400810081  0.60471515551555  3.54606701950195
 1 -1.85128761366137 -1.56434639503950 -0.41436534573457
 1 -2.14569624212421  0.08952620302030 -0.97094713431343
 1 -0.20619413681368  0.50184479837984  0.80275067416742
 1 -0.16324412641264 -1.09230374557456  1.28946290149015
 1 -5.77290606600660  6.88925756985699  0.49605531473147
 1 -5.30468745814581  6.16292965606561  2.14669096619662
 1 -4.48431238723872  5.73821498789879  0.72169534513451
 1 -9.37287934043404  6.01751789988999 -0.53216344454445
 1 -9.29997121302130  7.91323206210621  0.90356997879788
 1 -7.97144661046105  7.08138453795380  1.93469185468547
 1 -11.85029913501350  3.16281660766077 -2.18953195789579
 1 -13.27525719491949  2.28352224342434 -1.43763495499550
 1 -12.42629436053605  3.11682033673367 -0.28080932493249
 1 -12.71431621002100 -1.61364080918092 -0.90127508240824
 1 -13.17350606950695 -0.16122285908591 -1.32389791729173
 1 -13.04411076367637 -2.01203588978898 -3.41019090359036
 1 -12.30470403460346 -0.48570310791079 -4.00926442214221
 1 -11.23090937023703 -1.62149701680168 -3.19853847384738
 1 -8.97908751175118 -4.66760750365037 -1.80255351945195
 1 -8.19458882368237 -5.68334833903390 -0.68225783878388
 1 -9.61960184508451 -4.86680170147015 -0.17676949954996
 1 -3.42297299319932 -3.59791304200420 -0.30996626812681
 1 -1.59144731123112 -4.24684112381238  3.55268818411841
 1 -2.75814542314231 -5.42136375397540  3.71481432033203
 1 -1.48006611811181 -5.96759603280328  2.67901185408541
 1  2.75045434953495 -1.78277011291129 -1.62958692369237
 1  2.28293577117712  0.15257953755376 -2.06984013621362
 1  4.50060096569657 -1.19502171737174  0.23643685968597
 1  3.97728669216922  1.32130084048405 -2.42747111681168
 1  5.06718212991299  2.38604886378638 -1.87870433863386
 1  5.83381068866887  1.21630273777378 -2.93083181418142
 1  6.48303036593659  1.32845684568457  0.17961060386039
 1  6.08393251265127 -0.12241027842784  0.89698941564156
 1  7.46481386608661 -1.20375961116112 -1.02831415501550
 1  8.00406284218422  0.30530373847385 -1.70999392299230
 1  9.15108716031603  0.92011989698970  0.21781941414141
 1  8.73283177187719 -0.79433493969397  0.76682454615462
 1  10.26250380178018 -0.29495695799580 -1.79355424492449
 1  9.20968595409541 -2.27427540404040 -1.59655558035804
 1  11.02471502720272 -2.51078786268627 -1.59385362926293
 1  9.98430131613161 -2.57947988998900 -0.06926636633663
 1  11.28779646054605  0.74934716491649  0.36974846234623
 1  11.53322637603760 -0.87932389368937  0.97858848044804
 1  12.82649596849685 -1.45558371957196 -1.05764343194319
 1  12.94048780128013  0.22871356235624 -1.66377973927393
 1  13.93440487718772  0.82804536053605  0.69628697169717
 1  14.20737349044905 -0.69242884758476  1.20322683918392
 1  15.15581887038704  0.52565205020502 -1.38093245124512
 1  15.89148659155916 -2.16437672977298 -0.12466392029203
 1  14.97071012171217 -2.28756113171317 -1.63474088918892
 1  16.72965259465947 -1.64315984088409 -1.46616808630863
 1  16.09499470017002  1.38331616531653  0.60724726902690
 1  16.49633408060806 -0.12526170127013  1.27445020622062
 1  18.19792073077308 -0.29279582698270 -0.53909725012501
 1  17.90267733223322  1.32649996889689 -1.16839041484148
 1  18.42512330493049  2.30073423112311  0.88688669396940
 1  18.72515967626763  0.98110229122912  1.81437143744374
 1  20.49942485518552  0.22950909910991  0.10004706870687
 1  20.16919102570257  3.05254881678168 -1.01827542094209
 1  21.46859111121112  1.97126377917792 -1.34404576787679
 1  19.87565146954696  1.71370318111811 -1.81641861086109
 1  21.03234921012101  1.50667877697770  2.53288290549055
 1  22.26286799309931  1.83807503720372  1.11633659996000
 1  21.09985971587159  2.91787187048705  1.43238367886789

