%nproc=4
%Mem=3GB
# td=(NStates=1) iop(3/107=0140000000,3/108=0140000000) CAM-B3LYP/6-31G(d,p) 

TD

0 1
12 -7.20308500020002  0.55565394889489  0.10217658765877
 6 -4.82344116061606 -1.95434266486649  0.41253665606561
 6 -4.80706673727373  2.91954067196720  1.13344344954495
 6 -9.44840160466047  3.11485903890389 -0.36649912521252
 6 -9.55781187918792 -1.75962772847285 -0.79342614751475
 7 -5.10268729992999  0.37554364496450  0.70401822582258
 6 -4.41714396169617 -0.72526366956696  0.85794368906891
 6 -2.96800302090209 -0.38841723972397  1.17879354845485
 6 -3.07922114901490  1.09417811941194  1.58701498079808
 6 -4.44542477717772  1.55705035613561  1.07146154005401
 6 -2.95098127892789  1.17374019331933  3.15101041564156
 6 -1.95991172087209 -0.53323931313131  0.07044085438544
 6 -0.50618632783278 -0.37337058505851  0.48210159245925
 6  0.42119404260426 -0.56383300520052 -0.63768355845585
 8  0.11717193399340 -0.87573135083508 -1.80987838093809
 8  1.67998659705971 -0.40835077347735 -0.16724211181118
 7 -7.10512815621562  2.55320853075308  0.21256218031803
 6 -6.09743988778878  3.36395016241624  0.61673754985499
 6 -6.30846575497550  4.76512337593759  0.68153641234123
 6 -7.69081386668667  4.89898170337034  0.24740086648665
 6 -8.11958148564857  3.52044898369837 -0.11173317471747
 6 -5.42101413531353  5.88517799149915  1.09171932713271
 6 -8.61232124012401  6.04199446904690  0.12457306980698
 6 -8.29300771077108  7.24331348104811  0.76531059035904
 7 -9.15979502060206  0.67531452585259 -0.40666724062406
 6 -9.94532201850185  1.78226155045505 -0.53284609810981
 6 -11.22272622532253  1.38411785628563 -1.00870573027303
 6 -11.27328681588159  0.04409195499550 -1.10965099339934
 6 -9.94715231883188 -0.39389958335834 -0.72592479377938
 6 -12.33051398909891  2.39193443484348 -1.38266771947195
 6 -12.39773356625663 -0.87522364616462 -1.61748107870787
 6 -12.39585149404941 -1.09505969826983 -3.10884153535354
 7 -7.23728669106911 -1.34978981468147 -0.11098377347735
 6 -8.22779710601060 -2.28266681218122 -0.59946152605261
 6 -7.73759579937994 -3.50798134953495 -0.51751205100510
 6 -6.38020581108111 -3.50277325942594 -0.20491257295730
 6 -6.16768049974997 -2.13433138893889  0.05261709710971
 6 -8.50569290879088 -4.75239133753375 -0.89544292739274
 6 -5.29518498139814 -4.32354591799180  0.17369234333433
 8 -5.23149414171417 -5.55291214821482  0.16920286888689
 6 -4.10332483508351 -3.32104955235524  0.48259658125813
 6 -3.59221339813981 -3.71215915861586  1.84769073757376
 8 -3.88397118051805 -3.08718607650765  2.84716807500750
 8 -2.71124647744774 -4.70126874537454  1.67307634513451
 6 -2.20675963296330 -5.26541174707471  2.99885728612861
 6  2.72198851925193 -0.54628291719172 -1.19967348454845
 6  4.05259614481448 -0.42293756165617 -0.48191075387539
 6  5.14948043934393  0.27267379537954 -0.77221009800980
 6  5.11012473807381  1.21018869416942 -1.96468060306031
 6  6.37482376107611  0.33238385438544  0.01442091769177
 6  7.54271572417242 -0.28870741874187 -0.88928925762576
 6  8.92718042964296 -0.18513032913291 -0.05053115551555
 6  10.12946840744075 -0.53650531373137 -0.89567528752875
 6  10.11150442704271 -2.04669254915492 -1.30050701670167
 6  11.47721238503850 -0.28718360946095 -0.11357932043204
 6  12.87682541804180 -0.43620365386539 -0.77427493259326
 6  13.99168043984398 -0.14759047334733  0.10295670727073
 6  15.28830482148215 -0.12703178677868 -0.52265791829183
 6  15.80130640164016 -1.55540392869287 -1.11843366966697
 6  16.50674766746675  0.44541105840584  0.50343507820782
 6  17.95621320902090  0.35483921352135 -0.12705923292329
 6  18.91540195879588  1.06666474497450  0.87580083678368
 6  20.35680848524852  1.31402083458346  0.16955366136614
 6  20.36385923172317  2.24196150125012 -1.09723441934193
 6  21.36701176817682  1.92121382128213  1.36807074707471
 1 -4.13715407890789  3.48870212161216  1.44130022582258
 1 -10.12143426672667  4.07261953645365 -0.33743827002700
 1 -10.26682110621062 -2.45684121922192 -1.41609942934293
 1 -2.81690897809781 -1.07473767646765  2.02236872757276
 1 -2.13853732003200  1.69538159925993  1.19509315831583
 1 -1.98568165456546  0.78181728812881  3.54288462586259
 1 -2.73822093119312  2.24975419821982  3.67946596879688
 1 -3.79474227472747  0.64817997229723  3.55955764096410
 1 -2.12361748074807 -1.58383905470547 -0.38123613071307
 1 -2.15478184718472  0.17974559435944 -0.82099883448345
 1 -0.14771019971997  0.57325691299130  0.92862672567257
 1 -0.34293271357136 -1.36535730233023  1.37988144644464
 1 -5.70923510121012  6.84315182718272  0.46752658395840
 1 -5.56425789708971  6.30921380278028  2.06505851835184
 1 -4.40109495409541  5.70216448444844  0.94699543214321
 1 -9.51485174497450  6.15697907990799 -0.45289664236424
 1 -8.71708077177718  8.24944466546655  0.59198897459746
 1 -7.40346827892789  7.22355919231923  1.23506246654665
 1 -11.90425089808981  3.01281042814281 -2.21630746224622
 1 -13.15840313801380  1.70852959535954 -1.71758748694869
 1 -12.58874990769077  3.07876521062106 -0.66133657315732
 1 -12.19170113501350 -1.83129405220522 -1.10844434533453
 1 -13.35666796589659 -0.48956166666667 -1.33125888028803
 1 -13.07759295849585 -2.01628529062906 -3.16991794989499
 1 -12.68213861956196 -0.16968543984398 -3.58838781718172
 1 -11.36864170357036 -1.35189621682168 -3.45440371857186
 1 -8.97822244084408 -4.67387388818882 -1.91421748474848
 1 -7.88854323952395 -5.73362931623162 -0.76638659375938
 1 -9.31167534653465 -4.79823827222722 -0.38592086078608
 1 -3.26742426092609 -3.35044164976498 -0.26609434753475
 1 -1.61169455705571 -4.72187440084008  3.68136985458546
 1 -2.96329276657666 -5.60358988388839  3.66939797749775
 1 -1.50477099759976 -6.02073285808581  2.71761512261226
 1  2.55719377417742 -1.50446706950695 -1.56921837053705
 1  2.49546598789879  0.15310339513951 -1.84137519501950
 1  3.94627511421142 -1.22780119391939  0.32605400560056
 1  4.16816212771277  1.38458400110011 -2.52776326202620
 1  5.47828476067607  2.18079850375038 -1.95773321172117
 1  5.84693426192619  0.74843603450345 -2.84649090599060
 1  6.49769795369537  1.21425140574057  0.36140575447545
 1  6.44918279037904 -0.46724406110611  0.93187938343834
 1  7.32292441524152 -1.29814048704870 -0.97734249144914
 1  7.57243980248025  0.28599770277028 -1.84424524742474
 1  9.01615766006601  1.08035753325333  0.24138656675668
 1  8.69822294309431 -0.68189654235424  0.91128725212521
 1  9.92217684948495  0.06142229002900 -1.76337149514951
 1  9.27397700680068 -2.28166645014501 -2.00382876477648
 1  10.86407554815482 -2.10442384168417 -1.85241059915992
 1  9.97214941204120 -2.81499561426143 -0.43681107480748
 1  11.46484812641264  0.67352378577858  0.36190396119612
 1  11.35513310881088 -0.92457375497550  0.54256057615762
 1  13.00076802930293 -1.55224264356436 -1.13608588008801
 1  12.78583441334133  0.03186812281228 -1.72785711941194
 1  13.67852927322732  0.69354471777178  0.60759558825883
 1  13.91438974957496 -0.80962734163416  0.96362873687369
 1  15.36955735713571  0.86723012001200 -1.33925519431943
 1  15.99021281808181 -2.18249759095910 -0.24850298579858
 1  15.01212285668567 -2.11489600960096 -1.79664103760376
 1  16.65552383198320 -1.60520141714171 -1.69149566286629
 1  16.08302157565756  1.38755708940894  0.90738665496550
 1  16.22635671347135 -0.34770105490549  1.30207870257026
 1  18.24725146284629 -0.70613712771277 -0.16139633523352
 1  17.87598490809081  0.86115500960096 -1.31732747634763
 1  18.46761581848185  2.16638790679068  1.05313726052605
 1  18.86790275277528  0.53353819331933  1.71957520302030
 1  20.79479931223122  0.29554055165517 -0.02770687848785
 1  20.20139695819582  3.16959773627363 -0.77496968166817
 1  21.51656545734573  2.62700384248425 -1.18154613581358
 1  19.88066646424642  1.65478576877688 -1.80861924632463
 1  21.34180803430343  1.14200984188419  2.14064773357336
 1  22.34599249204920  1.99985045574557  0.97563421702170
 1  20.93923400190019  2.74605072227223  1.80354749144914

