%nproc=4
%Mem=2GB
# td=(NStates=1) CAM-B3LYP/6-31G(d,p) 

TD

0 1
12 -7.16240681368137  0.52504125222522  0.06560424782478
 6 -4.84610922892289 -1.93094427282728  0.53539007170717
 6 -4.83449337823782  2.81558000530053  1.11238760366037
 6 -9.44054879037904  3.22240773627363 -0.29803266296630
 6 -9.43555386908691 -1.68797430843084 -0.88078450755076
 7 -5.06305973057306  0.46000581868187  0.76277669596960
 6 -4.35467517361736 -0.73672349434943  0.87774579777978
 6 -2.97937694309431 -0.42667209290929  1.28690904510451
 6 -3.04367780618062  1.05187785608561  1.71371210191019
 6 -4.30953794869487  1.48187893669367  1.16504353425343
 6 -2.91747682978298  1.23725601370137  3.21917332623262
 6 -1.97158061906191 -0.59124438583858  0.12846680498050
 6 -0.50737816041604 -0.47406175337534  0.71544567386739
 6  0.50860199739974 -0.78795230813081 -0.40156553705371
 8  0.18998023812381 -0.91376678427843 -1.55714204590459
 8  1.72811462196220 -0.48437583398340 -0.01375816471647
 7 -7.15468591649165  2.61868745854585  0.30101879737974
 6 -6.00695997499750  3.36202717851785  0.73239677327733
 6 -6.36996424952495  4.75254954435444  0.77251793899390
 6 -7.72393510051005  4.77285791729173  0.39995838713871
 6 -8.18253252485249  3.45756495179518  0.15280782708271
 6 -5.39957791449145  5.79593205910591  1.10826558705871
 6 -8.52466026362636  6.04336537023702  0.17121410681068
 6 -8.32964685598560  7.25465158375838  0.72552880268027
 7 -9.10821309390939  0.72792565366537 -0.62807684138414
 6 -9.86352261196120  1.85468542164216 -0.67317364146415
 6 -11.19010810741074  1.50504884398440 -1.31376309580958
 6 -11.16864926882688  0.16143150725073 -1.42706142014201
 6 -9.90080576127613 -0.32015398969897 -1.06853186928693
 6 -12.22186100980098  2.53627419841984 -1.46884365916592
 6 -12.30243478977898 -0.74528193829383 -2.00794160266027
 6 -12.24380186858686 -1.00809322052205 -3.53918903750375
 7 -7.20042951125113 -1.35780539413941 -0.12455713271327
 6 -8.20220045984598 -2.14639981208121 -0.49823477867787
 6 -7.86204234983498 -3.59094736223622 -0.48772604990499
 6 -6.57388127222722 -3.55694003100310 -0.12615434733473
 6 -6.17007960436044 -2.26080436173617  0.14627743194319
 6 -8.54689215661566 -4.88420126252625 -1.02244072247225
 6 -5.26177064736474 -4.36085996949695  0.25720859345935
 8 -5.19901873977398 -5.63211769516952  0.25768279897990
 6 -4.16512009140914 -3.36562235203520  0.56711657695770
 6 -3.52558318921892 -3.68455367666767  1.96768714161416
 8 -3.80786238683868 -3.20552728892889  3.05078775987599
 8 -2.76906810051005 -4.73589831223122  1.80635921682168
 6 -2.03198378627863 -5.20449467856786  2.92340727622762
 6  2.79581209290929 -0.62601039563956 -1.07010821122112
 6  4.14532662166217 -0.50282845914591 -0.39321947094709
 6  5.06790027442744  0.38734499989999 -0.74828460116012
 6  5.00430885388539  1.31502415171517 -2.02034619991999
 6  6.38347268006801  0.34790664086409 -0.09165565076508
 6  7.56866440434043 -0.16818716561656 -0.96998394889489
 6  8.86037791039104 -0.18289341974197 -0.18311012381238
 6  10.17058768326833 -0.63361043274327 -0.91774274477448
 6  9.91541824202420 -2.20436137223722 -1.15557902290229
 6  11.39537241414141 -0.35842962376238 -0.09760889228923
 6  12.78057296499650 -0.53270732183218 -0.76497652055206
 6  13.95228469686969 -0.14103530633063  0.18346541404140
 6  15.36835296019602 -0.24694842394239 -0.54778301810181
 6  15.90291196009601 -1.76711434523452 -0.78336795449545
 6  16.39668377427743  0.54151851185119  0.26932143934393
 6  17.78722331173117  0.61968336673667 -0.31662747734773
 6  18.75590596009601  1.39241745874587  0.57241767476748
 6  20.17236590579058  1.44183451695170  0.07118188138814
 6  20.32481383518352  2.28926722392239 -1.17203819651965
 6  21.13605453625363  2.01667460376038  1.11368673207321
 1 -4.20839232373237  3.57955347674767  1.59569415631563
 1 -10.03253364606461  3.88659949494949 -0.42572796429643
 1 -10.21694498389839 -2.38925826662666 -1.43626027822782
 1 -2.82304876177618 -1.16241455535554  2.05905659685969
 1 -2.34360796599660  1.53388697129713  1.26933758415842
 1 -1.90420487798780  0.84157461036104  3.54266798029803
 1 -3.13380844084408  2.30595465296530  3.56869903530353
 1 -3.57454089678968  0.56791147514751  3.79194160696070
 1 -2.18828131303130 -1.60889084948495 -0.32370627982798
 1 -2.08660033253325  0.11587883828383 -0.83226326592659
 1 -0.50192370977098  0.54310892479248  1.10654105320532
 1 -0.47335513751375 -1.14456897209721  1.67256121132113
 1 -5.82299107450745  6.78505714981498  0.72625833503350
 1 -5.21318830823082  5.88153151625162  2.21531782888289
 1 -4.44829878587859  5.53171433783378  0.60816399199920
 1 -9.55204725722572  5.78941508960896 -0.46901712991299
 1 -9.01011222712271  7.91506224512451  0.55921554335434
 1 -7.61636110191019  7.48117451695169  1.47348573407341
 1 -12.07026113121312  3.21802212821282 -2.27388039273927
 1 -13.00114978417842  1.87525141634163 -1.95844703620362
 1 -12.49176090719072  2.90942959765977 -0.41827307130713
 1 -12.24503928232823 -1.70430987608761 -1.53264821972197
 1 -13.25283400230023 -0.52655939273927 -1.76007153465347
 1 -12.88553490609061 -1.87841252745274 -3.81562144664466
 1 -12.43502706690669 -0.12903744134413 -4.21226472217222
 1 -11.11626790609061 -1.37933280038004 -3.68568718871887
 1 -9.24396399939994 -4.56692743564356 -1.87761102520252
 1 -7.61896126092609 -5.68294829902990 -1.16815642864286
 1 -9.34568445334533 -5.42435745704570 -0.15603742634263
 1 -3.17669836573657 -3.42193544424442 -0.18801407290729
 1 -1.24173233973397 -4.45122156185619  3.17203011831183
 1 -2.82606221482148 -5.46592821042104  3.70032287118712
 1 -1.44883299479948 -6.06360563376338  2.68961291419142
 1  2.56667597169717 -1.76220805670567 -1.35082904790479
 1  2.37155463306331 -0.17478319871987 -1.96886003820382
 1  4.05722662826283 -1.06343855905591  0.51908512451245
 1  4.04573353685369  1.19195790619062 -2.47517588728873
 1  5.14559997169717  2.49945020392039 -1.64159062726273
 1  5.99777708530853  1.08130923842384 -2.60203893489349
 1  6.91669373227323  1.37893189318932  0.22159480228023
 1  6.21696581598160 -0.21636967436744  0.83983370007001
 1  7.28203558825883 -1.11600083528353 -1.40410173377338
 1  7.68147058295830  0.39982319041904 -1.86515943954395
 1  8.94501655325532  0.74714259925993  0.37178481068107
 1  8.89937842654265 -0.72492799899990  0.88836670037004
 1  10.11257880928093 -0.38643610591059 -1.87216210571057
 1  9.13057804330433 -2.42701067756776 -1.79105503030303
 1  10.73650620632063 -2.83388017191719 -1.68075231913191
 1  9.64592747874788 -2.65927786978698 -0.21539097879788
 1  11.32114979587959  0.77349958015802  0.23709519701970
 1  11.27519057245725 -0.91716767806781  0.74604522612261
 1  12.70148346724672 -1.58101626282628 -1.13340100770077
 1  12.77768152065206  0.18054874587459 -1.63436679797980
 1  13.86376781348135  0.92025458145815  0.49340668366837
 1  14.02375512861286 -0.77915752045204  0.96248276477648
 1  15.23873716221622  0.27461694669467 -1.53141749974998
 1  16.02435987888789 -2.23925421752175  0.27125567166717
 1  15.13899695039504 -2.10124249984999 -1.37144455955596
 1  16.83170279967997 -1.90552607750775 -1.20851232073207
 1  15.98007320802080  1.54962279597960  0.55649219351935
 1  16.54943939113911 -0.04893406850685  1.31106386758676
 1  18.05019595829583 -0.57542408980898 -0.58610195059506
 1  17.55689275377538  1.17339465836584 -1.20461403720372
 1  18.27383817641764  2.51329548724872  0.72264026932693
 1  18.61855901620162  0.91002518351835  1.60129012931293
 1  20.59566447914791  0.40844699289929 -0.21745468146815
 1  19.87917202380238  3.23856741864186 -1.13334692809281
 1  21.51765601770177  2.41616826962696 -1.31487285058506
 1  19.92925683008301  1.71693350415042 -1.89173614261426
 1  20.91769774497450  1.34821293039304  1.99809942714271
 1  22.05568727502750  2.02442367206721  0.79180414671467
 1  20.72260199009901  2.92188227152715  1.54720516101610

