%nproc=4
%Mem=2GB
# td=(NStates=1) CAM-B3LYP/6-31G(d,p) 

TD

0 1
12 -7.09794036703670  0.67227597569757  0.13228091549155
 6 -4.85758037603760 -1.88859003740374  0.53067960066007
 6 -4.81111104000400  2.81907035433543  1.19613597849785
 6 -9.37453218871887  3.06462195769577 -0.39987284698470
 6 -9.52463277697770 -1.70790630163016 -0.91650807990799
 7 -5.17507093169317  0.45709552765277  0.79072949124913
 6 -4.32623232933293 -0.61714153615362  0.84512253545355
 6 -2.89938894429443 -0.38626805250525  1.26535688988899
 6 -3.03917735613561  1.03330599889989  1.72597332803280
 6 -4.44328132303230  1.52191294009401  1.19051608150815
 6 -2.94513959605961  1.33021530963096  3.15507691659166
 6 -1.93876733773377 -0.76738199959996  0.15249920822082
 6 -0.42420984358436 -0.40996534373437  0.63355748504850
 6  0.52013315051505 -0.60943445634563 -0.61230661116112
 8  0.26876811691169 -0.95738114571457 -1.76430276197620
 8  1.75971778227823 -0.42270966736674 -0.11268805770577
 7 -7.12057250515052  2.66542213201320  0.33440213571357
 6 -6.03742302130213  3.40547152295230  0.70259379297930
 6 -6.40804805790579  4.80804509390939  0.68192888008801
 6 -7.82506521352135  4.78701933343334  0.42662105340534
 6 -8.23603787538754  3.54673386868687  0.11371391769177
 6 -5.41113907060706  5.85631809770977  1.10055481598160
 6 -8.55102289988999  5.94417545124512  0.07819480488049
 6 -8.43472736403640  7.15897201580158  0.65679192899290
 7 -9.14294656725673  0.66097895899590 -0.41315534923492
 6 -9.90636689638964  1.79205915901590 -0.69073539763976
 6 -11.24815391199120  1.40555889498950 -1.03479519901990
 6 -11.25060746464646  0.03573893799380 -1.31236995099510
 6 -9.86456213691369 -0.47457943224322 -0.84367938403840
 6 -12.26528535223522  2.46612718371837 -1.38398517331733
 6 -12.36963150945095 -0.77804521462146 -1.75207601610161
 6 -12.30323781218122 -0.96500891209121 -3.30064518311831
 7 -7.21122059035904 -1.35546516011601 -0.20486516351635
 6 -8.22160240004000 -2.19746491859186 -0.54693964916492
 6 -7.77182332793279 -3.57598586608661 -0.58074535183518
 6 -6.50086397049705 -3.49196353335334 -0.21568330023002
 6 -6.18000059645965 -2.12446072737274  0.03080588478848
 6 -8.55890335773577 -4.78807164956496 -0.91969044744474
 6 -5.32454692499250 -4.36195007850785  0.18370124272427
 8 -5.25142398029803 -5.51352583598360  0.35104213491349
 6 -4.19963354275427 -3.27345313511351  0.60571043634363
 6 -3.49127975887589 -3.67309253055306  1.94673504640464
 8 -3.77442904350435 -3.18897563376338  2.99984266536654
 8 -2.62655384908491 -4.75858058045805  1.71633021392139
 6 -2.20568115601560 -5.20715494459446  3.05546048154815
 6  2.80206271797180 -0.71844963956396 -1.23333453385339
 6  4.12339442844284 -0.44716289258926 -0.55938608760876
 6  5.14600808520852  0.20242650805080 -1.03400317301730
 6  5.13404182718272  1.17222987228723 -2.21679584488449
 6  6.43883821662166  0.22913476367637 -0.25721220642064
 6  7.62949048694870 -0.24514486138614 -1.08045499599960
 6  8.97055892849285 -0.31873700410041 -0.19655146794679
 6  10.22253287778778 -0.68769584128413 -0.82963393389339
 6  10.12219892009201 -2.23338427452745 -1.32177564256426
 6  11.49845272217222 -0.53709749054905  0.02923379197920
 6  12.74048895659566 -0.50173422452245 -0.71840186308631
 6  13.92578204660466 -0.09524072687269  0.24340140764076
 6  15.26100222512251 -0.06806053515352 -0.45559379917992
 6  15.66142781168117 -1.44390202400240 -0.99895951365136
 6  16.35916002190219  0.46975133513351  0.35290979817982
 6  17.81587617701770  0.59242064046405 -0.25643145774577
 6  18.71324169366937  1.34762297929793  0.67557799079908
 6  20.19682835203520  1.48401873537354  0.22155691889189
 6  20.34046540034003  2.29557785498550 -1.00180117281728
 6  21.10047097789779  1.86517945424542  1.39146450985099
 1 -4.07880936543654  3.64007952935293  1.41680626752675
 1 -10.08734912761276  3.99168000300030 -0.58895428692869
 1 -10.09018230763076 -2.43115245604560 -1.29818647084708
 1 -2.47838429532953 -1.13079139303930  2.21725241644164
 1 -2.17271087628763  1.54143772637264  1.25017566796680
 1 -1.82626708420842  1.64174462736274  3.40846455995600
 1 -3.21958701870187  2.28930298779878  3.41039320472047
 1 -3.43514695739574  0.38224290829083  3.72832524532453
 1 -1.99594207910791 -1.68633859425943 -0.04336824602460
 1 -2.14124579707971 -0.03673642324232 -0.80452049164916
 1 -0.24537805520552  0.56720133403340  1.03793419251925
 1 -0.11142894489449 -1.23440795599560  1.28126208140814
 1 -5.51715049044904  6.79576822092209  0.44976068526853
 1 -5.57305429482948  6.05330869396940  2.14703100020002
 1 -4.50735469146915  5.42551371777178  1.06950012561256
 1 -9.08403045554556  5.78562471057106 -0.96354658285829
 1 -9.18669988588859  7.95442618151815  0.34469409120912
 1 -7.72267173297330  7.40797719721972  1.53382176767677
 1 -12.31973607870787  2.97941826782678 -2.20108311301130
 1 -13.22214188338834  1.79946383758376 -1.31029222072207
 1 -12.40271200230023  3.26139479417942 -0.66233747774777
 1 -12.37231200960096 -1.81018046314631 -1.20592554745475
 1 -13.30330904980498 -0.18872560936094 -1.51964749224922
 1 -13.09237559015902 -1.78318300450045 -3.62640252475248
 1 -12.65427899209921 -0.13330786838684 -3.94940843654365
 1 -11.42728900820082 -1.47282214931493 -3.54502312231223
 1 -8.80715031803180 -4.76935767866787 -2.04824808890889
 1 -7.94667403220322 -5.55874587878788 -0.76377599059906
 1 -9.50734061896190 -4.86686170747075 -0.56206802940294
 1 -3.37960865676568 -3.09584283498350 -0.17331260276028
 1 -1.48549671617162 -4.28698513821382  3.64787770307031
 1 -3.10544015261526 -5.55582720032003  3.88612145104510
 1 -1.69034714621462 -6.19394866806681  2.84066801970197
 1  2.79404870897090 -1.63724556045605 -1.77426139113911
 1  2.68154563216322  0.06743102270227 -2.00301345354535
 1  4.44661556715672 -1.18344055925593  0.33158637463746
 1  4.09964892839284  0.94494320472047 -2.86739510921092
 1  5.10906631833183  2.41763202210221 -1.88132460066007
 1  5.80638794639464  0.84340544804480 -2.88601733273327
 1  6.68316037893789  1.31790579057906 -0.00678803600360
 1  6.38265238463846 -0.42450048744874  0.67170688738874
 1  7.36144352905291 -1.30880011521152 -1.36886821042104
 1  7.88067050295030  0.30618382648265 -1.98802172577258
 1  9.08155020662066  0.69303718871887  0.42131976417642
 1  8.72223071177118 -1.15892139833983  0.68176604030403
 1  10.54813236463646 -0.01269873217322 -1.63575846534653
 1  9.31119610511051 -2.41680965746575 -2.10842676747675
 1  10.99121167686769 -2.59575635953595 -1.88665290919092
 1  10.05743862986299 -2.93271521352135 -0.42265170487049
 1  11.25028270917092  0.40304253445345  0.67139862736274
 1  11.58461151455146 -1.21719768106811  0.71761238283828
 1  13.01793511241124 -1.56828498969897 -1.25447311491149
 1  12.96476022852285  0.34269496049605 -1.34184754605461
 1  13.48120955765577  1.08032058805881  0.56686402940294
 1  14.18065081818182 -0.69276888158816  1.15794231073107
 1  15.21321460996100  0.43218270327033 -1.29477383538354
 1  15.75265270817082 -2.19304959705971 -0.17751920582058
 1  14.95530858155816 -2.04269664526453 -1.75488290339034
 1  16.77200683008301 -1.36267179207921 -1.31460292979298
 1  16.26241144184418  1.61593942764276  0.38238478277828
 1  16.41391583878388  0.04933575847585  1.30572333353335
 1  18.16325726442644 -0.38248479587959 -0.39916325672567
 1  17.64320138463847  1.13674099299930 -1.03274685048505
 1  18.68022881548155  2.37143130083008  0.89229723502350
 1  18.92353951425143  0.89995417641764  1.66164616491649
 1  20.51909682238224  0.58318446664667  0.13321038503850
 1  19.60732483908390  3.28711227312731 -0.94357795119512
 1  21.35220947304731  2.60749740254025 -1.37189855315532
 1  19.74414831923193  1.73837564836484 -1.94636160516052
 1  20.95120109530953  1.20776888598860  2.20663028022802
 1  22.03728543484348  2.01992322202220  1.09278424472447
 1  20.81228095799580  2.80303038633863  1.86825726622662

