%nproc=4
%Mem=2GB
# td=(NStates=1) CAM-B3LYP/6-31G(d,p) 

TD

0 1
12 -7.09165973897390  0.52936168426843  0.11978966636664
 6 -4.87666228422842 -2.02120329872987  0.48056458915892
 6 -4.75805573447345  2.85484393169317  1.19082544744474
 6 -9.29208394389439  3.05088058355836 -0.47746060576058
 6 -9.49410972467247 -1.71357686868687 -0.79625605470547
 7 -5.13324674927493  0.37785760386039  0.82496291459146
 6 -4.35607531363136 -0.65337515951595  0.77729575277528
 6 -2.92660166556656 -0.35743516921692  1.33108346254625
 6 -3.02119555795580  1.04111677997800  1.71387211791179
 6 -4.35529252415242  1.46369711851185  1.21777880778078
 6 -2.86529161126113  1.25136742484248  3.25776718561856
 6 -1.90416387738774 -0.64573983538354  0.15228918721872
 6 -0.45761318391839 -0.50155450265027  0.66470059935994
 6  0.52146328352835 -0.73254676757676 -0.53656903740374
 8  0.23102434253425 -1.04508991659166 -1.65492182388239
 8  1.72787459795980 -0.43506090249025 -0.17084387328733
 7 -7.03215366326633  2.56937252705271  0.27469616511651
 6 -6.04428370737074  3.40572154795480  0.71338487208721
 6 -6.32636989008901  4.77793208260826  0.64565525272527
 6 -7.58996170317032  4.81383201470147  0.26572496379638
 6 -8.08429270087009  3.46696589188919 -0.08739619331933
 6 -5.36581453815382  5.81288375427543  0.94606936743674
 6 -8.54440223782378  5.93848488218822  0.13112009740974
 6 -8.36152004330433  7.11590770937094  0.83710996079608
 7 -9.04235650825082  0.65205806690669 -0.61092512621262
 6 -9.82007826752675  1.78280823392339 -0.82493881798180
 6 -11.18336743334333  1.48248658775878 -1.07455917541754
 6 -11.20145254915492  0.08154351845185 -1.25436415041504
 6 -9.88118379907991 -0.37601957625763 -0.86509152525253
 6 -12.24407323102310  2.50659123012301 -1.32884965976598
 6 -12.35080962726273 -0.74101151125112 -1.63403421192119
 6 -12.49559704810481 -0.99166157735774 -3.28883400200020
 7 -7.12396186448645 -1.33187280088009 -0.13564824182418
 6 -8.25835607540754 -2.21634680678068 -0.51658661386139
 6 -7.80753689928993 -3.60053832133213 -0.41750902820282
 6 -6.50212409650965 -3.57966230323032 -0.08885061696170
 6 -6.17866046244624 -2.26762504380438  0.08414121832183
 6 -8.66233370077008 -4.76678952135214 -0.95386386478648
 6 -5.32669714001400 -4.48868275177518  0.12748562116212
 8 -5.21962079998000 -5.66786126952695  0.23406043674367
 6 -4.14052763216322 -3.26571236103610  0.46475634093409
 6 -3.52909354025403 -3.68202342364236  1.81154152705271
 8 -3.83939554015402 -3.20956769296930  2.90275295639564
 8 -2.76891808550855 -4.67401212361236  1.73219180008001
 6 -2.13883447134713 -5.23929815891589  2.90845578107811
 6  2.80298280998100 -0.59204699929993 -1.29904110451045
 6  4.04706679567957 -0.24442261856186 -0.59291944094409
 6  5.04117760216022  0.41879814521452 -0.92093186588659
 6  5.08862728572857  1.28274092339234 -2.16297046234623
 6  6.34835916871687  0.51555340554055 -0.20986747194719
 6  7.58489602750275 -0.04079442634263 -0.91438838933893
 6  8.89401127372737 -0.05774090449045 -0.01632344514451
 6  10.21873249774977 -0.54965203690369 -0.86752772327233
 6  10.02584928512851 -1.94636557265727 -1.24973843884388
 6  11.40008288518852 -0.35541932273227  0.06426729532953
 6  12.71666657435743 -0.56502055315532 -0.66868689158916
 6  13.89321879027903 -0.18346954975498  0.29866693419342
 6  15.28198432333233 -0.15977970707071 -0.35702394219422
 6  15.74919658855886 -1.63526115991599 -0.76418603630363
 6  16.37517162306231  0.41855621562156  0.52265677287729
 6  17.78142273167317  0.54084548294829 -0.12593840844084
 6  18.74549491899190  1.38494671167117  0.62554298729873
 6  20.20232890209021  1.29675000850085  0.12539730293029
 6  20.16254760856086  2.09067736493649 -1.26607760046005
 6  21.09684061486149  1.95586852315232  1.09832519591959
 1 -3.93020450495050  3.66959248064807  1.25812039893989
 1 -10.06241663436344  3.86656749174918 -0.82848824032403
 1 -10.23117640704070 -2.46825616641664 -1.10968762096210
 1 -2.71360781768177 -1.16896521042104  2.15220591179118
 1 -2.27510111531153  1.51053463606361  1.38217886828683
 1 -1.83924838233823  0.98487894079408  3.55276899039904
 1 -2.79819487948795  2.40235429292929  3.45041720712071
 1 -3.56721016371637  0.81569625362536  3.94519693249325
 1 -1.96023850875088 -1.55481544194419 -0.04946885608561
 1 -2.03830550305030 -0.06559930953095 -0.91989202880288
 1 -0.40479399679968  0.68600321422142  0.75289568866887
 1  0.00941313931393 -1.07547206240624  1.58304225942594
 1 -5.62490126552655  6.88649729382938  0.67481319051905
 1 -5.32805979537954  6.13160652375238  1.91542783988399
 1 -4.29453340934093  5.64450561696170  0.73489666526653
 1 -9.26762881538154  5.93464961306131 -0.56733696189619
 1 -8.97459867576758  8.11423216211621  0.77847746954695
 1 -7.62566203200320  7.27824422392239  1.57120550605061
 1 -11.70914501960196  3.31622194819482 -2.03838684338434
 1 -13.18837850705070  1.98402229342934 -1.79536072757276
 1 -12.29544127522752  3.08330698539854 -0.31644288828883
 1 -12.29158393679368 -1.81395084018402 -1.39580453535354
 1 -13.33736245514551 -0.41454819161916 -1.28760428792879
 1 -13.42791914451445 -1.39006369256926 -3.41490137463746
 1 -12.32323588778878  0.02814827722772 -3.55712920862086
 1 -11.50990727002700 -1.31273614071407 -3.50108872887289
 1 -8.86457606060606 -4.68615935883588 -1.89694295839584
 1 -8.00820018481848 -5.70422042624262 -0.90433004600460
 1 -9.65700558545855 -5.02484750605061 -0.30262208480848
 1 -3.53188388428843 -3.64127737843784 -0.42232750425042
 1 -1.19961812831283 -4.62015845554555  3.31284419971997
 1 -2.89661927052705 -5.59212082968297  3.70977381628163
 1 -1.74036214771477 -6.21809108230823  2.50135408830883
 1  2.66957626172617 -1.61390322622262 -1.50397436243624
 1  2.71519899749975  0.01193547314731 -2.00686383858386
 1  4.24658556415642 -0.90123233843384  0.27674089008901
 1  3.89131809530953  1.32336104650465 -2.71375974567457
 1  5.33522893459346  2.38619887878788 -2.16142261046105
 1  5.74865217281728  1.01052215971597 -2.84293302430243
 1  6.58962102500250  1.46933093309331  0.05499814261426
 1  6.02097621702170  0.16575853845385  0.90482019871987
 1  7.40800818551855 -0.97843707890789 -1.51422274587459
 1  7.65323775967597  0.56441965006501 -1.95538846244624
 1  8.96939899149915  0.98331621662166  0.36253388558856
 1  8.63076156485648 -0.62991849804981  0.93966182988299
 1  10.33828137953795  0.16764930263026 -1.67129201870187
 1  9.10229521502150 -2.38906688318832 -1.88608453325333
 1  10.90751330703070 -2.56566335023502 -1.89690393429343
 1  10.20212309830983 -2.67430937293729 -0.42359179887989
 1  11.48346602750275  0.80208243844384  0.27563905140514
 1  11.42838589198920 -1.06931289258926  0.82404302590259
 1  12.65902922182218 -1.62571073227323 -0.92930059765977
 1  12.54450820332033 -0.08864817381738 -1.56393975527553
 1  13.49601103780378  0.80084264026403  0.90234757775778
 1  13.94149690279028 -1.05019462416242  1.09519603610361
 1  15.38042133063306  0.31208069306931 -1.27569192719272
 1  15.36891433433343 -2.25584587668767  0.10103864996500
 1  14.99187223792379 -1.95929830543054 -1.37850526562656
 1  16.54483411281128 -1.76852237713771 -1.29963143264326
 1  15.99622482318232  1.43049088278828  0.87733427772777
 1  16.46735118231823 -0.24836401150115  1.44906766796680
 1  18.21016195489549 -0.31798834623462 -0.35747908830883
 1  17.57915497999800  1.15432275117512 -1.04668824462446
 1  18.43238403100310  2.47512166986699  0.49947795309531
 1  18.49559671997200  1.04815899689969  1.77348734903490
 1  20.48191310401040  0.17108325652565 -0.02346528252825
 1  19.63065717231723  3.11307486938694 -1.01768536193619
 1  21.22839709180918  2.25138179097910 -1.49387075037504
 1  19.66660056445645  1.45952776357636 -2.10468743774377
 1  21.12476845204520  1.50086819591959  2.25545516271627
 1  22.04469617591759  2.02510374007401  0.41127609390939
 1  20.67166689658966  3.01672175547555  1.20389082958296

