%nproc=4
%Mem=2GB
# td=(NStates=1) CAM-B3LYP/6-31G(d,p) 

TD

0 1
12 -7.14948552155215  0.61696044414441  0.18640632803280
 6 -4.87798241624162 -1.94219539793979  0.63140967366737
 6 -4.77738766766677  2.84086253355336  1.18466483138314
 6 -9.35867060256026  3.08601409690969 -0.41791465116512
 6 -9.48289860356036 -1.76289180018002 -0.93487991709171
 7 -5.08822224682468  0.45501531963196  0.79687010531053
 6 -4.38189789588959 -0.64938476047605  0.87007503070307
 6 -2.94092309770977 -0.32591201690169  1.26842719691969
 6 -3.03189662806281  1.08743141144114  1.73490422112211
 6 -4.46124311921192  1.55653640244024  1.18628565846585
 6 -2.98756383848385  1.27423971207121  3.33350475937594
 6 -1.88503196419642 -0.53893915531553  0.09708366666667
 6 -0.41903932653265 -0.41775612281228  0.51148527782778
 6  0.53783492069207 -0.67505101800180 -0.58097347784778
 8  0.25298653875388 -0.96157156475648 -1.76775310701070
 8  1.79806161666167 -0.53125052145215 -0.08475526442644
 7 -7.12862331023102  2.62635822562256  0.29397809330933
 6 -6.02844212321232  3.40587156295630  0.72748628222822
 6 -6.44216146924692  4.81491578097810  0.84057474467447
 6 -7.74806751375138  4.81658228972897  0.28555694699470
 6 -8.04393866546655  3.45593478877888 -0.00826828052805
 6 -5.54140209690969  5.95419788568857  1.25860062056206
 6 -8.54341213881388  6.09088012171217  0.15101208660866
 6 -8.61146503780378  7.20903702230223  0.81819806960696
 7 -9.15019729232923  0.68505136623662 -0.58905293899390
 6 -9.85845210491049  1.82181213431343 -0.70546687078708
 6 -11.23347244384438  1.38943728282828 -1.24931665116512
 6 -11.14362676657666  0.06968233233323 -1.37411612561256
 6 -9.89486516721672 -0.35282725702570 -1.00014503060306
 6 -12.37619644334433  2.39464003500350 -1.37501427622762
 6 -12.30480502680268 -0.79746715681568 -1.88387919641964
 6 -12.20415790419042 -1.18052046324632 -3.33390850945095
 7 -7.19304877317732 -1.40460007360736 -0.01236591359136
 6 -8.27057729752975 -2.18241341344134 -0.47531248644864
 6 -7.78642478807881 -3.58737700520052 -0.51610888818882
 6 -6.51769565366537 -3.52536687368737 -0.07190892279228
 6 -6.21431402780278 -2.17359564086409  0.22215501970197
 6 -8.51468893629363 -4.83475631803180 -0.93611208960896
 6 -5.38907337763776 -4.42643652715272  0.15472834543454
 8 -5.22373121102110 -5.61158564196420  0.12211924262426
 6 -4.21819539893989 -3.33159894969497  0.60599046434643
 6 -3.63537416831683 -3.65945116641664  1.87826819971997
 8 -3.78504010461046 -3.01802853905391  2.94742742384238
 8 -2.82032322602260 -4.78211293369337  1.75836441734173
 6 -2.13824441234123 -5.12840706980698  2.96809174467447
 6  2.87197970967097 -0.60718851345134 -1.24544574497450
 6  4.11138322732273 -0.43222139843984 -0.56830697969797
 6  5.12446593099310  0.26022228762876 -0.93839361206121
 6  5.08289671267127  0.99292194149415 -2.26623078837884
 6  6.46443077587759  0.29301115131513 -0.21186767196720
 6  7.67599513741374 -0.21850219711971 -0.97929487998800
 6  8.94221609420942 -0.19487461786179 -0.14027584038404
 6  10.16575720022002 -0.57424449614961 -0.82889385988599
 6  10.05011171137114 -2.06103703980398 -1.32839630463046
 6  11.45104798169817 -0.35028880968097 -0.03691282268227
 6  12.79893480118012 -0.63165721682168 -0.62985300820082
 6  13.98629809820982 -0.17605880868087  0.26488355585559
 6  15.34193031793179 -0.21679540864086 -0.39183742354235
 6  15.66158782768277 -1.64657229102910 -0.87822744044404
 6  16.48019212511251  0.39137349734973  0.43913842104210
 6  17.83357794719472  0.51699309770977 -0.18565438003800
 6  18.79287965746575  1.37584580158016  0.58838927192719
 6  20.30683935313531  1.45128546204620  0.18037280048005
 6  20.22825417921792  2.22042033923392 -1.13741473417342
 6  21.23301423222322  2.08670160646065  1.16467183058306
 1 -4.05484696919692  3.38107362876288  1.71990657755776
 1 -9.94352474517452  4.03771460646065 -0.75471086258626
 1 -10.13779706910691 -2.46290563136314 -1.22195884808481
 1 -2.67777423432343 -1.15543385728573  2.16218690989099
 1 -2.27586119131913  1.70932451505150  1.13879452985298
 1 -1.89284374187419  1.20021047394739  3.78813252675268
 1 -2.99875493549355  2.33224728222822  3.46379854525453
 1 -3.68934237693769  0.63757844184418  3.69836224902490
 1 -1.87896038093809 -1.47119708010801 -0.56791070027003
 1 -2.10860253275328  0.33094034443444 -0.71510154975498
 1 -0.15860937833783  0.51364597849785  1.09823022212221
 1 -0.30753855585559 -1.32684719991999  1.23385734093409
 1 -5.73574234963496  6.88228687278728  0.60890659985999
 1 -5.74562155155516  6.34280764386439  2.34238053515351
 1 -4.41558551455145  5.71355252165216  1.22305548114812
 1 -9.39500155265527  6.21587773587359 -0.59319954815482
 1 -9.52377359325933  7.80075081398140  0.67342696449645
 1 -8.01815128092809  7.41006740624062  1.75687407290729
 1 -12.25119922502250  3.27700802680268 -2.23862686738674
 1 -13.39017868706871  2.05515940714071 -1.95293648514851
 1 -12.47257898899890  3.10258891359136 -0.30097134113411
 1 -12.48257303570357 -1.65810525562556 -1.36087104200420
 1 -13.33574229312931 -0.26690342714271 -1.63434896239624
 1 -13.27046339893989 -1.67221190739074 -3.68517840234023
 1 -11.83072663686369 -0.36215075267527 -3.97210070577058
 1 -11.51923820312031 -1.94140900800080 -3.30781940194019
 1 -8.61956155915592 -4.84014475737574 -2.09822308640864
 1 -8.15444480928093 -5.72207221142114 -0.89747936093609
 1 -9.54205409030903 -4.74856987828783 -0.29249107170717
 1 -3.50138083398340 -3.47088033873387 -0.09794506600660
 1 -1.35081324782478 -4.36954339403940  3.20701361666167
 1 -2.79364897349735 -5.45849746734674  3.79261210011001
 1 -1.43333144464446 -6.00301957515752  2.70823477637764
 1  2.75480478457846 -1.55953778967897 -1.80782474747475
 1  2.54106158375838  0.37807208680868 -1.94214736693669
 1  4.08365927152715 -0.77075929112911  0.51119433543354
 1  3.93992295579558  1.34090280068007 -2.44777314701470
 1  5.55029044074407  2.03843410231023 -2.05936240444044
 1  5.62465977357736  0.47202831033103 -3.02522125312531
 1  6.74628669156916  1.40149414941494 -0.04423178037804
 1  6.19391351075108 -0.35754379177918  0.57609732643264
 1  7.30296768146815 -1.22058129332933 -1.33682500610061
 1  7.82870530643064  0.33830703880388 -1.92545546914691
 1  9.08678072967297  0.87041492649265 -0.01135350315031
 1  8.76311480018002 -0.85480098629863  0.80958882258226
 1  10.12993054445445  0.21749428712871 -1.82459734923492
 1  9.35661064656466 -2.23082105860586 -2.33963988878888
 1  11.20845340104010 -2.40069685358536 -1.65846008990899
 1  9.78519140514051 -2.87697963996400 -0.65401484118412
 1  11.34749243014302  0.50117234743474  0.29395088258826
 1  11.43447650105011 -0.89326528782878  0.90145076667667
 1  12.75022834173417 -1.54126228742874 -0.90526819441944
 1  12.94014776727673 -0.00774008300830 -1.66018938023802
 1  13.74945638233823  0.85603815981598  0.62540988398840
 1  14.00223297639764 -0.52852245694569  1.31757827432743
 1  15.33608689718972  0.48561804680468 -1.25151950995100
 1  15.92218966186619 -2.33315360746075 -0.01016247014702
 1  14.75329838053805 -2.06862923852385 -1.39724713981398
 1  16.51059068846885 -1.93207873277328 -1.55535700520052
 1  16.26394159485949  1.35698353205321  0.97498404270427
 1  16.57675212241224 -0.43336251135114  1.33162592379238
 1  18.30801173987399 -0.37475402280228 -0.42128546894689
 1  17.50784784928493  1.03449076797680 -1.01705528132813
 1  18.36347714031403  2.33711786948695  0.82676068136814
 1  18.85971313161316  0.81970615161516  1.47278727902790
 1  20.52360727342734  0.35681182938294  0.01993905790579
 1  19.89125323192319  3.20226378827883 -0.94743833723372
 1  21.27042129422942  2.62643929672967 -1.43233459675968
 1  19.98310221462146  1.69955176597660 -1.91428839783978
 1  21.21681765696570  1.37741585068507  1.91401101830183
 1  22.22071377767777  2.31897312701270  0.86169113541354
 1  20.71040076997700  3.02893297659766  1.51879231973197

