%nproc=4
%Mem=2GB
# td=(NStates=1) CAM-B3LYP/6-31G(d,p) 

TD

0 1
12 -7.18505907890789  0.60780952905291  0.07230491789179
 6 -4.91113573157316 -2.01031220962096  0.48935546824682
 6 -4.79372930183018  2.83969241654165  1.29661602650265
 6 -9.30525526102610  3.10288578407841 -0.54118697839784
 6 -9.58066838053805 -1.81223673467347 -0.88246467556756
 7 -5.14227765236524  0.38822864096410  0.77251767006701
 6 -4.34049375547555 -0.70669049104910  0.71484950815082
 6 -2.93603260866087 -0.48226765246525  1.25822617681768
 6 -3.02977641604160  1.01654432273227  1.81268199889989
 6 -4.42681967686769  1.52163291209121  1.24159118901890
 6 -3.03869895199520  1.18156044414441  3.22398380728073
 6 -1.89661312231223 -0.62789805120512  0.14446840514051
 6 -0.48666608920892 -0.49394374157416  0.67015114441444
 6  0.54741587878788 -0.72834634753475 -0.54940032053205
 8  0.24739597969797 -1.27292269986999 -1.55671200290029
 8  1.79358116861686 -0.37318471487149 -0.15131192009201
 7 -7.06429687758776  2.57714330413041  0.27842653815382
 6 -6.00988026702670  3.33663463926393  0.73325685928593
 6 -6.36158341144114  4.71865615501550  0.81192187938794
 6 -7.69511221822182  4.79804043554355  0.23391178247825
 6 -8.12560683228323  3.41778097339734 -0.11953940764076
 6 -5.53103105980598  5.89294176007601  1.28205296579658
 6 -8.46730452805280  6.00122115581558  0.14575156055606
 6 -8.48845273657366  7.01933805240524  1.04700094989499
 7 -9.07604987758776  0.71469433053305 -0.60075410911091
 6 -9.83939019871987  1.83515346844684 -0.84187051115112
 6 -11.08811790839084  1.46603494259426 -1.33914563406341
 6 -11.18557096099610  0.09038440254025 -1.36067478147815
 6 -9.88746442714271 -0.43985595989599 -0.93275829192919
 6 -12.14538336203620  2.44879545054505 -1.59922669746975
 6 -12.37135168146815 -0.73938134823482 -1.86351716021602
 6 -12.35058254665467 -1.05163757495750 -3.36416153475348
 7 -7.29690915921592 -1.37069668326833 -0.13557823482348
 6 -8.32136237603760 -2.19883505560556 -0.51110606580658
 6 -7.86657280288029 -3.58006627412741 -0.44189146644664
 6 -6.56904078817882 -3.52466680368037 -0.19331106300630
 6 -6.25623822022202 -2.21944022532253  0.10181298549855
 6 -8.50990845824582 -4.76808965136514 -0.82940141854185
 6 -5.34850932123212 -4.32290617411741  0.12937581018102
 8 -5.14604344224422 -5.57177166056606  0.13440047074707
 6 -4.22625620502050 -3.31173696349635  0.60528039333933
 6 -3.72287291819182 -3.60472569386939  2.00220059295930
 8 -3.99875147574758 -3.14096083228323  3.12887556865687
 8 -2.80506169986999 -4.69669439183918  1.92130071097110
 6 -2.29578016591659 -5.15733996309631  3.15475041054105
 6  2.82858537023702 -0.61063885848585 -1.11341254165417
 6  4.14560664966497 -0.25304348064807 -0.30683083208321
 6  5.17492097649765  0.42028829422942 -0.89437921062106
 6  5.13765218821882  1.20330297959796 -2.18861302660266
 6  6.48513284608461  0.47470932113211 -0.09156564176418
 6  7.59708724662466 -0.15597594449445 -0.94541149164917
 6  8.84744661726173 -0.07858298869887 -0.15053686648665
 6  10.04843546804680 -0.60169724142414 -0.91861283178318
 6  10.05152185238524 -2.01288222432243 -1.25887935293529
 6  11.38389126602660 -0.37421120192019 -0.14653378477848
 6  12.79021392909291 -0.47156120722072 -0.84576459935994
 6  13.92136160456046 -0.09610081288129  0.09872694019402
 6  15.41688781368137 -0.11957568666867 -0.58469670947095
 6  15.69852152105210 -1.61851948574857 -0.91553117081708
 6  16.43717782368237  0.50193455345535  0.30641514871487
 6  17.90048463786378  0.60645204360436 -0.26487230183018
 6  18.88622899239924  1.31013923092309  0.57866829982998
 6  20.33319198839884  1.37362769626963  0.08822358555856
 6  20.47269862366237  2.23227152435244 -0.99792078477848
 6  21.27230816161616  1.79240217651765  1.26593195659566
 1 -4.05785727022702  3.60535605700570  1.40881546844684
 1 -10.12979337203720  3.94834566956696 -0.76728211971197
 1 -10.23126641604160 -2.52155149594960 -1.15178183038304
 1 -2.72752920982098 -1.31656997089709  2.00567125832583
 1 -2.17005061026103  1.59074265686569  1.06668731913191
 1 -2.02578703620362  0.91908236113611  3.84523823732373
 1 -3.26454151415142  2.21289534703470  3.58324048944894
 1 -3.85760920362036  0.59821450545054  3.59854226702670
 1 -2.10008249314932 -1.54515447584758 -0.38874278347835
 1 -2.12880455295530  0.17476472687269 -0.62939297889789
 1 -0.14838835623562  0.66684129802980  0.99311971107111
 1 -0.01853965596560 -0.99476399159916  1.62388634383438
 1 -5.85819459485949  6.85175381948195  0.65589129832983
 1 -5.54214120352035  6.05676904000400  2.35465176227623
 1 -4.40465442144214  5.73109427582758  1.24149732533253
 1 -9.27006905940594  5.99100524862486 -0.71477170537054
 1 -9.22714393029303  7.85193593249325  0.75579520132013
 1 -7.71857132293229  7.15351175067507  1.67919630513051
 1 -11.77447155225523  2.81470179617962 -2.47469047374738
 1 -13.14478414761476  2.02008589978998 -1.71219241074107
 1 -12.08209994109411  3.11472012671267 -0.79818106210621
 1 -12.49431420982098 -1.53673311841184 -1.06203115801580
 1 -13.31027974687469  0.04177744094409 -1.79941546904690
 1 -13.13457981058106 -1.55566025222522 -3.80075996049605
 1 -12.32321588578858 -0.06410094769477 -3.71574507020702
 1 -11.63664994429443 -1.76008087518752 -3.75791441144114
 1 -8.66166576957696 -4.65928667156716 -2.04396766086609
 1 -8.00140950575057 -5.67213721792179 -0.65497511051105
 1 -9.61544142904290 -4.94825984728473 -0.22510433303330
 1 -3.38132882878288 -3.36670992169217 -0.15375064656466
 1 -1.91623979047905 -4.20192663236324  3.74265718101810
 1 -3.16362597119712 -5.99715133273327  3.44945778467847
 1 -1.27772588408841 -5.86318559175918  2.74313826672667
 1  2.69533883798380 -1.53381521742174 -1.53876784178418
 1  2.86333381098110  0.22906718631863 -1.87911106330633
 1  4.30409131473147 -0.71526374157416  0.61943515951595
 1  4.25170413391339  1.11979068946895 -2.68268663836384
 1  5.51242665436544  2.16922718161816 -1.66083255145515
 1  5.87468477607761  0.73416452395240 -2.86031476247625
 1  6.76745880878088  1.43899789978998  0.17616025882588
 1  6.16605072447245 -0.07895593299330  0.93287300400040
 1  7.26894427912791 -1.08645788098810 -1.51894321792179
 1  7.62385482138214  0.44105731383138 -1.80899382298230
 1  8.95767781938194  0.85760364536454  0.13841147334733
 1  8.63194168286829 -0.64255976217622  0.64200206390639
 1  10.16952450385038 -0.10701816411641 -1.81109599909991
 1  9.24436942244224 -2.34948292479248 -2.04370029482948
 1  10.88259081478148 -2.37969475337534 -1.86353059695970
 1  10.07625051105111 -2.87090903290329 -0.31103054275428
 1  11.29632731363136  0.76719895009501  0.16177766526653
 1  11.39615266866687 -1.03404936623662  0.81383200480048
 1  12.92071539043904 -1.49820798199820 -1.09608727632763
 1  12.56826057855785  0.17518820982098 -1.84056741804180
 1  13.84236567326733  0.94557711371137  0.36280362336234
 1  13.83216596969697 -0.51071067576758  1.08169468596860
 1  15.32208549704970  0.35992547754775 -1.57476183418342
 1  15.62979042194219 -2.15934622672267  0.02612115821582
 1  15.08083113381338 -2.05402777837784 -1.46317373247325
 1  16.81793142254226 -1.73437896279628 -1.26450792029203
 1  16.19577477817782  1.58128596229623  0.47280382468247
 1  16.60764521172117 -0.05467464256426  1.23176593779378
 1  18.22112305100510 -0.41985853325333 -0.63935727612761
 1  17.95648271277128  0.98199551845184 -1.27123069886989
 1  18.52486327892789  2.33296745444544  0.84830283558356
 1  18.69661682198220  0.76966114711471  1.79211921222122
 1  20.65208012071207  0.31293744194419 -0.29163209920992
 1  19.96080018661866  3.21054461636164 -0.84664825822582
 1  21.38240249234924  2.37028368116812 -1.37059842314231
 1  20.06835073947395  1.73483529432943 -1.80148711771177
 1  21.16800277547755  1.21345945504550  2.29150876807681
 1  22.32009371567156  1.79255048474847  0.99891485778578
 1  20.98790852075208  2.76161624492449  1.59790023052305

