%nproc=4
%Mem=2GB
# td=(NStates=1) CAM-B3LYP/6-31G(d,p) 

TD

0 1
12 -7.09178975197520  0.56001474957496  0.01080876827683
 6 -4.94980959895990 -1.96308748714871  0.56000253295330
 6 -4.80694062296230  2.80825927322732  1.15335170007001
 6 -9.39566430193019  3.03654915041504 -0.36128898859886
 6 -9.51571188488849 -1.70052556355636 -0.87394382348235
 7 -5.14368779337934  0.46749656775678  0.66553697199720
 6 -4.36143584968497 -0.71828165016502  0.67766578977898
 6 -2.95192419781978 -0.35273469916992  1.15859621382138
 6 -3.03114655305531  1.05071774007401  1.69925065576558
 6 -4.46735373027303  1.49502025082508  1.12440947084708
 6 -3.00375545764576  1.25594788288829  3.16258766766677
 6 -1.89587304830483 -0.71312657405741  0.16427038533853
 6 -0.41397882048205 -0.48815316251625  0.58789291859186
 6  0.54139527672767 -0.70273378627863 -0.60301568206821
 8  0.29856109620962 -1.01797720532053 -1.74727105880588
 8  1.78956076657666 -0.32289968636864 -0.20849763866387
 7 -7.03847429532953  2.54743033283328  0.24456315181518
 6 -6.01771105010501  3.25294627042704  0.70293382698270
 6 -6.49870712381238  4.71707599699970  0.80126081328133
 6 -7.76853956095610  4.84418505000500  0.38002639393939
 6 -8.15414968656866  3.38682787808781  0.11716426272627
 6 -5.41125908260826  5.82370483638364  1.15626038653865
 6 -8.45556335393539  6.00289132283228  0.14044102950295
 6 -8.32140603190319  7.25547166576658  0.73189943974397
 7 -9.07964023662366  0.70462332343234 -0.50961499519952
 6 -9.91888814851485  1.74211416451645 -0.75237156125613
 6 -11.24590368696870  1.43411175027503 -1.16119783928393
 6 -11.21487389128913  0.15230059415942 -1.39315802980298
 6 -9.91013669436944 -0.32557453175318 -0.91916693279328
 6 -12.29337816151615  2.46229680068007 -1.40121689648965
 6 -12.40284483078308 -0.81141855195520 -1.68683949244925
 6 -12.39449693809381 -1.11885429662966 -3.20751587018702
 7 -7.24363383168317 -1.39398901250125 -0.10843552055206
 6 -8.30687092689269 -2.20227539963996 -0.44930988618862
 6 -7.94897104270427 -3.64508277577758 -0.48692596989699
 6 -6.53027691179118 -3.53774811181118 -0.25035676757676
 6 -6.26919951635163 -2.24618289958996  0.16110891509151
 6 -8.74687215461546 -4.83282612501250 -0.84173265166517
 6 -5.35133960426043 -4.29910379387939  0.13158603120312
 8 -5.25083392129213 -5.51799628302830  0.24359138983898
 6 -4.19434301370137 -3.31802759255926  0.56715658095810
 6 -3.44387501840184 -3.61481670297030  1.93670404330433
 8 -3.62408400900090 -3.10745748194819  2.96170885198520
 8 -2.67810900460046 -4.75304002640264  1.78024660556056
 6 -2.08527911581158 -5.23852808190819  2.94882981848185
 6  2.82857536923692 -0.63325111971197 -1.14492569296930
 6  4.17239932893289 -0.45641381768177 -0.51801195019502
 6  5.10578406280628  0.45702196759676 -0.88658843154315
 6  5.15740416341634  1.23536618591859 -2.19078324362436
 6  6.45336966976698  0.60063191339134 -0.13515000020002
 6  7.68139567746775 -0.10197054395440 -0.93080003050305
 6  8.91803367596760 -0.04155928632863 -0.09000081288129
 6  10.22595321982198 -0.57460453215322 -0.84134510501050
 6  10.04522122232223 -2.03898483458346 -1.21154461946195
 6  11.45185806270627 -0.19885366616662 -0.01320045144514
 6  12.78307321502150 -0.53665771687169 -0.74028405130513
 6  13.95902537093709 -0.11044224702470  0.16923399089909
 6  15.37639376427643 -0.15354908400840 -0.58560680048005
 6  15.66362803170317 -1.68040567436744 -0.84808442614261
 6  16.39631373727373  0.38895325532553  0.40218472567257
 6  17.79040362976297  0.44861626002600 -0.25004081868187
 6  18.84767513701370  1.22891110811081  0.69589002200220
 6  20.20430910011001  1.37381771527153  0.20091485468547
 6  20.29824117791779  2.13250154735474 -1.04031502420242
 6  21.20284121492149  1.97718065436544  1.30398576197620
 1 -4.08536002050205  3.47171269266927  1.53441802870287
 1 -10.24539493219322  3.83252408740874 -0.43827921942194
 1 -10.19367265666567 -2.46850619141914 -0.96026267846785
 1 -2.94282073897390 -1.00069838373837  2.09061975317532
 1 -2.21267487268727  1.71430501310131  1.43141379177918
 1 -2.05470992849285  1.07825827872787  3.67901161466147
 1 -3.34748980898090  2.16721077857786  3.52097426282628
 1 -3.73696713941394  0.46832151615161  3.60460287308731
 1 -2.12060454535454 -1.79960992139214 -0.27110101930193
 1 -2.03481515401540 -0.04053680328033 -0.55256529612961
 1 -0.21469498689869  0.55170978487849  0.97525792489249
 1 -0.24332213421342 -1.17987250245025  1.45939989518952
 1 -5.74940371577158  6.62045068916892  0.59000470967097
 1 -5.46855384478448  6.05984934803480  2.26147244434443
 1 -4.37520147614762  5.52302346874687  1.24031720732073
 1 -9.24244629712971  6.12024817291729 -0.50779100730073
 1 -9.03550476637664  7.84717545644564  0.15126474827483
 1 -7.69662912871287  7.73230963046305  1.41491987748775
 1 -12.11387549264927  2.90786111211121 -2.42069507420742
 1 -13.29344901410141  1.99105299649965 -1.36824801630163
 1 -12.22253398449845  3.41544019871987 -0.74064530853085
 1 -12.34633941234124 -1.70008945404540 -0.96491144604460
 1 -13.17877659655966 -0.27508424522452 -1.35869139663966
 1 -13.40332668526853 -1.62053673987399 -3.24772465696570
 1 -12.42065562976298 -0.27549208680868 -3.80869436513651
 1 -11.67412369166917 -1.76954182128213 -3.62072069206921
 1 -9.40143974697470 -4.74347509040904 -1.80626389048905
 1 -8.12803216801680 -5.64768477267727 -0.68702831583158
 1 -9.44062394729473 -4.97497251855185  0.12502067946795
 1 -3.50940163606361 -3.50217346804681 -0.30139541104110
 1 -1.58948711521152 -4.45115155485549  3.30299321462146
 1 -2.86246585518552 -5.47996961456146  3.71009384828483
 1 -1.62695080658066 -6.13616288948895  2.54958891179118
 1  2.78855815991599 -1.57617945384538 -1.60501446644664
 1  2.75877335493549  0.07684196379638 -1.91353450565057
 1  4.12562346794679 -0.82350456565657  0.51510472647265
 1  4.11483044654465  1.44277298769877 -2.43475184488449
 1  5.76017142884288  2.27877813671367 -1.77929439763976
 1  5.59992730033003  0.88781988948895 -3.06701543254325
 1  6.76223828672867  1.56142014201420  0.16384902770277
 1  6.11704582398240  0.16977894049405  0.96468618531853
 1  7.33969135383538 -1.22915215041504 -1.38988031163116
 1  7.82277471337134  0.56965017311731 -1.89078200180018
 1  9.09767181878188  1.11740962596260 -0.13534590239024
 1  9.06799528822882 -0.47090259645965  0.90774863856386
 1  10.20436798819882  0.09153169086909 -1.87676256575658
 1  9.17358234373437 -2.38450642714271 -1.63882980778078
 1  10.79255181088109 -2.34171095499550 -1.77466171007101
 1  10.15325821182118 -2.82079402140214 -0.38198763846385
 1  11.48397607850785  0.93595582578258  0.36418790629063
 1  11.21684473787379 -0.81081704300430  0.99279990159016
 1  12.67624094299430 -1.65625378657866 -0.92565023262326
 1  12.82777653015301  0.02881357235724 -1.67968132943294
 1  13.61965340204021  0.99857241324132  0.40039738273827
 1  13.83927668076808 -0.73036264096410  0.98165468196820
 1  15.16622991149115  0.27703718871887 -1.57573193119312
 1  15.57866530943094 -2.25970626272627  0.09347789388939
 1  15.03747679837984 -2.29651202680268 -1.71643905900590
 1  16.52268189758976 -1.96230175507551 -1.17295876537654
 1  15.94160936163616  1.39202703640364  0.64910145444544
 1  16.39489393659366 -0.38773794889489  1.43184594579458
 1  18.26155709440944 -0.51743829122912 -0.26104944534454
 1  17.71940900540054  0.94061138003800 -1.20091366716672
 1  18.43341413401340  2.26214037173717  0.83371137643764
 1  18.77438459875988  0.82543672467247  1.69472947324732
 1  20.51609652235224  0.28940508870887  0.10532759675968
 1  20.20834494109411  3.23533709560956 -1.12089568296830
 1  21.35487974007401  1.94395104790479 -1.56650801410141
 1  19.68123202760276  1.61188299909991 -1.84683165216522
 1  21.05017099229923  1.47699580868087  2.15701531873187
 1  22.07508921522152  1.91246247594759  0.89338430473047
 1  20.88447817771777  2.93237332063206  1.41593203370337

