%nproc=4
%Mem=2GB
# td=(NStates=1) CAM-B3LYP/6-31G(d,p) 

TD

0 1
12 -7.20104067706771  0.60469921802180  0.18916660406041
 6 -4.81969658765877 -1.90975215361536  0.55342187488749
 6 -4.86969689858986  2.95352379967997  1.17343370827083
 6 -9.59980471597160  3.02297779327933 -0.20635349504951
 6 -9.60618093179318 -1.74312982398240 -0.94793122222222
 7 -5.14382780738074  0.42531234933493  0.78599901820182
 6 -4.28940864696470 -0.65125494749475  0.82331035423542
 6 -2.93050205560556 -0.30978040374037  1.20845119931993
 6 -2.97047048544854  1.19916258455846  1.65544627532753
 6 -4.44961195609561  1.63039378817882  1.10954798469847
 6 -3.01966704880488  1.39267155525553  3.16822823172317
 6 -1.97964142514251 -0.49038429982998  0.04445840414041
 6 -0.41113853645365 -0.49160350755076  0.50990511981198
 6  0.53602473967397 -0.75162867576758 -0.58746412691269
 8  0.35778701880188 -0.99272468006801 -1.74374070577058
 8  1.78254006450645 -0.40914831123112 -0.14779156805681
 7 -7.30669111701170  2.61235682548255  0.35777447294729
 6 -6.24111339033903  3.34910588638864  0.71858539213921
 6 -6.53613086618662  4.81797608700870  0.72208289548955
 6 -7.88691139813981  4.86263689518952  0.38295668696870
 6 -8.29523379497950  3.40678987428743  0.14014656095610
 6 -5.66725468216822  5.94160662656266  1.05838059855986
 6 -8.69573737133713  5.99941097479748  0.05169215461546
 6 -8.59165305660566  7.18099421802180  0.75258150795080
 7 -9.17182945554556  0.65840870197020 -0.42782681638164
 6 -9.95478173787379  1.68509846294629 -0.62391871597160
 6 -11.31871096769677  1.37184552365237 -1.03936565606561
 6 -11.27443984788479  0.01426679077908 -1.17131584558456
 6 -9.98829451015101 -0.44890686498650 -0.72615763186319
 6 -12.41548037173717  2.30389096009601 -1.36466324112411
 6 -12.36233077937794 -0.94554196429643 -1.73160396889689
 6 -12.07410489888989 -1.42189460066007 -3.11338645724572
 7 -7.24969443774377 -1.40366998059806 -0.23143782078208
 6 -8.24721496129613 -2.28211338343834 -0.62675763096310
 6 -7.74964110971097 -3.57154542204220 -0.65423270057006
 6 -6.47234111821182 -3.47077141414141 -0.17889962186219
 6 -6.21581417781778 -2.11705998729873  0.07588039223922
 6 -8.35640310771077 -4.87246008840884 -1.01534001240124
 6 -5.29524399469947 -4.28769265276528  0.22275514811481
 8 -5.23464230213021 -5.49586406980698  0.26723375407541
 6 -4.12863644304430 -3.25437122692269  0.54437430273027
 6 -3.59288991989199 -3.56315153645365  1.92363273617362
 8 -3.81478307890789 -3.03777051325133  2.97881056215622
 8 -2.63226442014201 -4.49871459385939  1.75442402330233
 6 -2.06163675157516 -5.12354658375838  2.96171110661066
 6  2.85741825352535 -0.54602239683968 -1.16100730113011
 6  4.26770885988599 -0.35700387668767 -0.54364451345135
 6  5.22448593299330  0.44976124152415 -0.94705447814781
 6  5.06909533253325  1.11543419271927 -2.32183634893489
 6  6.53477781058106  0.42234408460846 -0.27378386358636
 6  7.73038057595760  0.01844149724972 -1.02458940944094
 6  8.96061793439344 -0.03167829822982 -0.21202301510151
 6  10.26928755325532 -0.40286735843584 -0.94722569306931
 6  10.08202490269027 -1.86746768286829 -1.44183764876488
 6  11.51148402530253 -0.23078685948595 -0.01426055745575
 6  12.85295020272027 -0.51833588468847 -0.76139616251625
 6  14.02767223562356 -0.21487269006901  0.12755982348235
 6  15.44457058195820 -0.32481621072107 -0.59659789958996
 6  15.67176884578458 -1.76518415221522 -1.07156677437744
 6  16.47380148604860  0.22887724772477  0.47330183738374
 6  17.86337092649265  0.42015341374137 -0.17291310591059
 6  18.82104247374738  1.08591680868087  0.81270170317032
 6  20.32054072327233  1.20099043254325  0.40961572477248
 6  20.49333068686869  2.00375867306731 -0.89993098579858
 6  21.20869179998000  1.87014995129513  1.42553791719172
 1 -4.22004348884889  3.68171369276928  1.42991757865787
 1 -10.36217661036104  3.63156399139914 -0.34408980048005
 1 -10.19855314471447 -2.51893123392339 -1.15888254045405
 1 -2.69994645154515 -0.99528784268427  2.11693238443844
 1 -2.01487509270927  1.85808939153915  1.12466311671167
 1 -2.00492494999500  1.13304375727573  3.84878859235924
 1 -3.37543260326033  2.41027508500850  3.17337950335034
 1 -3.88888233093309  1.00352503650365  3.60813322612261
 1 -2.12713519841984 -1.31754171457146 -0.50534444364436
 1 -2.20156182868287  0.23709095949595 -0.76979701930193
 1 -0.11683520092009  0.32668728262826  1.07274767386739
 1 -0.34913271527153 -1.23459797499750  1.33354730993099
 1 -5.82771154655466  6.99447809190919  0.55263097229723
 1 -5.57225421482148  6.25506886998700  2.09004530163016
 1 -4.62735669166917  5.55619678607861  0.86119929552955
 1 -9.58497054955496  6.02444859295930 -0.58231846004600
 1 -9.26783799969997  8.04154489338934  0.51336095789579
 1 -7.91863132893289  7.04007040654065  1.60580896639664
 1 -12.47782188728873  2.84545487148715 -2.22140514521452
 1 -13.53223289248925  2.04114800600060 -1.14219541104110
 1 -12.31067279837984  3.17736639133913 -0.59723096709671
 1 -12.35069984838484 -1.73903334843484 -1.04839979487949
 1 -13.34804352325233 -0.39216595339534 -1.72351787928793
 1 -12.62883923652365 -2.39566425262526 -3.52049193369337
 1 -12.06446001020102 -0.68264280188019 -3.90110360606061
 1 -10.98485476477648 -1.73181804890489 -3.22065068506851
 1 -8.50683028602860 -4.97676841974197 -2.19843310741074
 1 -7.66609597439744 -5.59675968016802 -0.67310692369237
 1 -9.39967985288529 -4.84295931723172 -0.52708453105311
 1 -3.30489118501850 -3.54551780248025 -0.21101637313731
 1 -1.42314048054806 -4.43210965066507  3.59716263156316
 1 -2.67903751235123 -5.45540715831583  3.67538037693769
 1 -1.32446055755576 -5.83067234043404  2.36281023392339
 1  2.74550385448545 -1.60197203310331 -1.68834279927993
 1  2.65289276687669  0.23090737033703 -1.98224137633763
 1  4.09083998959896 -0.81385360056006  0.47818103410341
 1  3.99248821232123  1.30590930133013 -2.74625299499950
 1  5.67885329702970  2.18599885878588 -2.29259572777278
 1  5.70327763536354  0.68440954845485 -3.03361209220922
 1  6.69595165806581  1.45141914191419 -0.03834119131913
 1  6.46579069846985 -0.11261929932993  0.66618633533353
 1  7.54608199289929 -1.17235647084708 -1.35223654725473
 1  8.13060549644965  0.22739594769477 -2.11306423002300
 1  9.09211126272627  0.96909479447945  0.23455108730873
 1  8.75699418811881 -0.54254976117612  0.79352721642164
 1  10.26927447884789  0.21757429512951 -1.81782667216722
 1  9.23144813031303 -2.16947492399240 -2.02419834463446
 1  10.87937049274928 -2.35672245614561 -2.01321556545655
 1  10.22192507850785 -2.40636257825783 -0.61850128982898
 1  11.44983266416642  0.64562679287929  0.59407089458946
 1  11.22412546594660 -1.17858381968197  0.74589521112111
 1  12.81305462436244 -1.57546570777078 -1.33260092769277
 1  12.86784053655365  0.05112580358036 -1.49556291759176
 1  13.68014945164516  0.81522407840784  0.36169351235124
 1  14.16293904700470 -0.90789039373937  0.94147066356636
 1  15.48330161866187  0.64142362736274 -1.34711906990699
 1  15.55480292319232 -2.56416670877088 -0.23294474837484
 1  14.87711076177618 -2.05106748234823 -1.78560597569757
 1  16.66057568696870 -1.96195172007201 -1.50880234973497
 1  16.22965816651665  1.24992282598260  0.86671321562156
 1  16.75599004620462 -0.58847802290229  1.29051181238124
 1  18.20304124282428 -0.72150869826983 -0.70139347974797
 1  17.48040510501050  1.18639595849585 -0.88128170397040
 1  18.55568636123612  2.15713987168717  0.84450245554555
 1  18.75500266056606  0.78462264326433  1.83700370067007
 1  20.82268718141814  0.17030317851785  0.01199826382638
 1  20.22424653125312  3.02818638053805 -0.53357695109511
 1  21.35792004410441  2.23769042184218 -1.23340470377038
 1  20.05736964136414  1.60052186298630 -1.81371834083408
 1  21.12031800700070  1.40064817391739  2.46915653285329
 1  22.33681538783878  1.47958918861886  1.12480744704470
 1  21.04278400830083  2.91575165846585  1.29148958945895

