%nproc=4
%Mem=2GB
# td=(NStates=1) CAM-B3LYP/6-31G(d,p) 

TD

0 1
12 -7.02442301530153  0.60882963106311  0.05225291269127
 6 -4.80280489848985 -1.84249542794279  0.51215774847485
 6 -4.92402233113311  2.92362080938094  1.27805417031703
 6 -9.46471120662066  3.08010350585058 -0.57847070677068
 6 -9.47091740544055 -1.75314082508251 -0.97132356145615
 7 -5.18640206480648  0.51093091119112  0.75446586488649
 6 -4.40060976707671 -0.59102892489249  0.77792581578158
 6 -2.90157916331633 -0.24465389108911  1.22541289548955
 6 -3.00946438483848  1.21558422672267  1.69660039073907
 6 -4.42333932883288  1.57630837963796  1.13662069196920
 6 -2.94083916601660  1.32738502660266  3.30685209410941
 6 -1.93291675267527 -0.36751201260126  0.01935589388939
 6 -0.53042046464646 -0.31056540374037  0.56916104540454
 6  0.51211234843484 -0.63971748464846 -0.54809018951895
 8  0.22280352045205 -0.81572698029803 -1.67501383308331
 8  1.76429824032403 -0.39897729412941 -0.12361915081508
 7 -7.19749019691969  2.63260885068507  0.24596329182918
 6 -6.22178145714572  3.41389236503650  0.83307684128413
 6 -6.56823407650765  4.82705699509951  0.86877756495650
 6 -7.85347805480548  4.81655228672867  0.37307569886989
 6 -8.23715798739874  3.44172336763676 -0.01286874057406
 6 -5.66554451115111  5.94576704260426  1.33181794229423
 6 -8.66662446004600  5.98876991069107  0.22862984838484
 6 -8.58117200850085  7.22773889248925  0.83074932473247
 7 -9.08073034563456  0.61916477757776 -0.61775580928093
 6 -9.85240149984998  1.67898785188519 -0.68426475057506
 6 -11.20032912951295  1.34157249634964 -1.18579029852985
 6 -11.23791619551955 -0.00620525642564 -1.35444415841584
 6 -9.86083176387639 -0.42790476477648 -1.03190820692069
 6 -12.27982680638064  2.33035360636064 -1.37586436123612
 6 -12.47166171247125 -0.79969737983798 -1.77701851035104
 6 -12.32138962736274 -1.48074048524852 -3.23297841644164
 7 -7.17878734703470 -1.44386400000000 -0.04199887688769
 6 -8.17080732053205 -2.25885105720572 -0.54629958515852
 6 -7.70465661126113 -3.68180644814481 -0.52940021732173
 6 -6.35166905100510 -3.58494283128313 -0.06187791969197
 6 -6.12114471087109 -2.18826710801080  0.10582338653865
 6 -8.46628409580958 -4.83223606600660 -0.99192767116712
 6 -5.07877234753475 -4.35613949744975  0.10895376797680
 8 -4.87047588548855 -5.49253373677368  0.00151718241824
 6 -4.09490306970697 -3.21842763256326  0.56608647394739
 6 -3.46329696059606 -3.54220944224422  1.91633200610061
 8 -3.64942654325433 -2.98090482668267  2.96462914401440
 8 -2.72145333903390 -4.58397311971197  1.78189677057706
 6 -2.05863645154515 -5.08684291339134  2.90403533903390
 6  2.78578108980898 -0.58646644124412 -1.20384158455846
 6  4.14223631263126 -0.53910208650865 -0.49558970797080
 6  5.18588207260726  0.32561882728273 -0.80593036573657
 6  5.23290171317132  1.23951660096010 -2.11536570187019
 6  6.37388172097210  0.30240209040904  0.05987950275027
 6  7.72510004790479  0.00953060616062 -0.79581653215322
 6  8.99230110271027 -0.04038916931693  0.06939512671267
 6  10.22465308980898 -0.60913798549855 -0.73739470997100
 6  9.99056575677568 -2.03945488158816 -1.21329479447945
 6  11.46887976487649 -0.29380316111611  0.08460932953295
 6  12.77565247294729 -0.55755980708071 -0.65579560246025
 6  13.91009047744774 -0.21680288308831  0.15796286378638
 6  15.29964608950895 -0.34028775787579 -0.53316155595560
 6  15.56178784768477 -1.80938857265727 -0.72561217891789
 6  16.36195030093009  0.40310467046705  0.20287479467947
 6  17.74219880928093  0.39839123752375 -0.34572038663866
 6  18.62309267876788  1.15134335133513  0.68320875387539
 6  20.18313698289829  1.25094542804280  0.09271403460346
 6  20.16109746354635  2.19798809600960 -1.24531552425243
 6  21.12734366516652  1.71084402070207  1.10819618301830
 1 -4.22553403790379  3.65060058145815  1.46845143204320
 1 -10.17323771647165  3.71624245924592 -0.86575196669667
 1 -10.21640492989299 -2.42761210201020 -1.26780343254325
 1 -2.47064352125213 -1.01060937483748  1.93517420862086
 1 -2.02556616181618  1.78756233883388  1.35883653405341
 1 -1.95751020852085  0.96868732163216  3.71258497199720
 1 -3.20308536853685  2.42205626312631  3.54274644004400
 1 -3.79049249194920  0.71665634963496  3.58020043284328
 1 -2.08244072897290 -1.47131709210921 -0.37489139833983
 1 -2.03049472197220  0.22036928732873 -0.93344338393839
 1 -0.38925244264426  0.78253286718672  0.82367276637664
 1 -0.02075987798780 -0.88373288848885  1.33213716891689
 1 -5.63479225462546  6.68979762386239  0.47035274447445
 1 -5.78433542294229  6.55599896299630  2.24892118921892
 1 -4.53976793279328  5.64533569997000  1.34895807140714
 1 -9.58722077457746  5.73668981708171 -0.48343857205721
 1 -9.46699791569157  8.03279401830183  0.62247186898690
 1 -8.11106057185719  7.51350775027503  1.65337372287229
 1 -12.30854495959596  3.01762208820882 -2.27124012871287
 1 -13.18835850505050  1.52946683788379 -1.42083327482748
 1 -12.43184491559156  2.97551620632063 -0.34008525252525
 1 -12.47186196459646 -1.80704014911491 -1.16436139103910
 1 -13.34056277517752 -0.27677441424142 -1.56050157765777
 1 -13.12787914051405 -2.16526121232123 -3.40705058955896
 1 -12.30291385558556 -0.63393793139314 -4.02567606330633
 1 -11.30965724502450 -1.92041690879088 -3.15429404940494
 1 -9.12354195719572 -4.73967471037104 -1.94235749984998
 1 -7.77244660946095 -5.67253725792579 -1.15989560256026
 1 -9.16523640854085 -5.19211423272327 -0.07283910651065
 1 -3.26652734863486 -3.53324657535754 -0.11419669116912
 1 -1.62446061256126 -4.09108554825483  3.64774769006901
 1 -2.81748135673567 -5.87060867846785  3.36987982688269
 1 -1.22490060156016 -5.84735400860086  2.52961691459146
 1  2.61591089518952 -1.64876671257126 -1.66723068806881
 1  2.48485596319632  0.12878715831583 -1.89081223342334
 1  4.47144805040504 -1.16053826902690  0.35102831883188
 1  4.27095605910591  1.74918362876288 -2.48096646634663
 1  5.96512192389239  2.04569482838284 -1.83986045424543
 1  5.73545085268527  0.77152826032603 -2.90747947894790
 1  6.64051611451145  1.34920892089209  0.34531717451745
 1  6.24110823022302 -0.40639867726773  0.81823153985399
 1  7.52976036073607 -0.95175441064106 -1.44738606220622
 1  7.80390282618262  0.99100230833083 -1.47910083368337
 1  9.39509156075608  0.98784666966697  0.31682931513151
 1  9.12779126782678 -0.42379788598860  1.10250811451145
 1  10.36107365876588 -0.13941140344034 -1.77551244074407
 1  8.97795278077808 -2.31788976547655 -1.67905383018302
 1  10.91224378007801 -2.14122090599060 -1.81146539043904
 1  10.22086497249725 -2.66247818981898 -0.27310675037504
 1  11.27264494539454  0.70066229642964  0.26514800230023
 1  11.56082913631363 -0.86925288658866  0.86479710131013
 1  12.78905222412241 -1.54505266646665 -1.08628629622962
 1  12.75431918441844  0.03863455445545 -1.61369473077308
 1  13.93065450215022  0.73906646264626  0.79558690169017
 1  13.84480723382338 -0.90683028772877  0.92335885238524
 1  15.19840312881288 -0.18614912991299 -1.54359871787179
 1  15.46529397229723 -2.39906019811981  0.27203574967497
 1  14.79098214891489 -2.26256863246325 -1.47678509360936
 1  16.64721435083509 -2.08916444134413 -1.19826129562956
 1  15.85247044774477  1.27502533623362  0.36226277057706
 1  16.32752719991999 -0.08304747984798  1.20974373557356
 1  18.21972291099110 -0.55732227962796 -0.54173751415141
 1  17.66401346584659  0.90831815071507 -1.41965554135414
 1  18.33492428502850  2.16908106580658  0.91227923322332
 1  18.75602276257626  0.77918209920992  1.67234723502350
 1  20.39678459115911  0.27275342354235 -0.39296223222322
 1  19.70604471107110  3.11253481538154 -1.15302889628963
 1  21.32230648274827  2.15465211801180 -1.78433979727973
 1  19.61691559595960  1.74927673847385 -1.96631360036004
 1  21.44014999019902  1.06748485758576  2.01105072227223
 1  22.19967167346735  1.72781401110111  0.79250421672167
 1  20.73631336123612  2.61844192749275  1.48066850735074

