%nproc=4
%Mem=2GB
# td=(NStates=1) CAM-B3LYP/6-31G(d,p) 

TD

0 1
12 -7.16478705170517  0.60655940404040  0.03360104750475
 6 -4.86635125312531 -1.94753593199320  0.43177971067107
 6 -4.76675660456046  2.75861430873087  1.11870823572357
 6 -9.32433716921692  3.07371286678668 -0.50055291499150
 6 -9.52071238493849 -1.75895140614061 -0.81470789988999
 7 -5.12566599119912  0.41617143524352  0.66424684298430
 6 -4.31314102020202 -0.71834165616562  0.84219224242424
 6 -2.92784178957896 -0.48126755245525  1.15713606780678
 6 -2.96259969836984  1.02782545084508  1.54772550325032
 6 -4.38337533243324  1.42118286708671  1.11208823872387
 6 -2.62737781988199  1.27793008110811  3.08415982488249
 6 -1.86706016701670 -0.76915217661766 -0.01487752945295
 6 -0.41741916451645 -0.42415676287629  0.49582371167117
 6  0.55896703390339 -0.63840735363536 -0.61848722922292
 8  0.26782802290229 -0.79246465406541 -1.79238557025703
 8  1.80296210671067 -0.55378277467747 -0.15992278117812
 7 -7.12603305120512  2.62299788958896  0.12005070057006
 6 -5.97168644764476  3.33090406620662  0.72032556615662
 6 -6.34365161826183  4.72181647104710  0.80913160036004
 6 -7.60374308130813  4.87602823432343  0.11439983128313
 6 -8.10882515411541  3.49826902220222 -0.09316677037704
 6 -5.40207816451645  5.84851731763176  1.22669743024302
 6 -8.40031782938294  6.05064609830983  0.07244422982298
 6 -8.36859075037504  7.20001612021202  0.70019626942694
 7 -9.05497777037704  0.69659252035204 -0.62139617331733
 6 -9.81474773447345  1.84120407350735 -0.73627995209521
 6 -11.21127022362236  1.46972531163116 -0.97832955245525
 6 -11.23606601050105  0.09340470457046 -1.12533124712471
 6 -9.88902458315832 -0.39010098439844 -0.84286930303030
 6 -12.27066589028903  2.46422699369937 -1.10910768556856
 6 -12.46283082938294 -0.61355876597660 -1.63151395989599
 6 -12.38322581098110 -1.04280669186919 -3.11368648724872
 7 -7.24433390169017 -1.38887850145015 -0.07784246124612
 6 -8.28720896069607 -2.20882605470547 -0.49860481568157
 6 -7.86953309890989 -3.71513978147815 -0.40929820712071
 6 -6.54610849494949 -3.54626896389639  0.00683895199520
 6 -6.18942153855386 -2.17761604290429  0.05132793699370
 6 -8.68537600500050 -4.91495433783378 -0.66137461586159
 6 -5.36740121042104 -4.29438332183218  0.25038791139114
 8 -5.31298013591359 -5.54522900630063  0.27437446814681
 6 -4.18802238163816 -3.32269805960596  0.55935580088009
 6 -3.47546817771777 -3.72469769106911  1.80867124002400
 8 -3.78240984158416 -3.28063479967997  2.91655433653365
 8 -2.65296649034903 -4.69505422782278  1.57186576747675
 6 -2.07579816771677 -5.22925715481548  2.80990592609261
 6  2.87499001070107 -0.74447224182418 -1.19160036043604
 6  4.03564565356536 -0.45608378467847 -0.52212236123612
 6  5.08169165356536  0.36178244364436 -0.91695146784678
 6  5.10356877987799  1.33174582388239 -2.09620378567857
 6  6.45549988278828  0.47261911211121 -0.12638912411241
 6  7.58298583648365 -0.15065541244124 -0.98933588408841
 6  8.83016488908891 -0.07756288668867 -0.11692350515051
 6  10.17468809330933 -0.62435950765076 -0.86447741824182
 6  10.03313001320132 -2.04372530863086 -1.37471093609361
 6  11.36243912081208 -0.33784756555656  0.00633150175018
 6  12.72944785248525 -0.42223627472747 -0.63960398329833
 6  13.77289675807581 -0.07591879467947  0.38341540904090
 6  15.29026515141514 -0.14715844494449 -0.30103834363436
 6  15.59542121102110 -1.56966460026003 -0.80017963566357
 6  16.33010711661166  0.44874923492349  0.53120762796280
 6  17.81900649004901  0.49542094049405 -0.08181399599960
 6  18.79448981848185  1.25673389038904  0.71637207020702
 6  20.26113478267827  1.37850818431843  0.17694245744574
 6  20.16676803060306  2.13668196539654 -1.16872786548655
 6  21.16316724752475  2.03844678097810  1.22159752315231
 1 -4.00101158565857  3.38958447984798  1.24385897279728
 1 -10.08121851455146  3.98531936693669 -0.57423281478148
 1 -10.56289957935794 -2.28437777857786 -1.12191884408441
 1 -2.50257671457146 -1.01110942484248  1.96473716491649
 1 -2.26461006620662  1.57159074167417  0.97695834623462
 1 -1.61338579607961  1.00673112601260  3.34043775727573
 1 -2.80064512451245  2.24937899539954  3.25276744214421
 1 -3.45803924662466  0.70706539053905  3.67945035783578
 1 -1.97746023092309 -1.74883484388439 -0.44082799199920
 1 -1.91807347984798 -0.12968571817182 -0.79326936653665
 1 -0.49570308770877  0.83413802770277  0.52225262436244
 1 -0.18431623362336 -0.85101961716172  1.41532548774877
 1 -5.43475225062506  6.67662630673067  0.51085679487949
 1 -5.62964995439544  5.98778214131413  2.24517081418142
 1 -4.37048100410041  5.33901506790679  0.96989016461646
 1 -9.28010006250625  6.11717786588659 -0.62565279347935
 1 -9.16827804370437  8.00412115101510  0.41681130293029
 1 -7.56715618141814  7.23452985248525  1.50872925842584
 1 -12.02867697279728  3.04624495049505 -2.01960496519652
 1 -13.20872054125413  1.87676156735674 -1.18865005650565
 1 -12.38670040114011  3.10848950365036 -0.04154539853985
 1 -12.65705048344835 -1.52510195529553 -1.17541249614962
 1 -13.48105682458246 -0.00619735653565 -1.40379590709071
 1 -13.38259461206121 -1.72608729492949 -3.31566145064506
 1 -12.24379794399440 -0.19472401000100 -3.59067256295630
 1 -11.36181246054606 -1.53305817291729 -3.29136775677568
 1 -9.12676227922792 -4.75049579247925 -1.56175944004400
 1 -8.03516288108811 -5.74683468766877 -0.77931754475448
 1 -9.64693457835784 -5.08921394269427  0.07384556195620
 1 -3.51027172307231 -3.51663491419142 -0.27541281278128
 1 -1.77641580808081 -4.38169460916092  3.43921683698370
 1 -2.71623123172317 -5.74194581218122  3.44305714461446
 1 -1.19293740524052 -5.77584685788579  2.48944289718972
 1  2.78329763386339 -1.68681051695170 -1.62592655765577
 1  2.61104858245825  0.00091437103710 -1.96103925612561
 1  4.12112301790179 -0.97052926812681  0.39086230223022
 1  4.25529449294929  1.27189589999000 -2.53319168886889
 1  5.21030644234423  2.35580583948395 -1.83645011321132
 1  6.03210051765176  1.20977208470847 -2.83255198619862
 1  6.66830889378938  1.32883688368837  0.38242088488849
 1  6.22329644904490 -0.11788982638264  0.81351106780678
 1  7.29083646834683 -1.26343557875788 -1.13834515811581
 1  7.69139157505751  0.24640784888489 -1.95252817641764
 1  8.84128618021802  0.94743262826283  0.17018465066507
 1  8.58590707940794 -0.70069557575758  0.71052891659166
 1  10.34770232163216 -0.10868833113311 -1.79633452295230
 1  9.05120010551055 -1.95953392989299 -1.98430435523552
 1  10.75964852055206 -2.30210699459946 -2.12128637253725
 1  10.07372025802580 -2.80189213121312 -0.53532297199720
 1  11.26344402530253  0.70307253745375  0.43475496299630
 1  11.37377043044305 -1.09958591989199  0.68235885748575
 1  12.84006732563256 -1.39862802400240 -0.82065973357336
 1  12.76261001350135  0.06901759275928 -1.64304766606661
 1  13.48017945464547  0.83725628162816  0.62290963396340
 1  13.83129588268827 -0.80710031473147  1.16897341384138
 1  15.07379066756676  0.47179666466647 -1.16441079907991
 1  15.01208865176518 -2.31495178727873  0.12559110521052
 1  14.84135718641864 -1.71477385298530 -1.67697511261126
 1  16.58546817621762 -1.86437196209621 -1.08264973447345
 1  16.04585978667867  1.56098393209321  1.04012055635564
 1  16.31450589778978 -0.25831500660066  1.27010977217722
 1  18.25633657235723 -0.60099664706471  0.03745040464046
 1  17.63484054855486  0.72193951285128 -1.13368694449445
 1  18.46301709430943  2.36790094779478  0.92192019731973
 1  18.92040920122012  0.71511569256926  1.71123112341234
 1  20.73916882958296  0.23876002420242  0.08604566856686
 1  19.91981608820882  3.19498306020602 -1.07578117151715
 1  21.19993424552455  2.22387904070407 -1.87390875417542
 1  19.37705160956096  1.77455926672667 -1.91148811781178
 1  21.30908688388839  1.56388449754975  2.26831644884488
 1  22.18509021532153  2.30564179387939  0.66371133743374
 1  20.65020475037504  3.07640772407241  1.50692113261326

