%nproc=4
%Mem=2GB
# td=(NStates=1) CAM-B3LYP/6-31G(d,p) 

TD

0 1
12 -7.19268984198420  0.58665741384138  0.17918560596060
 6 -4.89973459145915 -1.89969114751475  0.51676820952095
 6 -4.73489341824182  2.82190063736374  1.16149251415141
 6 -9.30840557605761  3.09886538203820 -0.43804666436644
 6 -9.61122143584359 -1.74882039303930 -0.82136856595660
 7 -5.04763818841884  0.47096691479148  0.78986940524052
 6 -4.32460216631663 -0.68447826982698  0.87138516171617
 6 -2.81832083748375 -0.42541196689669  1.26027638183818
 6 -3.01199463786379  1.10128279657966  1.76534726542654
 6 -4.31421841674167  1.51203195199520  1.10552758265827
 6 -3.00811589368937  1.10631291939194  3.25798720762076
 6 -1.83309677067707 -0.60086534793479  0.09532349064907
 6 -0.49538696129613 -0.30992533973397  0.49084321362136
 6  0.48372951015102 -0.69632314521452 -0.59362474297430
 8  0.23938517861786 -0.99806521412141 -1.74267059875988
 8  1.78230004050405 -0.57651504790479 -0.21097788668867
 7 -7.11306175407541  2.62514810461046  0.44470316581658
 6 -6.00592987198720  3.39352032783278  0.81727526112611
 6 -6.33602085518552  4.79410369976998  0.78224891209121
 6 -7.73368607560756  4.79139977147715  0.39964835613561
 6 -8.11419569116912  3.45745494079408  0.17310985728573
 6 -5.54283223992399  5.97658012391239  1.12924768526853
 6 -8.56879467706771  5.91488252195220  0.19966695209521
 6 -8.52853674497450  7.06247236583658  0.73246949674967
 7 -9.03696596919692  0.58301116221622 -0.53788782248225
 6 -9.81402766246625  1.77602755585559 -0.69801612571257
 6 -11.11621071767177  1.40247858695870 -1.17520924042404
 6 -11.16265866976698  0.08501386548655 -1.37982669666967
 6 -9.92416809750975 -0.39774174847485 -0.93947896399640
 6 -12.12687151085109  2.45872644364436 -1.46251302610261
 6 -12.35081962826283 -0.60512792289229 -1.85508631713171
 6 -12.35489297769777 -0.98582099329933 -3.36004112271227
 7 -7.21265073337334 -1.28999861346135 -0.20053473047305
 6 -8.19873011281128 -2.17647281938194 -0.62994794999500
 6 -7.82353849944994 -3.58009627712771 -0.56999427672767
 6 -6.45793967806781 -3.51694603160316 -0.03848558045805
 6 -6.19431202760276 -2.11419970127013  0.09627243144314
 6 -8.55860332773277 -4.80472331473147 -0.76381485988599
 6 -5.33361783208321 -4.31224510801080  0.21810468306831
 8 -5.08997783568357 -5.53284776817682  0.20666769746975
 6 -4.20062364176418 -3.32519830963096  0.62822268756876
 6 -3.53166379727973 -3.62082730403040  1.95955632853285
 8 -3.75282688328833 -3.09009574577458  3.08249093019302
 8 -2.77777897159716 -4.73620834323432  1.83635221612161
 6 -2.17501808970897 -5.30475470457046  2.91228616411641
 6  2.76322883458346 -0.75905369997000 -1.24742594299430
 6  4.15728781778178 -0.58481665796580 -0.61397154615462
 6  5.04509799419942  0.18514477987799 -1.13413318601860
 6  5.02983140614061  0.92437508680868 -2.47578174347435
 6  6.31728606140614  0.44723657385739 -0.45251173637364
 6  7.70586812471247 -0.14086443334333 -1.07966491699170
 6  8.80599247184719 -0.04874000440044 -0.15934774757476
 6  10.17195782028203 -0.55985305700570 -0.79175014551455
 6  10.01212791299130 -2.01353228932893 -1.23681714671467
 6  11.35817869476948 -0.20471425222522  0.00816168476848
 6  12.73640854855486 -0.37227127822782 -0.67831785468547
 6  13.92121158955896 -0.09032023482348  0.20488755625563
 6  15.37628375327533 -0.19239296839684 -0.50646888668867
 6  15.60772244114411 -1.68990662446245 -0.79087870557056
 6  16.38242234813481  0.54513887388739  0.43925843304330
 6  17.67535212461246  0.58369976837684 -0.20521633623362
 6  18.79260963046305  1.20764898189819  0.75327576057606
 6  20.31085975517552  1.27982831633163  0.28870363356336
 6  20.32220357415742  2.08642693989399 -1.04918591129113
 6  21.16063699449945  2.08852178847885  1.27930329372937
 1 -4.09709119361936  3.64272979437944  1.43557814471447
 1 -10.07731812451245  3.90719155415541 -0.53169856135614
 1 -10.21847513691369 -2.52282162296230 -1.08040469266927
 1 -2.55842229912991 -0.95695400930093  2.12306299749975
 1 -2.28115172037204  1.62120570317032  1.35983663406341
 1 -2.21821627912791  0.52757321022102  3.55573928742874
 1 -2.76976203620362  2.13930798829883  3.89963212861286
 1 -3.71037448014801  0.44833951795179  3.81973438623862
 1 -1.99996248114812 -1.60428038843884 -0.48659256845685
 1 -2.16660833333333 -0.05477822742274 -0.77474751435144
 1 -0.61860537793779  0.75906051995199  0.65813621272127
 1 -0.02674047604760 -0.77492200740074  1.45017897309731
 1 -5.45513428882888  7.02668131223122  0.47649335853585
 1 -5.90297728712871  6.31930529362936  2.08268456555656
 1 -4.35450940694069  5.67163833023302  1.46058923452345
 1 -9.25695774827483  5.88094424252425 -0.65779600780078
 1 -9.44620583648365  7.81965270417042  0.60007962976298
 1 -7.97093655945595  7.44670106960696  1.65653403890389
 1 -11.82298640374037  3.20017034303430 -2.33548655335534
 1 -13.14458412761276  2.10883477467747 -1.61754294579458
 1 -12.14723645474548  3.25634428912891 -0.66359760376038
 1 -12.26480125852585 -1.69315876097610 -1.29955491039104
 1 -13.28514723362336 -0.39963670047005 -1.62406793429343
 1 -13.25951230383038 -1.57489217541754 -3.71857174167417
 1 -12.35404896909691  0.03913937633763 -3.84136763246325
 1 -11.43823010231023 -1.37046191329133 -3.68108672867287
 1 -9.15306490949095 -5.00045078797880 -1.74286755085509
 1 -7.97695706050605 -5.77906791099110 -0.67710732373237
 1 -9.34896478137814 -4.91706672797280  0.00401857925793
 1 -3.54091478737874 -3.42423567426743 -0.17247251875188
 1 -1.68444661116112 -4.59936637633763  3.60824373967397
 1 -2.84180378897890 -5.70955257285729  3.65957879677968
 1 -1.39664777627763 -6.04683395659566  2.49535348824882
 1  2.60520982508251 -1.70139197509751 -1.71315528052805
 1  2.66002347994799 -0.11348706910691 -2.16275942814281
 1  4.24872577817782 -1.24026624182418  0.28177139313931
 1  4.02649161266127  1.16425513591359 -2.71036940664066
 1  5.62053746544654  1.86378663756376 -2.61754822302230
 1  5.49906721432143  0.39072017951795 -3.29903863486349
 1  6.32745480838084  1.47111111111111 -0.14800215741574
 1  6.49085320472047 -0.12839087648765  0.54491420812081
 1  7.41792917761776 -1.19065830103010 -1.46189751335133
 1  7.94036647254725  0.55265847394739 -1.82846577017702
 1  9.09351140274027  0.90026791179118  0.19666729892989
 1  8.73274176287629 -0.71913741994199  0.81618948264826
 1  10.15162271367137  0.11147368506851 -1.67966285578558
 1  9.15077006250625 -2.31009898639864 -1.81122704750475
 1  10.86824938063806 -2.32661944584458 -1.88456270017002
 1  9.93195608160816 -2.76873881588159 -0.22571201090109
 1  11.42666034693469  0.79178140834083  0.31543303080308
 1  11.46118917231723 -0.77813377467747  0.95108573017302
 1  12.70918423732373 -1.36024418561856 -1.01660932853285
 1  12.64392814531453  0.42809350035004 -1.50970433173317
 1  13.87456889358936  1.03800635663566  0.57569491249125
 1  13.75073782688269 -0.73959356405641  0.88231474797480
 1  15.29245253375337  0.15783526852685 -1.53366772477248
 1  15.89501694459446 -2.24535482758276  0.16451499759976
 1  14.78764181488149 -1.92091446704670 -1.28675609070907
 1  16.60260989038904 -1.70154567946795 -1.38158962846285
 1  15.96787198789879  1.53838167186719  0.72100864516452
 1  16.58666311351135  0.02961378627863  1.29896265746575
 1  18.04298523722372 -0.60413696109611 -0.48785212561256
 1  17.70022708720872  1.24321164006401 -1.03460703650365
 1  18.52417320992099  2.24820897859786  0.99281728702870
 1  18.84362152245225  0.67141132213221  1.68374837513751
 1  20.95632054475448  0.33926007420742  0.30689775377538
 1  19.93511761836184  3.09051261316132 -0.87272086548655
 1  21.32030628272827  2.21016766956696 -1.46966833013301
 1  19.86730063446345  1.68700051085109 -1.87571454045405
 1  21.18017399259926  1.64552266136614  2.33670328752875
 1  22.19912161846185  2.17418864856486  1.04835980228023
 1  20.74940467036704  3.28462854615462  1.39174961546155

