%nproc=4
%Mem=2GB
# td=(NStates=1) CAM-B3LYP/6-31G(d,p) 

TD

0 1
12 -7.13802437543754  0.54395314341434  0.13026071347135
 6 -4.84291890989099 -2.00851202960296  0.47691422412241
 6 -4.78069799869987  2.84372281958196  1.21377774267427
 6 -9.40047478297830  3.16084157965797 -0.39801266096610
 6 -9.55594590829083 -1.70307581858186 -1.05082151125112
 7 -5.19114253885389  0.46303612171217  0.77053747204720
 6 -4.37881758785879 -0.71819164116412  0.83756177937794
 6 -2.91344034943494 -0.47373679937994  1.41971232543254
 6 -3.09085252365237  1.09711237953795  1.85188591929193
 6 -4.42947994289429  1.46638738753875  1.32617964786479
 6 -3.05410049214922  1.25998828692869  3.35318672757276
 6 -1.93691715271527 -0.61477673907391  0.22783674197420
 6 -0.45020244284428 -0.41697604480448  0.60592472177218
 6  0.51479261646165 -0.67796130903090 -0.47923330383038
 8  0.19979121922192 -1.05462086968697 -1.66575290699070
 8  1.71845365586559 -0.43014041044104 -0.08621541044104
 7 -7.02148259615962  2.56783237303730  0.31484017951795
 6 -6.03823310231023  3.34519549534954  0.77830136373637
 6 -6.32853010611061  4.78023231263126  0.79334002120212
 6 -7.62864557155716  4.83773440494049  0.38891728302830
 6 -8.13985825742574  3.44525372067207  0.06597914421442
 6 -5.39683764046405  5.92231469736974  1.07175193569357
 6 -8.54942273987399  5.97235826952695  0.13605059045905
 6 -8.31997588888889  7.14357047564756  0.64756100590059
 7 -9.07784005660566  0.62627548864886 -0.67919195289529
 6 -9.90134639433943  1.78225817891789 -0.59182550665067
 6 -11.24627372397240  1.51872021112111 -1.20634235373537
 6 -11.31807421132113  0.12203756785679 -1.27784649864987
 6 -9.99633531423142 -0.39357133143314 -0.92589760586059
 6 -12.29226805050505  2.54674524552455 -1.48984575937594
 6 -12.40626517281728 -0.68263567366737 -1.93585439393939
 6 -12.10754824322432 -1.11934434563456 -3.33736885548555
 7 -7.17458692699270 -1.41646125972597 -0.36068074507451
 6 -8.33594383418342 -2.27328250035004 -0.69611456665667
 6 -7.80430657625763 -3.62482074957496 -0.55963324062406
 6 -6.48854273837384 -3.57024136113611 -0.22101383328333
 6 -6.14527712411241 -2.19185746704671 -0.05609280508051
 6 -8.65548301570157 -4.86375921832183 -0.86888536693669
 6 -5.26354082438244 -4.40155403890389  0.16331920452045
 8 -5.02391122902290 -5.61501598499850  0.16844387508751
 6 -4.14708828822882 -3.33859964976498  0.61179104440444
 6 -3.57313794469447 -3.68323354465447  1.93096346924692
 8 -3.66123772437244 -3.06346308250825  2.95226790789079
 8 -2.69556074977498 -4.69441416381638  1.84781336223622
 6 -2.16522711061106 -5.18148237733773  3.08783371887189
 6  2.76219873157316 -0.60740853545355 -1.07467866826683
 6  4.11588367736774 -0.42525070137014 -0.47865801480148
 6  5.12416590099010  0.47076334173417 -0.91746151885189
 6  4.91113953695369  1.49986263556356 -2.04536870217022
 6  6.34691902470247  0.37669952015202 -0.13533001820182
 6  7.62770030793079 -0.18781912881288 -0.94839178967897
 6  8.92675454805481 -0.06117124752475 -0.10478229102910
 6  10.15740636513651 -0.65104217591759 -0.80294126462646
 6  9.99468616881688 -2.11772270837084 -1.18011147614761
 6  11.48679155605561 -0.39390317111711  0.08938980758076
 6  12.77747265496550 -0.56147019811981 -0.63826384928493
 6  13.97364683308331 -0.24656585938594  0.29396646414641
 6  15.33621974687469 -0.15411914101410 -0.53709194899490
 6  15.79471114001400 -1.52686031983198 -0.97992761046105
 6  16.35431953785379  0.50914527452745  0.40254476167617
 6  17.76109069846985  0.51798319671967 -0.25019083368337
 6  18.74870524002400  1.18823704070407  0.60148058105811
 6  20.23252192139214  1.33440377387739  0.01462622582258
 6  20.24696605040504  2.21281957915792 -1.24905589828983
 6  21.14386531733173  1.91230416671667  1.09030439383938
 1 -4.16569805430543  3.55223074447445  1.71358594549455
 1 -10.00147053975398  4.01879271427143 -0.55717110861086
 1 -10.27297058645865 -2.48849819061906 -1.34165081728173
 1 -2.58976543344334 -0.99207752165217  2.14892558375838
 1 -2.29510311551155  1.57201078367837  1.24224487488749
 1 -2.03149760726073  0.99850030293029  3.74274798829883
 1 -3.20260532053205  2.35273933143314  3.61734389978998
 1 -3.73506694939494  0.60567525152515  3.89673208600860
 1 -2.08865135003500 -1.67488744914491 -0.19793370257026
 1 -2.25986765926593 -0.01283403300330 -0.59869990959096
 1 -0.30539405680568  0.59633424732473  0.91287168626863
 1  0.07630982898290 -0.85350986618662  1.41823577877788
 1 -5.75300407580758  6.81257990209021  0.59611532073207
 1 -5.28688567796780  6.36628999209921  2.07110340744074
 1 -4.37653160916092  5.76250741714171  0.59850302590259
 1 -9.28627067956796  6.06684283238324 -0.79241947014701
 1 -9.03137435333533  8.00865160406041  0.38681830363036
 1 -7.48003746954696  7.46683308280828  1.32039042454245
 1 -11.93979808490849  3.34147447344735 -2.21865487018702
 1 -13.17485715491549  1.82166605780578 -1.92714390589059
 1 -12.51945367646765  3.10087874257426 -0.49746099009901
 1 -12.80983576197620 -1.56902634773477 -1.34369932483248
 1 -13.37142586148615 -0.23267000380038 -2.01066659415942
 1 -12.78983533613361 -1.78163284948495 -4.04889477397740
 1 -11.82856642084209 -0.12560709830983 -4.07235073077308
 1 -10.97888416771677 -1.46380124722472 -3.38706732673267
 1 -9.22443204620462 -4.73634437733773 -1.87905116921692
 1 -8.02126149094910 -5.83734373857386 -0.92661227422742
 1 -9.37008689358936 -4.97099212051205 -0.15268709130913
 1 -3.35521621752175 -3.60957420812081 -0.24939021052105
 1 -1.62184035053505 -4.24444088378838  3.61473438873887
 1 -2.90018962756276 -5.55272689028903  3.83082592149215
 1 -1.51131924342434 -5.85175444864486  2.83152710561056
 1  2.56137544164416 -1.79646148204821 -1.13000696569657
 1  2.45428290589059 -0.17627334773477 -2.10059321152115
 1  4.34077498309831 -0.99603181838184  0.34331754775478
 1  4.00171913541354  1.31068977937794 -2.68171654135414
 1  5.03817922962296  2.64269452835284 -1.75793226142614
 1  5.83194050165016  1.43662476997700 -2.87644637563756
 1  6.42811487438744  1.32374637463746  0.35437808060806
 1  6.37887200660066 -0.37851588898890  0.74963468016802
 1  7.14609199389939 -1.37057629282928 -0.92787411101110
 1  7.67654008990899  0.14466767486749 -1.84595751935194
 1  8.95484753635363  1.02291017601760  0.07096472867287
 1  8.94260274897490 -0.63952945914591  0.91648951265127
 1  10.20579813121312 -0.31249871217122 -1.80785567506751
 1  9.26603158865887 -2.19871784828483 -1.99443536833683
 1  10.90486304200420 -2.41337812171217 -1.55127937183718
 1  9.43686657265727 -2.79571151315132 -0.41189062876288
 1  11.12199988088809  0.59061129132913  0.43420490799080
 1  11.45422847624762 -0.85511147244724  1.14860548214821
 1  13.09059237813781 -1.68976713791379 -0.93317098469847
 1  12.84121787428743  0.06476716771677 -1.53573693499350
 1  13.90366180288029  0.89491204720472  0.69764710771077
 1  14.14500725382538 -0.77900750545054  1.06694321082108
 1  15.21761505000500  0.67652713771377 -1.25258961696170
 1  16.04619206210621 -2.05418571067107 -0.03291474537454
 1  14.85264831553155 -1.97404978057806 -1.60745816091609
 1  16.83902353175318 -1.46484200910091 -1.71759322882288
 1  16.18128332903290  1.56742457615762  0.34593113741374
 1  16.35704015121512 -0.00744992009201  1.41594435563556
 1  18.21606254495450 -0.41676822422242 -0.50518385878588
 1  17.52742980748075  0.98768608750875 -1.28504208000800
 1  18.41133192579258  2.37357151485149  0.88705671097110
 1  18.71326848714872  0.86537071807181  1.67005700600060
 1  20.60285519821982  0.53217936613661 -0.26557949394940
 1  19.72059616621662  3.26718027992799 -1.08529212261226
 1  21.32560681278128  2.28126477927793 -1.59914127742774
 1  19.65708961336134  1.65126693749375 -2.04398136713671
 1  21.18948492369237  1.20356846594659  1.80182980018002
 1  22.08505021132113  2.00399162886289  0.65097006330633
 1  20.81753148304831  2.87916800010001  1.37679812031203

