%nproc=4
%Mem=2GB
# td=(NStates=1) CAM-B3LYP/6-31G(d,p) 

TD

0 1
<<<<<<< HEAD
12 -7.16851742474247  0.62686143424342  0.13759144654465
 6 -4.89937455545555 -1.94070524892489  0.64295082778278
 6 -4.80842077097710  2.83741218851885  1.16098246314631
 6 -9.28036277177718  3.11810730623062 -0.51952481218122
 6 -9.51864217791779 -1.69346485748575 -0.90113654275428
 7 -5.01423484808481  0.47859767786779  0.67216763506351
 6 -4.29234894099410 -0.73839366136614  0.78858688188819
 6 -2.90891989738974 -0.37900732643264  1.24542489668967
 6 -2.97416085448545  1.16348901720172  1.71433216391639
 6 -4.34200119501950  1.56362711151115  1.05400243014301
 6 -2.94995007710771  1.20621290939094  3.14229563846385
 6 -1.82360582158216 -0.64261952335234  0.15809976827683
 6 -0.44505192779278 -0.49693404060406  0.62780690999100
 6  0.58433957115712 -0.85245875877588 -0.47228260876088
 8  0.24654589468947 -1.16124153175318 -1.59051538323832
 8  1.76717852835284 -0.56720411681168 -0.00977776667667
 7 -7.03173362126213  2.61715730553055  0.36348504400440
 6 -6.04170344934493  3.32358333413341  0.78645217881788
 6 -6.40870812391239  4.80210449984999  0.70627131433143
 6 -7.61647435443544  4.80324095559556  0.28184657595760
 6 -8.11649592119212  3.47868706400640 -0.06454390809081
 6 -5.48296625332533  5.86462892879288  1.19849460996100
 6 -8.53302109970997  6.00742177587759  0.12273925932593
 6 -8.42347623892389  7.16139225782578  0.82044829462946
 7 -9.07400967356736  0.62718557965797 -0.64377841154115
 6 -9.80002626232623  1.83428338143814 -0.78155447954795
 6 -11.13367246384638  1.52898123722372 -1.21150286978698
 6 -11.27326973087309  0.16449181328133 -1.21873058705871
 6 -9.98360404110411 -0.36895887018702 -0.88060307640764
 6 -12.29394821852185  2.44760533153315 -1.47562433723372
 6 -12.35569011531153 -0.77412482258226 -1.73614442294229
 6 -12.42960044844484 -1.07306971817182 -3.22072719131913
 7 -7.23608307660766 -1.33851346494649 -0.07632230923092
 6 -8.23813405320532 -2.24178935103510 -0.56634158935894
 6 -7.85307145274527 -3.55678394589459 -0.52877015431543
 6 -6.54762864696470 -3.56629096609661 -0.09996172807281
 6 -6.22866546294629 -2.20035831713171  0.16764956915692
 6 -8.61793926132613 -4.81474431683168 -0.79689816821682
 6 -5.30614508480848 -4.33484736823682  0.20291316391639
 8 -5.30488932683268 -5.56217070047005  0.27218424912491
 6 -4.16733031243124 -3.28531432123212  0.57828769406941
 6 -3.61035166606661 -3.73088831013101  1.87375774867487
 8 -3.79641124172417 -3.18253498969897  2.98325100620062
 8 -2.71611280498050 -4.76436115851585  1.64502308320832
 6 -2.08286887478748 -5.17899212831283  2.85143007850785
 6  2.79779229092909 -0.75066286088609 -1.14580578097810
 6  4.16986907590759 -0.50782895919592 -0.55533568256826
 6  5.14258774317432  0.39369563496350 -0.97540731343134
 6  5.14098252125213  1.04347699699970 -2.25711987728773
 6  6.35146947974797  0.43925577577758 -0.25516200140014
 6  7.67817535543554 -0.16814716161616 -0.85683263376338
 6  8.90191206380638 -0.02725785618562 -0.07557937073707
 6  10.14305492999300 -0.50788786048605 -0.89201017151715
 6  10.03993069326933 -1.99617055315532 -1.21230469546955
 6  11.34385726262626 -0.19524330513051 -0.04436356775678
 6  12.79483439113911 -0.52099615071507 -0.69047907080708
 6  13.96261572997300 -0.10213141594159  0.09344641214121
 6  15.31629775467547 -0.23770749984999 -0.55681392119212
 6  15.69692136103610 -1.50599823362336 -1.05988560626063
 6  16.36431053695370  0.26455081508151  0.35724023122312
 6  17.77249183858386  0.52619401780178 -0.32416823142314
 6  18.77853822332233  1.21005922292229  0.75972640564056
 6  20.19801847104710  1.43294362786279  0.24815957915792
 6  20.21772312611261  2.29914821202120 -1.02164315701570
 6  21.04776570737074  1.99182211851185  1.38111347474747
 1 -4.09062054655466  3.55083060446045  1.49037362426243
 1 -9.92452284498450  4.18378921392139 -0.62721811331133
 1 -10.43675696509651 -2.57867720852085 -0.89596624882488
 1 -2.56838329522952 -1.05063337723772  1.94650534173417
 1 -2.20106371157116  1.71515509810981  1.12959360976098
 1 -1.84773923142314  0.86862731563156  3.42348606210621
 1 -2.96762182218222  2.22790684818482  3.54125629102910
 1 -3.57154059675968  0.57143182718272  3.97219963276328
 1 -2.00630311521152 -1.44579453985399 -0.38415232443244
 1 -1.84095576807681  0.19105635603560 -0.80076011561156
 1 -0.07182069946995  0.52599721362136  0.89786018511851
 1 -0.27921572357236 -1.10258477367737  1.68634258945895
 1 -5.63099187458746  6.90637928202820  0.65855156435644
 1 -5.53418040744074  5.96029939303931  2.26945324242424
 1 -4.52622657865787  5.47193836023602  0.85104828042804
 1 -9.24229628212821  6.16413256135614 -0.74344457265727
 1 -9.20913212911291  7.83195393429343  0.56140576237624
 1 -7.66504597039704  7.49953635313531  1.75016340184018
 1 -12.11450555565557  3.06404673067307 -2.46894989968997
 1 -13.27570723992399  1.81410530173017 -1.64318551005100
 1 -12.43201493259326  3.26162481718172 -0.64344558855886
 1 -12.42164694309431 -1.61491093619362 -1.06935189008901
 1 -13.29767848674867 -0.33413014981498 -1.34946047354735
 1 -12.95588194079408 -1.92700738693869 -3.51512139663966
 1 -12.79079264346435 -0.18998353595360 -3.77580107580758
 1 -11.38675495479548 -1.25303017011701 -3.48875749574957
 1 -9.08676827982798 -4.63176391929193 -1.68361162526253
 1 -7.83085245004500 -5.74678468266827 -0.83282289528953
 1 -9.40862074697470 -5.08247326862686 -0.24859668226823
 1 -3.53338403430343 -3.19634288498850 -0.30938621012101
 1 -1.61646981348135 -4.32580902060206  3.14799771507151
 1 -2.94050365896590 -5.37550916851685  3.48577141604160
 1 -1.30250836233623 -5.82887216041604  2.33942789568957
 1  2.70201950605061 -1.74822665856586 -1.51438540354035
 1  2.62563004060406 -0.15754147454745 -2.00825397759776
 1  4.13299420502050 -1.06953916911691  0.45933914991499
 1  4.22025098859886  1.15118382878288 -2.83736210591059
 1  5.52934834653465  2.09902016091609 -2.21474794299430
 1  5.86978428602860  0.61407251475148 -2.86876560756076
 1  6.51435349824982  1.45009900990099  0.10456309910991
 1  6.13631775117512  0.03772573517352  0.70183990069007
 1  7.54173155785579 -1.04757399259926 -1.22535385898590
 1  7.85301773767377  0.52037524562456 -1.80825374897490
 1  9.07731978357836  0.92207009200920  0.36192382458246
 1  8.89365785448545 -0.66499200540054  0.88274613831383
 1  10.25545309670967 -0.07361482378238 -1.75535042454245
 1  9.29751473697370 -2.12386036253625 -1.82456838163816
 1  10.98108066376638 -2.30696748064806 -1.57402164606461
 1  9.84744763076308 -2.57050899289929 -0.47434687438744
 1  11.53768144904491  0.85131736193619  0.16094758225823
 1  11.08912196559656 -0.85239120042004  0.73598422002200
 1  13.02555587448745 -1.56470463166317 -1.01170883848385
 1  12.67887163966397  0.12461315231523 -1.59127248854885
 1  13.79385082178218  0.96754931093109  0.39592693569357
 1  14.02674542764276 -0.71282088678868  1.07438395489549
 1  15.31022431093109  0.54214369936994 -1.34430878887889
 1  15.72214965786579 -2.10170046214621 -0.12384383828383
 1  15.07020007070707 -2.14002637823782 -1.70804821992199
 1  16.57540717011701 -1.46270179507951 -1.58480995049505
 1  16.12080728142814  1.17089492319232  0.68703524782478
 1  16.38844329152915 -0.26796597169717  1.26284904610461
 1  18.28173911261126 -0.57715426282628 -0.50907424782478
 1  17.80234729922993  1.15387270617062 -1.13408698449845
 1  18.11955274787479  2.00307446514651  0.98975698099810
 1  18.82917007730773  0.70645482648265  1.78755875617562
 1  20.56292120482048  0.49407555575558 -0.09123205920592
 1  19.73939804640464  3.26338990089009 -1.03539713311331
 1  21.19864411651165  2.69895654845485 -1.22269363266327
 1  19.65522942734274  1.64863667446745 -1.94882185118512
 1  21.20297627282728  1.26025413451345  2.22654227142714
 1  22.10319202550255  2.38429965966597  1.17957292359236
 1  20.50273000290029  2.90690077337734  1.89333977447745
=======
12 -7.10216078907891  0.57924667276728  0.07654534193419
 6 -4.94158877687769 -2.00229140754075  0.59185571827183
 6 -4.76259618851885  2.82494094139414  1.05822218711871
 6 -9.31668640414041  3.15502099759976 -0.41997485718572
 6 -9.63017333103310 -1.66841235223522 -0.82866929602960
 7 -5.03167659225923  0.44978479657966  0.74027444574457
 6 -4.30882058815882 -0.76822664466447  0.79313733693369
 6 -2.89565857125713 -0.43243266896690  1.25479583378338
 6 -2.95021846024602  0.99575224352435  1.72193292399240
 6 -4.28033502840284  1.56904765356536  1.11410844074407
 6 -3.03597867996800  1.38995128322832  3.08120952985299
 6 -1.82833629462946 -0.72657791919192  0.26729068736874
 6 -0.40568799139914 -0.55577992519252  0.63692782208221
 6  0.53858499569957 -0.85901941484148 -0.54296967746775
 8  0.15937717781778 -1.03377878547855 -1.68989532123212
 8  1.84523633413341 -0.71237863426343 -0.14218100700070
 7 -7.10728117601760  2.61655724552455  0.28649734523452
 6 -6.09936921592159  3.31942291809181  0.81849538313831
 6 -6.29630688378838  4.73155744514451  0.74314500170017
 6 -7.58949165616562  4.87820845234523  0.27375576687669
 6 -8.10033430503050  3.49363855915592 -0.03402085578558
 6 -5.37150510721072  5.78044050995100  1.27732249274928
 6 -8.45303310091009  6.04230526422642  0.15182216761676
 6 -8.26553044434444  7.22853897249725  0.78975522532253
 7 -9.08604087668767  0.70435329642964 -0.49079311301130
 6 -9.82959921962196  1.82806275937594 -0.68775509960996
 6 -11.18918801540154  1.55773411251125 -1.20239195869587
 6 -11.29557196109611  0.18503386748675 -1.35564427842784
 6 -9.87881356205621 -0.38208018231823 -0.91913692979298
 6 -12.35031385508551  2.52322289328933 -1.28370514531453
 6 -12.41572611891189 -0.69705711581158 -1.79967077557756
 6 -12.21894938333833 -1.18378078927893 -3.20641576017602
 7 -7.27724719301930 -1.41407102070207 -0.17177185418542
 6 -8.31230146994699 -2.31017618971897 -0.53555851105111
 6 -7.95949209480948 -3.67551581908191 -0.44667194449445
 6 -6.55770965506551 -3.61018535553555 -0.07494922682268
 6 -6.21661425782578 -2.23581186248625  0.14119692389239
 6 -8.78299576697670 -4.76025886828683 -0.82938141654165
 6 -5.33523799409941 -4.41746563006301  0.15043791639164
 8 -5.29404824272427 -5.61641612501250  0.20933796449645
 6 -4.22866644604460 -3.31770756055606  0.58287815311531
 6 -3.55571620252025 -3.60026524782478  1.95512588548855
 8 -3.86794839543954 -3.08130486668667  2.99282196329633
 8 -2.70718191189119 -4.61573629602960  1.74900348124813
 6 -2.06963755165517 -5.07611184028403  3.03989892539254
 6  2.79406191789179 -0.81971976657666 -1.21600280068007
 6  4.11992408140814 -0.57866604290429 -0.64118426742674
 6  5.12694617901790  0.15315158055806 -1.06791656435644
 6  5.04335275827583  1.12770541984198 -2.29909407470747
 6  6.41724605740574  0.36445829602960 -0.28811529672967
 6  7.61101863976398 -0.17112745964596 -1.05204215471547
 6  8.97185905850585 -0.05807093749375 -0.27463927672767
 6  10.20367099159916 -0.51377844954495 -1.01553252375238
 6  10.03060976117612 -2.05034597069707 -1.23280674567457
 6  11.43661653855386 -0.13996777757776 -0.22229136053605
 6  12.81370627832783 -0.33041709280928 -0.89357938083808
 6  13.94286375477548 -0.03427463026303 -0.04069700220022
 6  15.36802292719272 -0.20491422052205 -0.54489272907291
 6  15.74279594849485 -1.64506214001400 -1.00606022372237
 6  16.39889399529953  0.40064442444244  0.41416592379238
 6  17.77610219961996  0.60300169856986 -0.16600241484148
 6  18.69084945444544  1.32700091709171  0.83944437743774
 6  20.22866153535353  1.43851418491849  0.40013477667767
 6  20.30359171297130  2.29058735593559 -0.86576756945695
 6  21.09948087888789  2.02201513781378  1.56215157855786
 1 -4.03268475297530  3.56304182558256  1.48671325822582
 1 -9.91176156885689  4.09823065806581 -0.57790318181818
 1 -10.36293958335833 -2.28286762756276 -1.15529218141814
 1 -2.74874133103310 -1.15343365726573  2.06571726292629
 1 -2.36129973517352  1.75377896049605  1.12723337373737
 1 -2.17647210471047  0.99881033393339  3.60323403690369
 1 -2.77476253625363  2.38677273477348  3.47978014341434
 1 -3.89019246194619  0.89202388638864  3.66808922172217
 1 -2.11555404030403 -1.64651461186119 -0.20668457765777
 1 -2.12407407990799  0.08836608700870 -0.64881492109211
 1 -0.11455497289729  0.52510712461246  0.90628102720272
 1 -0.11533933593359 -1.08491300650065  1.64302825802580
 1 -5.58387716311631  6.70598924302430  0.79378508770877
 1 -5.56051304070407  6.21961532463246  2.24850114721472
 1 -4.41435539153915  5.57314848124812  1.42632580818082
 1 -9.16007806030603  5.76251239933993 -0.54277450565056
 1 -9.29681089698970  7.93192393129313  0.86074569636964
 1 -7.40698016381638  7.35733213271327  1.58748713421342
 1 -12.36108021312131  3.27843816981698 -2.21570457515752
 1 -13.36098576777678  1.96930082128213 -1.21419261076108
 1 -12.40148187928793  3.20172882758276 -0.40281152515252
 1 -12.21929670807081 -1.62017146224622 -1.33200815571557
 1 -13.29292801170117  0.04827809100910 -1.74048957645765
 1 -13.22442879547955 -1.59644433063306 -3.41116100060006
 1 -12.16892045624563 -0.34224876247625 -3.72983647934793
 1 -11.28221450075008 -1.99633450055006 -3.27815643564356
 1 -9.02948255125513 -4.84784552745274 -1.81533479757976
 1 -8.44649401420142 -5.76895689988999 -0.62293190619062
 1 -9.69425931083108 -5.01528654995500 -0.35963778637864
 1 -3.52581327722772 -3.31859511021102 -0.29789506100610
 1 -1.64766293279328 -4.04353079277928  3.53375629092909
 1 -2.77898750735074 -5.46159777737774  3.78779161806181
 1 -1.37455556705671 -5.80789006220622  2.56975092799280
 1  2.67190649474948 -1.91441327722772 -1.52077604260426
 1  2.39482696029603 -0.01027674807481 -1.92370552275228
 1  4.24502540814081 -1.25646786198620  0.24594781078108
 1  3.96646561006101  0.98380709110911 -2.57363573327333
 1  5.39952536423642  2.14823508240824 -2.11593806200620
 1  5.71604891249125  0.64995610311031 -2.99204793579358
 1  6.53798586148615  1.32527652765276 -0.13785114231423
 1  6.32579669906991 -0.10448848624863  0.78261797849785
 1  7.58253563826383 -1.07956719191919 -1.29770109370937
 1  7.79211164706471  0.34825803390339 -2.02118504210421
 1  9.13067511911191  1.06397428242824  0.08849648184818
 1  8.89413790249025 -0.51359686588659  0.80009787348735
 1  10.21231878327833 -0.22878034033403 -2.09194408390839
 1  9.31647663316332 -2.45446342284228 -1.77120304510451
 1  10.90263281898190 -2.54579136303630 -1.70519476337634
 1  10.20617350335034 -2.35587752975298 -0.05467490719072
 1  11.37054473537354  0.86934916511651  0.13111459895990
 1  11.36747980138014 -0.82964892619262  0.53332395399540
 1  12.83132645154516 -1.39920808200820 -1.15335300290029
 1  13.01306505900590  0.25230592159216 -1.86945030633063
 1  13.85363680038004  0.97038959495950  0.35364270727073
 1  13.83300605370537 -0.65373497819782  0.78532504900490
 1  15.46390967946795  0.54116360136014 -1.56504086208621
 1  15.75358280118012 -2.38322861496150 -0.21125257915792
 1  15.13315636633663 -2.00092246784678 -1.74638205330533
 1  16.61301093049305 -1.70746627152715 -1.58142961246125
 1  16.02676787748775  1.27298513221322  0.81215776007601
 1  16.51643609080908 -0.22195137023702  1.24631739293929
 1  18.03031397009701 -0.32879942734273 -0.35651899229923
 1  17.75717278177818  1.44713203210321 -0.97208078387839
 1  18.37191798439844  2.37958211591159  1.12620062536254
 1  18.56361352165217  0.79482366336634  1.77538753905391
 1  20.63480839353936  0.31207735593559  0.23881094509451
 1  19.84467857445744  3.44246780868087 -0.83084667806781
 1  21.38409266136614  2.52036868966897 -1.04198556185619
 1  19.87148105250525  1.91791360216022 -1.75090205920592
 1  21.09686566176618  1.03356146524652  2.31738135533553
 1  22.20120182648265  1.94065529522952  1.27427239353935
 1  20.79044877477748  2.96885696899690  1.86452689318932
>>>>>>> 8e03b5b5abfc0030b3aa597dc0de36371bfbd096

