%nproc=4
%Mem=3GB
# td=(NStates=1) iop(3/107=0140000000,3/108=0140000000) CAM-B3LYP/6-31G(d,p) 

TD

0 1
12 -7.01607629932993  0.67446583008301  0.08599496949695
 6 -4.91417023352335 -2.05488271887189  0.59475487788779
 6 -4.68855488608861  2.80489920782078  1.13774387958796
 6 -9.26066283078308  3.10487804080408 -0.45734821012101
 6 -9.47488358635864 -1.62041380708071 -0.90926773167317
 7 -5.05632266346635  0.33644973557356  0.73015083908391
 6 -4.37761000830083 -0.82925406860686  0.86900479517952
 6 -2.93770999159916 -0.49094749274928  1.26431210031003
 6 -3.01896512341234  1.05238393999400  1.70614689398940
 6 -4.29387962266227  1.46160081118112  1.12386678057806
 6 -2.90174635543554  1.39957277657766  3.22174748934893
 6 -1.90966669636964 -0.80781677087709  0.16759056935694
 6 -0.47506321552155 -0.49463271127113  0.57625100740074
 6  0.60800272347235 -0.77801442334233 -0.50239002910291
 8  0.28138835563556 -1.10768454615462 -1.62961035413541
 8  1.86517511591159 -0.56162610101010 -0.02354774237424
 7 -6.98889653305331  2.61407461736174  0.30834175827583
 6 -5.92509265306531  3.27951171857186  0.78091396749675
 6 -6.29032394079408  4.74130099369937  0.85628388708871
 6 -7.52480726602660  4.84602640784078  0.32144827122712
 6 -7.95339486698670  3.45787272607261  0.03288128672867
 6 -5.35336737063706  5.94343381708171  1.33080323552355
 6 -8.40545055305530  5.98380865046505  0.12445305780578
 6 -8.30067847784778  7.20326947664766  0.70269432873287
 7 -9.08740778187819  0.75620261466147 -0.44799137303730
 6 -9.76199368566857  1.87903122742274 -0.73588640214021
 6 -11.19725367806781  1.58582802730273 -1.25441030073007
 6 -11.27092657985798  0.25383292909291 -1.33488351665167
 6 -9.89827743134313 -0.33552374577458 -0.93449565086509
 6 -12.25377631533153  2.62271751315131 -1.48943839653965
 6 -12.32636642954295 -0.66748287208721 -1.71171050165017
 6 -12.18493040194019 -1.08162835513551 -3.29289994119412
 7 -7.27164012641264 -1.40632546824682 -0.04570724582458
 6 -8.30859518581858 -2.16866541204120 -0.54194577447745
 6 -7.82248428822882 -3.54041459285929 -0.46373667346735
 6 -6.55730352085209 -3.58348133023302 -0.00671275297530
 6 -6.24001773347335 -2.15639359515952  0.23396523192319
 6 -8.60373271277128 -4.81380747914791 -0.82935631873187
 6 -5.39631509440944 -4.39990355375538  0.13998897299730
 8 -5.26230722302230 -5.62106896389639  0.06119206780678
 6 -4.18136263886389 -3.37375482288229  0.62291061266127
 6 -3.63611778857886 -3.83065100780078  1.92669863836384
 8 -3.98034081748175 -3.24087144504450  3.11619497769777
 8 -2.96191154395440 -4.99041766026603  1.79835887338734
 6 -2.37449640664066 -5.38825403130313  2.97296469686969
 6  2.72351867226723 -0.49625791469147 -1.29562307950795
 6  4.04673555875588 -0.49996526442644 -0.62895545834583
 6  5.05197068836884  0.32022855085509 -1.04479735673567
 6  4.95390911651165  1.25473314861486 -2.24650878587859
 6  6.38221450015002  0.49546016201620 -0.34756528092809
 6  7.53626507910791 -0.11191973997400 -1.09398972767277
 6  8.89662737433743  0.03321150505050 -0.31254735713571
 6  10.14355981658166 -0.58039970317032 -0.99484520452045
 6  9.91629490609061 -2.07113499339934 -1.23633059905991
 6  11.41049571337134 -0.21991688278828 -0.18188615111511
 6  12.80903863936394 -0.48966900040004 -0.84868237333733
 6  13.91666293809381 -0.04597031133113  0.14629104070407
 6  15.38576456745675 -0.22961204480448 -0.54402005450545
 6  15.69739601060106 -1.70864925322532 -0.77241906820682
 6  16.37263425612561  0.35941245854585  0.39558429312931
 6  17.67369495719572  0.63223695329533 -0.25871239823982
 6  18.72338275687569  1.36653473197320  0.80990424712471
 6  20.23358616301630  1.50007944044404  0.30040674667467
 6  20.34775762156216  2.21838914401440 -1.00747544344434
 6  21.10043511051105  1.97883958385839  1.41247518751875
 1 -3.90402076557656  3.59201245264526  1.27409350515052
 1 -9.83647577087709  3.91617389188919 -0.55617014321432
 1 -10.19744416851685 -2.24045958105810 -1.18043586298630
 1 -2.45210249744974 -1.17330753345334  2.10379687038704
 1 -2.43443690999100  1.64828688978898  1.05941959095910
 1 -1.91262434883488  1.10542964936494  3.56074641204120
 1 -2.96339344844484  2.59685890869087  3.22430045224522
 1 -3.58421122162216  0.94974012831283  3.84341602680268
 1 -2.05731085008501 -1.68903957475748 -0.34457246434643
 1 -2.15210157915792 -0.24658703890389 -0.62715945054505
 1 -0.46018144684468  0.49015860316032  0.92475633863386
 1 -0.30550897119712 -1.33204397099710  1.48069152745274
 1 -5.44308848654866  6.61386889888989  0.69581941324132
 1 -5.72485395669567  6.09738261966197  2.42420443294329
 1 -4.19287413201320  5.59759402740274  1.49291002360236
 1 -9.24631489128913  5.93670705270527 -0.58692004470447
 1 -9.00935999969997  8.06849657065707  0.14862463816382
 1 -7.76303423552355  7.46311314771477  1.54795375567557
 1 -11.79119959295929  3.59228837593759 -2.09489532103210
 1 -13.23791108880888  2.27116585898590 -1.77687341554155
 1 -12.51023205590559  3.05882321642164 -0.42776321582158
 1 -12.32048401330133 -1.58987991079108 -1.23926742764276
 1 -13.30565286438644 -0.42525523602360 -1.54851060546055
 1 -13.01290648984899 -1.80810447254725 -3.41815277337734
 1 -12.29970037573757 -0.15181365266527 -3.92801177957796
 1 -11.04559939933993 -1.30298132533253 -3.40933921212121
 1 -8.80356497509751 -4.82926942774277 -1.87159322232223
 1 -7.87545193039304 -5.69441539483948 -0.74554450955095
 1 -9.43711789078908 -5.02143059145915 -0.27691996069607
 1 -3.36136365486549 -3.31141774737474 -0.17575531363136
 1 -1.64758814641464 -4.61029324272427  3.24814653225323
 1 -3.39018545584559 -5.77255678057806  3.51940297799780
 1 -1.82955347584758 -6.22005279007901  2.69473283438344
 1  2.55507356215622 -1.48729535233523 -1.83786523522352
 1  2.19085552685269  0.35873395819582 -1.98441949944995
 1  3.92474296099610 -1.04167258105811  0.34630603080308
 1  3.84005931743174  1.33801934463446 -2.54932541824182
 1  5.30903783598360  2.19786020992099 -1.85081251965196
 1  5.67681725022502  1.12389358025803 -3.10584684158416
 1  6.70317850175018  1.42762274287429 -0.09482986908691
 1  6.13684155625563  0.07127979127913  0.61559775527553
 1  7.35740786358636 -1.28713938693869 -1.15211996919692
 1  7.75245780428043  0.38161726472647 -2.11014183708371
 1  9.13850989528953  0.87761725922592  0.03639606770677
 1  8.83380650145015 -0.46890524322432  0.60766689008901
 1  10.05852048384839 -0.19869372157216 -2.15586074407441
 1  9.06585619471947 -2.24540282378238 -1.98835721762176
 1  10.82835197579758 -2.68109150845085 -1.65097045514551
 1  9.79848204530453 -2.81208532323232 -0.31517891159116
 1  11.29163080468047  0.93473990739074 -0.10625285448545
 1  11.42098969446945 -0.63913521112111  0.81987830793079
 1  12.79031698419842 -1.60814823412341 -0.83113538503850
 1  12.92761859175918 -0.15612067606761 -1.98449278297830
 1  13.75284670497050  1.03919928322832  0.39506433513351
 1  13.80704901550155 -0.50064644354435  1.02255462946295
 1  15.41380178157816  0.26872026902690 -1.41952322112211
 1  15.81510530733073 -2.39352869406941  0.15787765226523
 1  15.11340298469847 -2.08682320232023 -1.42423379687969
 1  16.64135241484149 -1.84961585858586 -1.21488800210021
 1  15.88818209170917  1.33108144184418  0.84350026632663
 1  16.33779785758576 -0.27216350115011  1.32997149184918
 1  18.03364010171017 -0.33886040004000 -0.48542873847385
 1  17.84968227782778  1.37042593669367 -1.06011175477548
 1  18.29822887978798  2.24715598359836  0.87644959175918
 1  18.70687665016502  0.91487632713271  1.82325557105711
 1  20.58000783308331  0.46460745834583  0.32397829002900
 1  19.97552437093709  3.31905268176818 -0.81139332403240
 1  21.29284308510851  2.30318146024602 -1.53622160336034
 1  19.85922432003200  1.70615090529053 -1.76759514391439
 1  20.70760461396139  1.64715035593559  2.50413408220822
 1  21.96396428922892  1.79490996169617  1.10397705130513
 1  20.89760983948395  3.02179829702970  1.36990412711271

