%nproc=4
%Mem=2GB
# td=(NStates=1) CAM-B3LYP/6-31G(d,p) 

TD

0 1
12 -7.12876344934493  0.48119686778678  0.10497818521852
 6 -4.75686030403040 -1.90433161156116  0.52970950365037
 6 -4.78697862676268  2.77863631093109  1.18471483638364
 6 -9.37897263276328  3.17833332883288 -0.50820368006801
 6 -9.52092240594060 -1.74755026602660 -0.89553598269827
 7 -5.12073549814982  0.54090390849085  0.84210462876288
 6 -4.28756846294629 -0.66727654965497  0.77786580978098
 6 -2.93238224362436 -0.31323074877488  1.19268962316232
 6 -2.94340777917792  1.09487215551555  1.69522025272527
 6 -4.39154614951495  1.51167191599160  1.18327535743574
 6 -3.08328341044104  1.14284657275728  3.26872828172817
 6 -1.81475493649365 -0.57290255165517  0.05292925122512
 6 -0.35629305190519 -0.45931027822782  0.57382151145115
 6  0.55943708090809 -0.68084159705971 -0.50487586808681
 8  0.24708594869487 -1.05713112071207 -1.66972330403040
 8  1.93855566606661 -0.54012140854085 -0.19090587948795
 7 -7.13351379927993  2.57649323912391  0.40417911341134
 6 -6.07840711971197  3.34794577037704  0.80699423302330
 6 -6.42318957205720  4.66970125952595  0.79932061926193
 6 -7.71276398339834  4.87468810031003  0.37583597489749
 6 -8.15069934153415  3.45393458875888  0.04415696199620
 6 -5.54343229992999  5.85834830073007  1.17218197869787
 6 -8.57087488508851  6.02582361606161  0.11741872727273
 6 -8.36243013431343  7.19231535013501  0.70707695749575
 7 -9.06542881548155  0.65576843794379 -0.54518855255526
 6 -9.86462272197220  1.82562251535154 -0.71000732483248
 6 -11.24990408700870  1.50778911801180 -1.09826154565457
 6 -11.24774717861786  0.10918628272827 -1.29203791779178
 6 -9.90750643134313 -0.37716969126913 -0.85495051115112
 6 -12.32745156885689  2.42252282328233 -1.46226300110011
 6 -12.41553609990999 -0.76747415751575 -1.74865567406741
 6 -12.35695318371837 -1.10616302750275 -3.27213233183318
 7 -7.17168663696370 -1.40662027562756 -0.19296397339734
 6 -8.24504474427443 -2.19793496559656 -0.56471142634263
 6 -7.76616276187619 -3.56239450695070 -0.45439271657166
 6 -6.42490637473747 -3.59585392239224 -0.10397212911291
 6 -6.10881347774777 -2.23297157845785  0.12064486868687
 6 -8.67215468286829 -4.80002284468447 -0.76804528292829
 6 -5.28647311761176 -4.36911079457946  0.25060793339334
 8 -5.15703454135414 -5.57608209160916  0.30870790149015
 6 -4.16278985838584 -3.37816360616062  0.64135400070007
 6 -3.58250888178818 -3.75868108940894  1.92122249514952
 8 -3.73343494409441 -3.12372910911091  2.98312099319932
 8 -2.81915310901090 -4.76421114351435  1.85398397929793
 6 -2.33522411031103 -5.19183341244124  3.05094002950295
 6  2.83515602730273 -0.70555835043504 -1.24723592399240
 6  4.13265535453545 -0.47675585188519 -0.62490263926393
 6  5.10419390379038  0.38080434583458 -1.06773654635464
 6  5.08565698869887  1.14096674597460 -2.41738590389039
 6  6.43215754855486  0.43214506470647 -0.27847433263326
 6  7.65893343124312  0.14326397949795 -1.18566551705171
 6  8.93311518411841  0.04825969556956 -0.21818363116312
 6  10.16582720722072 -0.37552462416242 -0.99200017051705
 6  9.98516521672167 -1.86407734383438 -1.51344480948095
 6  11.42053493039304 -0.25789957075708 -0.08751788318832
 6  12.77150205790579 -0.42385643674367 -0.77935795869587
 6  13.91782125052505  0.06283508070807  0.12453952145215
 6  15.24801092599260 -0.18288201730173 -0.48370661046105
 6  15.51566323522352 -1.66778441224122 -0.87151676937694
 6  16.41979608550855  0.29922428242824  0.47075158235824
 6  17.70328491789179  0.49477087548755 -0.08743455805581
 6  18.77605797529753  1.19089730673067  0.86674710771077
 6  20.24941361056106  1.28292862636264  0.38372313551355
 6  20.47472882668267  2.00773907110711 -1.01207219991999
 6  21.20775170597060  1.89775271157116  1.41108647204720
 1 -4.01333281778178  3.48090361176118  1.72970755765577
 1 -10.20185057775778  3.87107794279428 -0.38811420292029
 1 -10.13966725612561 -2.39661900270027 -1.13821047324732
 1 -2.42815927282728 -1.06669498339834  2.07862855405540
 1 -2.22197580278028  1.64940852345235  1.35498614901490
 1 -2.23013747124712  0.87312776567657  3.85743945744574
 1 -3.25168022802280  2.20545460296030  3.39482164756476
 1 -4.09140258295830  0.68447313131313  3.43826623942394
 1 -1.95782826772677 -1.79939990039004 -0.21324523372337
 1 -1.93677535003500  0.03452070247025 -0.98956899649965
 1 -0.18020153755376  0.54768938283828  1.03664406350635
 1 -0.17470527252725 -1.34865938113811  1.38599255445544
 1 -5.80619939533953  6.64892353645364  0.47811352055206
 1 -5.47288427782778  6.19705306840684  2.18226452355236
 1 -4.34014797079708  5.71098226462646  1.04053722932293
 1 -9.23556560906091  5.95724187228723 -0.87047727592759
 1 -8.72535375127513  8.20053079197920  0.25711533333333
 1 -7.83978344414441  7.33764016351635  1.49239762526253
 1 -11.92345645074507  3.16191651765177 -2.14088709340934
 1 -13.37203687288729  1.89190308150815 -1.90149134063406
 1 -12.59261099219922  3.11329998469847 -0.57940918491849
 1 -12.51692647104711 -1.62709215431543 -1.02867782268227
 1 -13.31935065396540 -0.19429616641664 -1.70273580108011
 1 -13.20523687628763 -1.92118680488049 -3.29925981048105
 1 -12.72276584078408 -0.15243978157816 -3.84243773947395
 1 -11.50233651295130 -1.58313318041804 -3.48923754375438
 1 -9.04306390939094 -4.66628737163716 -1.85807907200720
 1 -7.95809517431743 -5.52472247644764 -0.70691030403040
 1 -9.60114999989999 -4.70109513081308 -0.13508533113311
 1 -3.60131082698270 -3.52817606830683 -0.21544681618162
 1 -1.60440860736074 -4.53433987368737  3.40835375067507
 1 -3.28786839543954 -5.52316393399340  3.63494633353335
 1 -1.80251836333633 -6.15218449164917  2.82524647754775
 1  2.69416872097210 -1.63338517441744 -1.69780374537454
 1  2.70787826542654 -0.27499321972197 -2.13098625082508
 1  4.36944785038504 -1.08987120232023  0.31822503850385
 1  4.00424938843884  1.05627433783378 -2.96618498819882
 1  5.67909332103210  2.11215147404740 -2.46091255945595
 1  5.69429673727373  0.57681878937894 -2.95323405440544
 1  6.28120018291829  1.61166516651665 -0.00434779197920
 1  6.61731585098510 -0.25951398879888  0.54270398709871
 1  7.54791217591759 -0.79847908310831 -1.66079740334033
 1  7.85521795769577  0.90299350745075 -1.89950287388739
 1  9.02987503910391  1.02135002000200  0.30517815001500
 1  8.75277376607661 -0.54316982318232  0.63770163386339
 1  10.28583613501350  0.17705024272427 -2.01038592809281
 1  9.05383036853685 -1.92310028652865 -2.05526145094509
 1  10.94017657335734 -2.20975775967597 -2.26822106600660
 1  9.80936382238224 -2.61363330533053 -0.76558599829983
 1  11.34891257215722  0.68654088428843  0.50346183368337
 1  11.46606966036604 -1.05764172547255  0.71646226782678
 1  12.89743306220622 -1.53141130233023 -0.99023669126913
 1  12.75037879037904  0.07735842684268 -1.60140350165017
 1  13.61310274697470  1.03035559155916  0.53667101010101
 1  13.87259001210121 -0.61831143584358  1.01650816731673
 1  15.38868215671567  0.54990447544754 -1.50415477347735
 1  15.38965640854085 -2.27133742584258 -0.06443789768977
 1  14.94610766146615 -1.92943531913191 -1.77300471557156
 1  16.54758438783879 -1.70803632853285 -1.24848631813181
 1  15.96645184588459  1.26936477017702  0.87506405070507
 1  16.54345879307931 -0.38255743084308  1.42987574877488
 1  18.28384932363236 -0.39127567496750 -0.36741008140814
 1  17.64339140364036  1.06457377627763 -1.11667524332433
 1  18.27089788238824  2.28923308100810  0.93235124042404
 1  18.70811797209721  0.80137431843184  1.85827582788279
 1  20.67000191289129  0.18916506470647  0.35535259925993
 1  20.02089619621962  2.91985554745475 -1.04571816521652
 1  21.47131138323832  2.32945959875988 -1.19545090839084
 1  20.30729463386339  1.20163197399740 -1.92913988298830
 1  20.99816579177918  1.37716582568257  2.32299191639164
 1  22.25173687998800  1.98413964366437  0.97460242654265
 1  21.12063179307931  3.04154423772377  1.41783222372237

