%nproc=4
%Mem=2GB
# td=(NStates=1) CAM-B3LYP/6-31G(d,p) 

TD

0 1
<<<<<<< HEAD
12 -7.24463503650365  0.67078582668267  0.13842152955296
 6 -4.89771438943894 -1.95931711011101  0.52256878957896
 6 -4.84191412031203  2.83264171147115  1.09395576047605
 6 -9.45557029252925  3.02269776527653 -0.42547540724072
 6 -9.55965627932793 -1.75471098209821 -0.86101253035304
 7 -5.19211263586359  0.40499031713171  0.75537595589559
 6 -4.40560026612661 -0.66882670467047  0.79098712191219
 6 -2.91492049744974 -0.32193161886189  1.20128048224823
 6 -2.99200263866387  1.15867853615362  1.61710244094409
 6 -4.41336833173317  1.58873962276228  1.11529855975598
 6 -2.93221830393039  1.12334462256226  3.19653106200620
 6 -1.93930739173917 -0.62888815021502  0.15295925422542
 6 -0.44796221882188 -0.54800914811481  0.65135926522652
 6  0.50842197939794 -0.86549006190619 -0.48727410791079
 8  0.30133137323732 -1.02369777737774 -1.72054838653865
 8  1.77645945644564 -0.52890028642864 -0.02186897579758
 7 -7.10381082898290  2.68266385618562  0.18401709720972
 6 -6.08206748574858  3.42752372817282  0.70347388098810
 6 -6.51686893999400  4.83042733213321  0.78557924512451
 6 -7.80730343734373  4.87467809930993  0.24320271157116
 6 -8.17804207580758  3.53950314561456  0.02171471777178
 6 -5.47723568026803  5.82528499439944  1.03544830533053
 6 -8.54184198179818  6.10507154085409  0.03842082748275
 6 -8.46366025732573  7.20193631223122  0.70364661446145
 7 -9.16732900550055  0.65953881498150 -0.48927296099610
 6 -9.96153241294129  1.80058001110111 -0.66001232533253
 6 -11.31731082768277  1.47119545864586 -1.20059177867787
 6 -11.31774417831783  0.15078044214421 -1.36664537853785
 6 -10.03719940064006 -0.41996397069707 -0.94265928202820
 6 -12.37666649034903  2.52536310731073 -1.32094886968697
 6 -12.37798234453445 -0.66178358845885 -1.81237204570457
 6 -12.30939842824282 -1.07198961016102 -3.28773389198920
 7 -7.11415088338834 -1.38696831043104 -0.15590026702670
 6 -8.30943118291829 -2.21800697279728 -0.44953990919092
 6 -7.85805195079508 -3.62018028552855 -0.44233151045105
 6 -6.54473835793579 -3.55741007800780 -0.04483621552155
 6 -6.20032262866287 -2.15934421572157  0.20214301850185
 6 -8.60605807320732 -4.87798064046405 -0.59746822522252
 6 -5.24462893319332 -4.36772065556556  0.07611048364836
 8 -5.01811064896490 -5.52680716411641 -0.07595056435644
 6 -4.12005558495850 -3.29411520132013  0.52288215351535
 6 -3.48527915881588 -3.70553577487749  1.76737711061106
 8 -3.55931753235324 -2.98255499169917  2.86133881498150
 8 -2.78733992769277 -4.81795651805180  1.74390297119712
 6 -2.14531511941194 -5.24818904800480  2.86024095959596
 6  2.78077058875888 -0.84512230683068 -1.07234843524352
 6  4.14614670367037 -0.51464964126413 -0.34886503550355
 6  5.20514399879988  0.24671093649365 -0.76680645334533
 6  5.13185160816082  1.16352900220022 -2.00724488978898
 6  6.54279861266127  0.41210306050605 -0.01148763396340
 6  7.69725726362636 -0.15507585448545 -0.83775072557256
 6  9.03644551715172 -0.10626575697570 -0.00766257905791
 6  10.21997262176218 -0.56786385808581 -0.80457142764276
 6  10.00775747594759 -2.08902983908391 -1.30920438543854
 6  11.42168504540454 -0.32032581338134 -0.02935206660666
 6  12.76258116581658 -0.53576762786279 -0.72690271317132
 6  13.99989945834583 -0.16792799559956  0.21199826732673
 6  15.38314443934394 -0.19570329942994 -0.43607184698470
 6  15.75765743464346 -1.63992162596260 -1.03947356505651
 6  16.46861096699670  0.23636799679968  0.48376288348835
 6  17.79397398679868  0.63626502490249 -0.21996781138114
 6  18.82505287478748  1.24919313631363  0.68011844484448
 6  20.16911558075807  1.43688402190219  0.08434319751975
 6  20.22251360516051  2.52133043024302 -1.17430842354235
 6  21.23997492829283  1.85985892219222  1.13084844824482
 1 -4.28122960746075  3.61532705410541  1.67837242414241
 1 -10.24370476317632  3.75903673867387 -0.36029142064206
 1 -10.09360264966497 -2.54333367416742 -1.38665531773177
 1 -2.55862231913191 -0.90868918281828  2.06835752695270
 1 -2.32810641584158  1.84037762036204  1.07181783218322
 1 -2.03614807230723  0.75950640354035  3.65167888138814
 1 -3.06103116311631  2.15243930143014  3.63214537993799
 1 -3.85589903260326  0.47133181718172  3.51064347714771
 1 -2.06113859875988 -1.62539249964996 -0.47224113331333
 1 -1.87318899139914  0.17501475187519 -0.59918995859586
 1 -0.20548406580658  0.42929754365437  0.89124952405241
 1 -0.13295109710971 -1.14375889108911  1.54061801700170
 1 -5.84439321472147  6.85806445054505  0.77120282948295
 1 -5.39850684008401  6.04891825492549  2.24027032413241
 1 -4.55350930693069  5.61911307770777  0.54701787738774
 1 -9.16796884938494  5.90974712281228 -0.98797902610261
 1 -8.67481869776978  8.12367310621062  0.22660228202820
 1 -7.85400486628663  7.26870326982698  1.57465585108511
 1 -12.23103720882088  3.21767209320932 -2.10287329202920
 1 -13.26330599979998  2.04799869106911 -1.08545973747375
 1 -12.47906963806381  3.15147380208021 -0.61790303430343
 1 -12.39122390079008 -1.49285873097310 -1.22849780468047
 1 -13.30480919981998 -0.16086282308231 -1.53281880938094
 1 -13.23961031363136 -1.69101378757876 -3.60461034553455
 1 -12.33040660486049 -0.10589512711271 -3.91870536623662
 1 -11.34743102240224 -1.30531539863986 -3.60785940594059
 1 -8.97187679067907 -4.88183892679268 -1.69569283338334
 1 -7.73654301910191 -5.56771677587759 -0.62142175517552
 1 -9.51153103800380 -5.14237925922592  0.08926710411041
 1 -3.30626132203220 -3.29376262696270 -0.17480275177518
 1 -1.62950111661166 -4.40874731443144  3.34095701100110
 1 -2.77988759735974 -5.89563118071807  3.68413125202520
 1 -1.44104221572157 -6.04171344454446  2.62976692959296
 1  2.64656396049605 -1.84740657655766 -1.33434739973997
 1  2.38201567916792  0.00047432703270 -1.71050420262026
 1  4.28758966456646 -1.09804201940194  0.48637185318532
 1  4.10820978447845  1.20456916731673 -2.41969033873387
 1  5.60890630233023  2.28373863276328 -2.00155662386239
 1  5.57110441804180  0.50489159665967 -2.71848057905791
 1  6.66972903580358  1.41190519051905  0.25946858965897
 1  6.29753387278728 -0.19055709310931  1.03927364406441
 1  7.45836322102210 -1.26492572777278 -0.90050137373737
 1  7.70274271017102  0.40082329042904 -1.78291121472147
 1  9.15125717731773  1.03162104710471  0.33011064326433
 1  8.87904639333934 -0.78596410261026  0.81252911661166
 1  10.15399295069507  0.13905644334433 -1.80276516601660
 1  9.09457444294429 -2.21357933443344 -1.88210413521352
 1  10.97824037973797 -2.28581536543654 -1.79406365026503
 1  9.85404829082908 -2.69008095009501 -0.43007244694469
 1  11.26061374227423  0.70103233343334  0.23878536603660
 1  11.29860291369137 -0.84634059535954  0.72185280688069
 1  12.90414373327333 -1.49220738193819 -1.20680834843484
 1  12.74517827032703  0.15649634063406 -1.61757511881188
 1  14.05205664236424  0.77454001000100  0.76673401640164
 1  14.06317907100710 -0.87561716641664  0.93390990749075
 1  15.21727501600160  0.51926141114111 -1.31416577457746
 1  15.90194763766377 -2.29365965806581 -0.16806826072607
 1  14.90388343904391 -2.23561593719372 -1.48799621472147
 1  16.42573220262026 -1.52613813871387 -1.71275274477448
 1  16.09352455315532  1.25561339503950  1.00775732003200
 1  16.71382582978298 -0.49920909600960  1.35317807900790
 1  18.56663760246025 -0.20979752715272 -0.70162350275028
 1  17.75730279477948  0.97636495539554 -1.31170474627463
 1  18.27671846444645  2.16394055175518  1.01832983828383
 1  19.05368252855286  0.63249743074307  1.63349334963496
 1  20.46165107780778  0.42382853105311 -0.44150708670867
 1  19.91369547614761  3.48058162006201 -0.84030762416242
 1  21.32906715881588  2.66148280108011 -1.58764012731273
 1  19.60649455385539  2.13736554735474 -2.05756272527253
 1  21.25522149734974  1.15066317541754  1.99092871007101
 1  22.31786349264926  1.92205343504350  0.78290325662566
 1  21.25055478537854  2.90344042734273  1.52744318481848
=======
12 -7.05237581058106  0.64726347444744  0.08567625502550
 6 -4.83350796879688 -1.90589176757676  0.52075860856086
 6 -4.74710463936394  2.90900934823482  1.14370073497350
 6 -9.37335207070707  3.06320181568157 -0.44537739743974
 6 -9.52117243094309 -1.73688919991999 -0.90933736283628
 7 -5.11492491709171  0.51357117521752  0.78438885718572
 6 -4.33955366146615 -0.70915073707371  0.77772579577958
 6 -2.96390539593959 -0.40451987768777  1.33776413061306
 6 -3.00562400080008  1.14655732403240  1.74705543624362
 6 -4.39814680958096  1.59414016281628  1.12425945584558
 6 -3.00373545564557  1.22112440054005  3.22588399729973
 6 -1.90526398739874 -0.72596785818582  0.25933989228923
 6 -0.45513293589359 -0.37862220942094  0.53738786808681
 6  0.56369750695070 -0.67806131903190 -0.51545692619262
 8  0.19239047914791 -0.84176958455846 -1.65857218891889
 8  1.68963077357736 -0.52557995439544 -0.14495128402840
 7 -7.04178462636264  2.56986257605761  0.32255095059506
 6 -6.08392767176718  3.41585256105611  0.69844337793779
 6 -6.38489574267427  4.77407169656966  0.74250493769377
 6 -7.72271497849785  4.87725835733573  0.31397978927893
 6 -8.17959223082308  3.46665586088609  0.02906545284528
 6 -5.54881283798380  5.95896836273627  1.06884164466447
 6 -8.56658445604560  6.03721475517552  0.09270625602560
 6 -8.34137802910291  7.24989110771077  0.74062031183118
 7 -9.13002527512751  0.64506736783678 -0.49574360806081
 6 -9.84674093379338  1.71153110621062 -0.69822614671467
 6 -11.15862495909591  1.43752209130913 -1.18552027152715
 6 -11.25169757365737  0.12851821592159 -1.27925663966397
 6 -9.95754143484348 -0.40963293759376 -0.89108412451245
 6 -12.13728255195520  2.45626619761976 -1.42463923872387
 6 -12.40593513981398 -0.74602201230123 -1.73698450695070
 6 -12.26389387778778 -0.95358776997700 -3.27620273887389
 7 -7.27653712201220 -1.40177979157916 -0.05064974197420
 6 -8.27605784558456 -2.24809998209821 -0.56723167836784
 6 -7.82910905650565 -3.57999626712671 -0.56161343864386
 6 -6.48159204330433 -3.49654399139914 -0.15517724962496
 6 -6.19774237063706 -2.18494677597760  0.14415721992199
 6 -8.54301176857686 -4.99218206060606 -0.87940641904190
 6 -5.38711318161816 -4.38209209270927  0.12090496309631
 8 -5.27203604150415 -5.56335081848185  0.10630766146615
 6 -4.14061764116412 -3.25380116991699  0.51447131243124
 6 -3.65758638953895 -3.79289451075108  1.83040341324132
 8 -3.92188378897890 -3.24443117931793  2.93498617971797
 8 -2.86433762746275 -4.83941866426643  1.72993157405741
 6 -2.20975156305631 -5.27297152625262  2.95307024252425
 6  2.76336884858486 -0.76747454205421 -1.16373757415742
 6  4.16829891889189 -0.39843802010201 -0.47096724572457
 6  5.14839832423242  0.33389965536554 -0.87998777147715
 6  5.15237366036604  1.13956660596060 -2.13744791009101
 6  6.42823715651565  0.47626947714771 -0.06476296149615
 6  7.70223776167617 -0.16077642454245 -0.80557750825083
 6  8.97993986658666 -0.16342147254725  0.05906409360936
 6  10.23437406190619 -0.62130920262026 -0.88349932043204
 6  10.18909560976098 -2.00022095819582 -1.37230069506951
 6  11.39738261516152 -0.39923370417042  0.05688655725573
 6  12.85414032173217 -0.43554760586059 -0.67550757365737
 6  14.01580104850485 -0.13073427622762  0.15047211471147
 6  15.34558068296830 -0.23635736483648 -0.45616385618562
 6  15.68710037893789 -1.71556919071907 -0.74560417811781
 6  16.40163426932693  0.38692305230523  0.29376388358836
 6  17.79191378077808  0.61023242164216 -0.26521233583358
 6  18.74905527502750  1.31335955295530  0.69534996799680
 6  20.20934960416042  1.49240957445745  0.13994875807581
 6  20.30101145494550  2.12044034123412 -1.25086607930793
 6  21.11434236503650  2.15567850415042  1.14843020642064
 1 -4.04184566906691  3.48874439583958  1.69951453835384
 1 -10.05621601430143  3.99046988198820 -0.68291368286829
 1 -10.30010329972997 -2.52290163096310 -1.20583723592359
 1 -2.66819327622762 -0.95432374627463  2.16224691589159
 1 -2.03562716791679  1.63782736533653  1.21800245064507
 1 -2.16254071157116  0.89601005390539  3.70660437393739
 1 -3.02614767476748  2.29425348284828  3.56033819921992
 1 -3.94583802650265  0.58152283628363  3.58044045684569
 1 -2.01482396729673 -1.91944190459046 -0.02307621682168
 1 -2.17450912341234 -0.19792254185419 -0.92691273087309
 1 -0.42820633803380  0.68411302520252  0.80019041814181
 1 -0.22224002600260 -0.83621813701370  1.53652760796080
 1 -5.78654743014301  6.70506915101510  0.25093080228023
 1 -5.78363535293529  6.19934329742974  2.10603690079008
 1 -4.25097905390539  5.68994016041604  1.04461763736374
 1 -9.32415446794679  5.92993914201420 -0.65285551375138
 1 -8.86959817571757  8.11438217711771  0.61990161196120
 1 -7.35744521032103  7.49245564506451  1.31328971447145
 1 -12.14395850095010  3.10515084108411 -2.15678868356836
 1 -13.05382505170517  1.90854474567457 -1.38087927942794
 1 -12.25228695979598  3.12309096379638 -0.54339558355836
 1 -12.26304108250825 -1.65667511261126 -1.14480943584358
 1 -13.32366108500850 -0.43790052685269 -1.25555108260826
 1 -13.12432878547855 -1.80278496469647 -3.62914279877988
 1 -12.33521708590859 -0.15319985758576 -3.75853934963496
 1 -11.41158743804380 -1.64872974007401 -3.63720234023402
 1 -9.02137174017402 -5.04430517341734 -1.98704196829683
 1 -7.78891825662566 -5.97382738693869 -0.72572218521852
 1 -9.53381326622662 -5.21116613791379 -0.23979580218022
 1 -3.31231192709271 -3.51616486718672 -0.19187445894589
 1 -1.35339350585058 -4.53253969366937  2.96556947224722
 1 -3.02226183478348 -5.26621823942394  3.96862970187019
 1 -2.11485959745975 -6.53702297549755  2.56191014391439
 1  2.66361566566657 -1.85909774567457 -1.49382334733473
 1  2.54037151475147 -0.11896761716172 -1.93219637183718
 1  4.26945785138514 -1.04102631783178  0.44274749074907
 1  4.09362832633263  1.39566827722772 -2.43493186288629
 1  5.65881129282928  2.17601786068607 -1.99747621582158
 1  5.89604691229123  0.65462657015701 -2.78954768576858
 1  6.57213927682768  1.51716571657166  0.00103274607461
 1  6.37215133453345 -0.01709974737474  0.85548526522652
 1  7.48867625232523 -1.25439467466747 -1.14599592319232
 1  8.06329876577658  0.49610281838184 -1.78480140374037
 1  9.01112316391639  0.59784766976698  0.47517514971497
 1  8.79193768246825 -0.87880338653865  0.90131799549955
 1  10.27552510391039  0.10376291399140 -1.72718760826083
 1  9.33315830133013 -2.22877085358536 -2.08438436323632
 1  10.97531008670867 -2.35467225112511 -1.98157240114011
 1  10.13033591959196 -2.83471541354135 -0.45734517421742
 1  11.26457413831383  0.57430966116612  0.43566505400540
 1  11.04329738313831 -0.91771773307331  0.96924754635464
 1  12.84670798969897 -1.65466362756276 -1.05278294589459
 1  12.90863461596160  0.01555224622462 -1.62470583188319
 1  13.94734617131713  1.11400395639564  0.29400674367437
 1  14.03959671277128 -0.77282688738874  1.13824034053405
 1  15.24531782028203  0.25057454245425 -1.23347770577058
 1  16.04667211011101 -2.31646193829383  0.18995754185419
 1  14.98266131683168 -2.41577395299530 -1.11619903500350
 1  16.44018364776478 -1.49902542744274 -1.56189765926593
 1  16.03205840654065  1.23938177187719  0.70685723002300
 1  16.65132958015801 -0.22581175627563  1.25916867806781
 1  18.02034297299730 -0.26442298969897 -0.78504184458446
 1  17.70342740724072  1.30643796269627 -1.20680425622562
 1  18.26320711331133  2.35822998069807  0.66401440674067
 1  18.68572573287329  0.99966414741474  1.79520952125213
 1  20.53286819951995  0.40508665686569  0.03686075007501
 1  19.57511161776177  3.17479104100410 -1.34459805320532
 1  21.43154740684069  2.08413506630663 -1.53374473777378
 1  19.78278218261826  1.33261507230723 -2.06162313131313
 1  21.12486846204621  1.59698780788079  2.07982759996000
 1  22.16136784308431  2.06712794249425  0.80799576587659
 1  20.94530426032603  3.17225730903090  1.32079251975198
>>>>>>> 8e03b5b5abfc0030b3aa597dc0de36371bfbd096

