%nproc=4
%Mem=2GB
# td=(NStates=1) CAM-B3LYP/6-31G(d,p) 

TD

0 1
<<<<<<< HEAD
12 -7.19343991699170  0.61195994409441  0.07172485988599
 6 -4.98279289728973 -1.91825300370037  0.43930046274627
 6 -4.79463939283928  2.77485593289329  1.12415878077808
 6 -9.31973670917092  3.12045754125413 -0.38244110381038
 6 -9.55301561526153 -1.74603011401140 -0.84868129722972
 7 -5.09602302690269  0.38817863596360  0.76247666596660
 6 -4.27628733483348 -0.73032285428543  0.68176619981998
 6 -2.89575858125813 -0.45720514621462  1.11238159235924
 6 -3.02848628702870  1.07447011531153  1.54457518821882
 6 -4.36801379627963  1.47182793159316  1.18065509540954
 6 -2.84311939403940  1.21997428552855  3.09474088298830
 6 -1.90876433743374 -0.65968122952295  0.00913487178718
 6 -0.43196061866187 -0.43643799099910  0.41270539983998
 6  0.56238737593759 -0.65779929282928 -0.80968634913491
 8  0.21011225132513 -1.10326573417342 -1.83352968466847
 8  1.75974778527853 -0.35377277367737 -0.33488027692769
 7 -7.13305375327533  2.62816840664066  0.35350404590459
 6 -6.05261454045405  3.35024600040004  0.77081061466147
 6 -6.42357961106111  4.77181147054706  0.82160284748475
 6 -7.85283799079908  4.91971260276028  0.48708710001000
 6 -8.20455472707271  3.57542673797380  0.10130267656766
 6 -5.47678563526353  5.93993645954596  1.09268402890289
 6 -8.53664146174617  6.06704773847385  0.23325031043104
 6 -8.39099299059906  7.21480759935994  1.01250750055006
 7 -9.18259053165317  0.64251711281128 -0.42483651735174
 6 -9.90335659535954  1.75986593969397 -0.49356568066807
 6 -11.22544164076408  1.46651499059906 -1.04960668016802
 6 -11.28186058995900  0.18481384548455 -1.22478119211921
 6 -9.96783246394639 -0.33372534683468 -0.77708272437244
 6 -12.25853467716772  2.51573214421442 -1.53422019681968
 6 -12.42043658995900 -0.73219062916292 -1.82523333183318
 6 -12.04971245964597 -1.13514592579258 -3.30851597019702
 7 -7.16869633793379 -1.44120373397340 -0.06248092509251
 6 -8.30902114191419 -2.21494666676668 -0.53052800800080
 6 -7.91578772437244 -3.54871313881388 -0.49092636993699
 6 -6.59137302140214 -3.64309864686469 -0.07502923482348
 6 -6.21285388178818 -2.21702998429843  0.05704850905091
 6 -8.61103857125713 -4.75235807820782 -0.89945842424242
 6 -5.39878434873487 -4.39318320182018  0.30334320692069
 8 -5.23399223712371 -5.62842732613261  0.37158418911891
 6 -4.32416599599960 -3.26212200200020  0.58414828012801
 6 -3.62263289418942 -3.65259048034803  1.90612098499850
 8 -3.60698229882988 -3.01749848604860  3.00640332143214
 8 -2.78611980568057 -4.73764848724873  1.78701728262826
 6 -2.15086567446745 -5.20045427452745  2.99267420292029
 6  2.82825533723372 -0.64843263786379 -1.39301050145015
 6  4.14271636063606 -0.50864904120412 -0.61660180918092
 6  5.23126661106111  0.24890115551555 -1.13122289498950
 6  5.25677410041004  1.03513616291629 -2.40988515381538
 6  6.40843517631763  0.41914376457646 -0.31717820302030
 6  7.65921345924593 -0.39714006090609 -0.96754370487049
 6  8.92420429302930 -0.18442357275728 -0.01513332613261
 6  10.21741236573657 -0.64835190689069 -0.76103707420742
 6  10.16023272347235 -2.11088202430243 -1.16880034503450
 6  11.40481335823582 -0.36568034883488  0.09484035263526
 6  12.72471737943794 -0.58948299939994 -0.59147917081708
 6  13.96459592799280 -0.19826102890289  0.28591565906591
 6  15.35224134903490 -0.20271400050005 -0.42145038483848
 6  15.83693536243624 -1.65461309510951 -0.76160577827783
 6  16.35726983288329  0.57475183518352  0.47311181838184
 6  17.74021861126112  0.66339773817382 -0.18302411701170
 6  18.79327969746975  1.35305352235224  0.75742617561756
 6  20.23453212241224  1.44505483898390  0.13295805900590
 6  20.20927228102810  2.47844614181418 -1.21084207690769
 6  21.20241117191719  1.95022795909591  1.25431079447945
 1 -4.07738922342234  3.25538105950595  1.53981856875688
 1 -10.17716810951095  3.89753058805881 -0.56517190869087
 1 -10.34822811221122 -2.38116745754575 -1.22769942214221
 1 -2.80109656655666 -1.21069938383838  2.02815350655065
 1 -2.46233983918392  1.72104568716872  0.89525017541754
 1 -1.89310376787679  0.73583403630363  3.48750246374637
 1 -2.61504656465647  2.26936099359936  3.47664983038304
 1 -3.69332277497750  0.82331701570157  3.69274168696870
 1 -2.13284576947695 -1.51029098949895 -0.47760166936694
 1 -2.22867453995400  0.00374762516252 -0.69377941754176
 1 -0.09603312071207  0.56883149704970  0.95144554365437
 1 -0.16600440244024 -1.21881639683968  1.09387334253425
 1 -5.96228500390039  6.65206385048505  0.38893460266027
 1 -5.55061205060506  6.31051441454145  2.11435773287329
 1 -4.49836379237924  5.86931809820982  0.83953712931293
 1 -9.13853590609061  6.08726487458746 -0.67352758095810
 1 -9.22865408130813  7.96225696459646  0.95382500430043
 1 -7.81324078987899  7.10050645014501  1.85859424492449
 1 -11.93713781888189  3.11259158515852 -2.39566257095710
 1 -13.20100977017702  2.00610450165016 -1.64043523502350
 1 -12.33905563666367  3.44642329702970 -0.85721696569657
 1 -12.62531731013101 -1.53467291239124 -1.06837179207921
 1 -13.53976269516952 -0.29448618541854 -1.89997552505251
 1 -12.73498985158516 -1.78120280648065 -3.88278816331633
 1 -12.30782434663466 -0.16214075167517 -4.13496699239924
 1 -11.15310158945895 -1.44288915601560 -3.65827444744474
 1 -8.74774437743774 -4.94169491239124 -1.98666193029303
 1 -8.05619498429843 -5.62354235843584 -0.54828444144414
 1 -9.50373025792579 -4.73946896819682 -0.19078090069007
 1 -3.63546424232423 -3.44476772747275 -0.16724199569957
 1 -1.52650081658166 -4.45322176187619  3.64251716701670
 1 -2.94687429602960 -5.53978559615962  3.74471731063106
 1 -1.45469358085809 -6.03330260346035  2.74323827672767
 1  2.56891619571957 -1.62522435833583 -1.69398336333633
 1  2.98268574617462  0.11012529212921 -2.23493664586459
 1  4.21752265786579 -0.92424463966397  0.33900711671167
 1  4.13404236773677  1.17830654105411 -2.77620599029903
 1  5.77915332703270  2.12250250915092 -2.31773824202420
 1  5.52790009760976  0.35642675017502 -3.25699443044304
 1  6.96184824772477  1.49974397439744 -0.38081543874387
 1  6.33226734613461  0.09371133373337  0.85537525422542
 1  7.30210759545955 -1.37419665486549 -1.24010533413341
 1  7.95858829472947  0.02918612671267 -1.85847877147715
 1  9.14219627122712  0.79368725372537 -0.01652402020202
 1  8.91550003870387 -0.60762626882688  1.04060192389239
 1  10.49130668206821 -0.05258272057206 -1.68753364286429
 1  9.22367735323532 -2.42268024452445 -1.95643156795680
 1  11.14645720142014 -2.30827761166117 -1.36861110501050
 1  10.02516540254025 -2.82504444644464 -0.18986842654265
 1  11.42807048794879  0.68990122032203  0.49807129462946
 1  11.39657271067107 -1.06237219851985  0.91416203780378
 1  12.59996331523152 -1.84146230743074 -0.85904357195720
 1  12.63745749824982  0.02353304430443 -1.53644700600060
 1  13.73600503720372  0.79725228122812  0.81168851185119
 1  13.74758751185118 -0.72294189888989  1.18957547404740
 1  14.97007029552955  0.04801428642864 -1.39175353335334
 1  16.35174261716172 -2.06572686478648  0.19382792889289
 1  14.82744579527953 -2.46117849344934 -1.08675609070907
 1  16.67599722912291 -1.51648717361736 -1.51850331983198
 1  15.96293149384938  1.56719455315532  0.83166971127113
 1  16.53636808400840 -0.12284145924592  1.48285104630463
 1  18.18361930063006 -0.35993254065407 -0.12274561496150
 1  17.76832389688969  1.37416473537354 -1.02209578537854
 1  18.56715750835084  2.48916307400740  1.16430443574357
 1  18.87038419871987  0.75264944594459  1.73332333263326
 1  20.68519343204321  0.49825597379738 -0.35204814081408
 1  19.94568867546754  3.43960752265227 -0.88637223062306
 1  21.25417967006701  2.38891554435444 -1.61821318461846
 1  19.67926183058306  2.13697550835083 -1.93661063006301
 1  21.32057803300330  1.23968207730773  2.10824044124412
 1  22.29887159345935  1.97426865656566  0.83268823512351
 1  21.13552328222822  3.06299638293829  1.74512495299530
=======
12 -7.26462703570357  0.58756750485049  0.18943663106311
 6 -4.87306192419242 -1.89911108950895  0.62036856955696
 6 -4.82531246014601  2.81990043734373  1.18137450235023
 6 -9.40924566006601  3.11229672517252 -0.39443230293029
 6 -9.53943425712571 -1.73037854885489 -0.94368079717972
 7 -5.12896632123212  0.54749456755676  0.91675209350935
 6 -4.41107081318132 -0.67958778077808  0.90111813501350
 6 -2.90752975837584 -0.42864228992899  1.27793814801480
 6 -3.06205964436444  1.08037070537054  1.63008373907391
 6 -4.43622061696170  1.51257200600060  1.21353838373837
 6 -2.81752683478348  1.43438572667267  3.07719912881288
 6 -1.97940140114011 -0.65919118051805  0.08874283258326
 6 -0.50889831243124 -0.45636998419842  0.45031916121612
 6  0.50476161336134 -0.73938745164516 -0.64121950245025
 8  0.30597183728373 -0.99888529612961 -1.81388772047205
 8  1.81764357485749 -0.65462285868587 -0.14241103000300
 7 -7.16720716861686  2.69976556635664  0.36457515301530
 6 -6.03367264626463  3.42323329912991  0.71613514711471
 6 -6.37737499059906  4.78994328372837  0.72285297249725
 6 -7.68802150915092  4.84766539803980  0.28882727402740
 6 -8.20991526312631  3.56833602890289  0.15703825012501
 6 -5.38124608130813  5.87622008790879  1.07416217671767
 6 -8.57767556515651  6.05455648934894  0.30106709210921
 6 -8.46071996329633  7.20440655925593  0.86542279207921
 7 -9.16624889748975  0.62287514861486 -0.52019605330533
 6 -9.89227548724872  1.79286924002400 -0.66021234533453
 6 -11.22197129372937  1.39150748984898 -1.14949666916692
 6 -11.21523392729273  0.04443980808081 -1.33869258325833
 6 -9.84957063776378 -0.43953592789279 -1.04234925102510
 6 -12.29114793849385  2.40218078907891 -1.37672444724472
 6 -12.27105165146515 -0.88379578967897 -1.81750255875588
 6 -12.01795928432843 -1.33158556975698 -3.25123024162416
 7 -7.18212768106811 -1.47576719031903  0.04531985498550
 6 -8.18971921172117 -2.18654382648265 -0.40281523672367
 6 -7.77492363796380 -3.58441670917092 -0.57863514081408
 6 -6.38277216131613 -3.61661599859986 -0.14102583448345
 6 -6.08615121152115 -2.19647792909291  0.15585839003900
 6 -8.62328979637964 -4.73724656705671 -0.92556103450345
 6 -5.18812328262826 -4.30597448094809  0.05769864246425
 8 -5.10393923182318 -5.55512999639964  0.07226425712571
 6 -4.08315189458946 -3.28579436923692  0.47979784508451
 6 -3.43936456735674 -3.55596081738174  1.86136650955095
 8 -3.74755635623562 -2.93512024822482  2.90992367346735
 8 -2.74522571627163 -4.69835455785579  1.89785836673667
 6 -2.23525411331133 -5.21544577367737  3.12655759125913
 6  2.85735824752475 -0.72503029762976 -1.29301050145015
 6  4.04025611461146 -0.55633380968097 -0.61670181918192
 6  5.02061554595460  0.37805407080708 -0.89369914261426
 6  5.02623104610461  1.27387003630363 -2.12909707500750
 6  6.31640597339734  0.44604645484548 -0.32073855905591
 6  7.63525106300630  0.00456010911091 -0.95934288478848
 6  8.93600547314731  0.03654852445245 -0.11631344414441
 6  10.17701832633263 -0.59530660236024 -0.78410938143814
 6  10.04042074227423 -1.99366030213021 -1.26756022102210
 6  11.37664054095410 -0.27396117691769 -0.03108223962396
 6  12.68442335003500 -0.48686273737374 -0.69871989488949
 6  13.93154262266227 -0.14251545434543  0.12069913741374
 6  15.32127825272527 -0.15164889398940 -0.58160640044004
 6  15.61157282618262 -1.57248488228823 -1.05975559325933
 6  16.37755186108611  0.40095445544554  0.40025453265327
 6  17.79456404580458  0.55272667106711 -0.24170998559856
 6  18.78929929942994  1.25887410441044  0.76017645064506
 6  20.23611228042804  1.21159149264927  0.28726348954895
 6  20.33190454425442  1.91642994019402 -1.04323531623162
 6  21.13612454325433  1.95041797809781  1.34802016541654
 1 -3.92757424192419  3.37182270367037  1.46838142504250
 1 -10.14409480218022  3.82557339233923 -0.55235062656266
 1 -10.04744803420342 -2.55976531733173 -1.58694534673467
 1 -2.70655711261126 -1.12156046994699  2.03443413461346
 1 -2.35136874207421  1.86241982458246  1.07832848324833
 1 -1.75470992849285  1.08889934283428  3.47074078757876
 1 -2.95413047304730  2.52122618011801  3.43132529792979
 1 -3.56132957565757  0.77427211121112  3.72026443924392
 1 -2.03606609150915 -1.62570253065307 -0.23918782798280
 1 -2.06753842634263  0.04042129252925 -0.75438547814781
 1 -0.16615013241324  0.28739335323532  1.20207060616062
 1 -0.31334913691369 -1.53860837603760  1.14233818901890
 1 -5.63162193759376  6.73487213131313  0.61525723492349
 1 -5.57034402380238  6.27495085818582  2.01899819691969
 1 -4.30878483448345  5.54507567396740  0.91118429402940
 1 -9.54274632713271  5.89867601570157 -0.39049927812781
 1 -9.19630084598460  8.02990372927293  0.54955457725773
 1 -7.57113657945795  7.46133253275328  1.40419880538054
 1 -11.93404750985099  3.01618194419442 -2.36080908560856
 1 -13.29733940314031  1.88457234843484 -1.65756694819482
 1 -12.25649738083809  3.00410906560656 -0.45935717971797
 1 -12.50976575497550 -1.81322076717672 -1.14734968986899
 1 -13.24890360926093 -0.42568930573057 -1.68506403390339
 1 -12.72505885848585 -2.16860154635464 -3.60900078457846
 1 -12.06261982618262 -0.31247578517852 -3.80292378807881
 1 -11.06543282258226 -1.86830169726973 -3.36390501050105
 1 -9.02850245324533 -4.67615835873587 -1.98629189328933
 1 -8.04928429322932 -5.76623662786279 -0.68436804980498
 1 -9.56169605450545 -4.67927294859486 -0.31831365396540
 1 -3.35496619251925 -3.13330658135814 -0.26884215571557
 1 -1.71885005150515 -4.37103354305431  3.75174809010901
 1 -3.13625323392339 -5.67680929852985  3.60673351225123
 1 -1.18657676917692 -5.65779505270527  2.96929088198820
 1  2.77920722482248 -1.65638747464746 -1.83689765476548
 1  2.92118959655966  0.00939521912191 -2.09303245544554
 1  4.33559446504650 -1.19671188638864  0.25652886888689
 1  3.98647761126113  1.39974868526853 -2.49854822452245
 1  5.57084249594960  2.24284454335434 -1.93355982418242
 1  5.64427173477348  0.81402250975098 -2.99427815881588
 1  6.39074113701370  1.49045304530453  0.08528117091709
 1  6.19955407480748 -0.08710674807481  0.78740845754575
 1  7.17962534723472 -1.07876711191119 -1.25900722432243
 1  7.68801123702370  0.52937614571457 -1.83690661426143
 1  9.08535058665866  1.09387727272727  0.13896152835284
 1  8.64994348304831 -0.50251575777578  0.79086695039504
 1  10.37140469186919 -0.14978244054405 -1.84793968346835
 1  8.93520850635064 -2.11750972747275 -1.73460938573857
 1  11.04005656135614 -2.16362314621462 -1.80940518441844
 1  10.05986887288729 -2.53345528752875 -0.31650108980898
 1  11.14585226612661  0.66964919511951  0.69782126962696
 1  11.45176823022302 -1.05824178547855  0.77549817141714
 1  12.78438175707571 -1.51010917211721 -1.05987365496550
 1  12.82368612111211  0.11449214021402 -1.68434179547955
 1  13.89853128982898  0.88191074707471  0.56996433943394
 1  13.90028278137814 -0.85524512921292  0.92858937543754
 1  15.27547083558356  0.58954843984398 -1.52586694469447
 1  15.56940438333833 -2.25196548864887 -0.27045849974997
 1  14.75565861656166 -1.73203557915792 -1.75005242034203
 1  16.56267589698970 -1.61901742664266 -1.63200466996700
 1  15.81570677137714  1.38518635233523  0.72735928022802
 1  16.34197864506450 -0.18716789188919  1.34804756595660
 1  18.20220115881588 -0.32970951835184 -0.53379672007201
 1  17.80223728822882  1.16260357925793 -1.03814739053905
 1  18.32778357095710  2.17843200090009  1.21939994529453
 1  18.84269142944295  0.85980016101610  1.76964696499650
 1  20.36640155285529  0.17920406860686  0.20315737973797
 1  19.98402250885088  2.85533909580958 -0.94272786618662
 1  21.36414066616662  1.90754740754075 -1.44105546884688
 1  19.76050995539554  1.26035784658466 -1.82413938293829
 1  20.90245622082208  1.63669177827783  2.44605422262226
 1  22.11042274857486  1.88834006370637  1.24377934423442
 1  20.93683341324132  3.11236131943194  1.38981942244224
>>>>>>> 8e03b5b5abfc0030b3aa597dc0de36371bfbd096

