%nproc=4
%Mem=3GB
# td=(NStates=1) iop(3/107=0140000000,3/108=0140000000) CAM-B3LYP/6-31G(d,p) 

TD

0 1
12 -7.13886857855786  0.64423280678068  0.11709807980798
 6 -4.88655747224723 -1.99568679927993  0.55784118651865
 6 -4.80702673327333  2.81166988488849  1.07246735193519
 6 -9.44089085358536  3.07108466146615 -0.35916839213921
 6 -9.53810990899090 -1.77909967566757 -0.87697450235024
 7 -5.10805783698370  0.44754084468447  0.73097092109211
 6 -4.33080532783278 -0.73133427662766  0.85701359605961
 6 -2.91436765736574 -0.42710110811081  1.24329999909991
 6 -3.04523775067507  1.07555625722572  1.58866514581458
 6 -4.41168140284028  1.45372002310231  1.14241863576358
 6 -2.91496767756776  1.33843666296630  3.12366768136814
 6 -1.93636936663666 -0.61575756495650  0.02694650495050
 6 -0.43904961416142 -0.41551479947995  0.47643102540254
 6  0.43139506270627 -0.49802642454245 -0.70149994009401
 8  0.13037325412541 -0.73716749444945 -1.81552894599460
 8  1.75022362076208 -0.25015495389539 -0.24071945954595
 7 -7.04868251165117  2.68597180708071  0.37747867196720
 6 -6.03693383718372  3.47996176357636  0.70141601770177
 6 -6.37527243564356  4.89086595019502  0.74909316801680
 6 -7.77881266656666  4.88199000420042  0.38831495789579
 6 -8.12931245874587  3.51189812861286  0.11289928852885
 6 -5.44800683458346  6.00066954065407  1.14820497569757
 6 -8.61620162816282  6.09221949154915  0.30010062256226
 6 -8.39236764676468  7.26572572227223  0.84178823812381
 7 -9.12860190129013  0.68457545194519 -0.47101367526753
 6 -9.90354784108411  1.80068339263926 -0.60396320982098
 6 -11.17613156585659  1.49865931043104 -1.03631849154915
 6 -11.24032351955196  0.13860140594059 -1.31166119441944
 6 -10.00436804040404 -0.38780897429743 -0.89969217051705
 6 -12.31392232993299  2.40189543094309 -1.38499795249525
 6 -12.33804759765977 -0.77041316511651 -1.79193852445245
 6 -12.24932684158416 -1.28502869516952 -3.24065471667167
 7 -7.24815777817782 -1.46351118681868 -0.11368404350435
 6 -8.30352467876788 -2.23414195969597 -0.39666124602460
 6 -7.79106114591459 -3.68364891629163 -0.41685198499850
 6 -6.47281507200720 -3.53326630873087 -0.03329541124112
 6 -6.20860459215922 -2.22714066986699  0.08845068046805
 6 -8.63720606010601 -4.86719281768177 -0.70044342744274
 6 -5.36251171407141 -4.37509107250725  0.15907088118812
 8 -5.24590558285829 -5.57421427842784  0.10263621222122
 6 -4.13147765036504 -3.31145859325933  0.50441876347635
 6 -3.48573275007501 -3.64301224392439  1.83249921842184
 8 -3.68470125352535 -3.16310366826683  2.87736109430943
 8 -2.56531188398840 -4.57434605310531  1.52870190769077
 6 -2.04514347134713 -5.10808601450145  2.82711011141114
 6  2.80553687408741 -0.69508779767977 -1.24162767996800
 6  4.18178906410641 -0.50609587748775 -0.60434299709971
 6  5.22435792709271  0.26037256525653 -1.00083296029603
 6  5.18928265386539  1.18404607990799 -2.15351948694869
 6  6.46462274097410  0.44764538053805 -0.22808333273327
 6  7.61461291389139 -0.12576112411241 -1.08939926862686
 6  8.91888960056006 -0.13496531263126 -0.27902400480048
 6  10.24356981758176 -0.64345600880088 -0.83630935093509
 6  10.00437371397140 -2.10687856775678 -1.24683164916492
 6  11.49311397519752 -0.40642553365337  0.01215325282528
 6  12.75983371887189 -0.68282831633163 -0.54744224932493
 6  14.03211448324832 -0.24459017331733  0.20767717931793
 6  15.41537752875288 -0.31321040464046 -0.37261291379138
 6  15.72865913691369 -1.78309669796980 -0.80271209750975
 6  16.42068906160616  0.27453397069707  0.57805253995400
 6  17.78055564326433  0.52267599719972 -0.11158768576858
 6  18.71424184278428  1.21964004250425  0.75112836953695
 6  20.18889169356936  1.35127455995600  0.19273597959796
 6  20.11294414021402  2.20969827492749 -1.12606730263026
 6  21.07252231923192  2.04846654655466  1.29409334933493
 1 -4.09399976347635  3.64482773417342  1.29241533733373
 1 -10.45520764406441  3.64688696319632 -0.41207573377338
 1 -10.29272369646965 -2.79342487758776 -0.95262308170817
 1 -2.53925121232123 -0.93262346504650  2.14750124082408
 1 -2.15575904220422  1.50935299639964  1.17465111411141
 1 -1.92864595099510  1.29614872127213  3.61166150355035
 1 -3.43601071017102  2.33331255405541  3.37904592679268
 1 -3.52651545204520  0.50535568986899  3.69063074827483
 1 -1.96738185718572 -1.67456812761276 -0.21754976207621
 1 -2.35425179417942  0.01595921572157 -0.85611234583458
 1 -0.24855028372837  0.62762234953495  0.76029989298930
 1 -0.10632905320532 -1.17084785138514  1.17750120842084
 1 -5.46976115381538  6.96020353235324  0.61553138443844
 1 -5.67644911621162  6.15918880028003  2.18749076157616
 1 -4.33521836643664  5.45096936493649  1.05288602120212
 1 -9.53965422522252  5.85814919691969 -0.15143649634963
 1 -9.15176424012401  7.96653637463746  0.58062783848385
 1 -7.37496542864286  7.67111394779478  1.33091205150515
 1 -12.06964743774377  3.31036018311831 -2.11629746124612
 1 -13.06301359905991  1.79150789318932 -1.96694242244224
 1 -12.91634266696670  2.88678601270127 -0.45096553605361
 1 -12.37659962486249 -1.74254517731773 -1.10223372427243
 1 -13.20360265936594 -0.27757046754675 -1.55125087948795
 1 -13.13457865706571 -2.09099276137614 -3.34341529962996
 1 -12.37660806650665 -0.42004047534753 -3.89022800120012
 1 -11.33689852925293 -1.95358638583858 -3.28051632983298
 1 -8.94258887748775 -4.72969947074707 -1.80853691669167
 1 -8.05047943314331 -5.78760471377138 -0.47143709880988
 1 -9.64064824382438 -4.91778022642264 -0.12762503120312
 1 -3.36701421992199 -3.39466607220722 -0.24155189328933
 1 -1.29668305590559 -4.53598581198120  3.26463818141814
 1 -2.78862529982998 -5.47365689058906  3.58785982368237
 1 -1.60448096859686 -6.07324810961096  2.47847120822082
 1  2.78728678347835 -1.62576919971997 -1.43050449914991
 1  2.68458489978998 -0.12230414561456 -2.07442850035004
 1  4.24921540824082 -1.14153256705671  0.30430183038304
 1  4.07370268176818  1.27000254295429 -2.71419190489049
 1  5.62917985018502  2.31229165306531 -1.91286872527253
 1  5.68237780628063  0.83839503040304 -3.08506476337634
 1  6.78533671757176  1.41887186778678  0.08943855775578
 1  6.38300617271727 -0.09452678937894  0.71449764526453
 1  7.25219734253425 -1.05952662566257 -1.86704146134613
 1  7.78690124862486  0.70005910891089 -1.88498932183218
 1  9.14905094939494  0.91370086758676  0.01566399449945
 1  8.85463858465847 -0.67399575227523  0.56153227662766
 1  10.45359999179918 -0.15414926712671 -1.76820197819782
 1  9.16546615571557 -2.38187647114711 -1.74427280918092
 1  10.76468560916092 -2.30986438573857 -1.94322968106811
 1  10.42894509160916 -2.78848296299630 -0.38404579827983
 1  11.38322996459646  0.70130656405641  0.48669644044404
 1  11.25072266776678 -1.06763806140614  0.87905422552255
 1  12.84133208570857 -1.73583100240024 -0.83712598409841
 1  12.62990882078208 -0.04215927992799 -1.60117445114511
 1  13.74421584188419  0.72079744304430  0.46746157485749
 1  14.02769107970797 -0.80586696559656  1.03046542054205
 1  15.41793219461946  0.42577597459746 -1.31189245804580
 1  15.55561935873587 -2.26814615581558  0.22191405590559
 1  14.88558020242024 -2.10060458045805 -1.54547592109211
 1  16.85472375197520 -1.82754365136514 -1.08197471077108
 1  16.01866514001400  1.25936427012701  0.79743565986599
 1  16.37811188898890 -0.32942922772277  1.29652814751475
 1  18.19479621732173 -0.60210672467247 -0.21927212281228
 1  17.80531784138414  1.11599049314931 -1.13738948254825
 1  18.28139719661966  2.15003627162716  1.22954490129013
 1  18.69390535303530  0.57920275977598  1.69960320582058
 1  20.60677050935094  0.41788278587859  0.02926881908191
 1  19.73037985648565  3.25036581308131 -0.74667685238524
 1  21.26989078987899  2.47713885598560 -1.40156813801380
 1  19.46798519611961  1.62210250045004 -2.00563894829483
 1  21.20527438093809  1.57068270917092  2.21960562936294
 1  22.12220011281128  2.02905337603760  1.06259291289129
 1  20.61975205370537  3.08471458865887  1.40534767146715

