%nproc=4
%Mem=3GB
# td=(NStates=1) iop(3/107=0140000000,3/108=0140000000) CAM-B3LYP/6-31G(d,p) 

TD

0 1
12 -7.18314300600060  0.60277866136614  0.09920629062906
 6 -4.83537235373537 -1.92248947954795  0.38093349574957
 6 -4.75535156575658  2.78631734963496  1.10419052425243
 6 -9.47628439293930  3.16658421142114 -0.32133460876088
 6 -9.58302440044005 -1.71874364006401 -0.91693849874987
 7 -5.01931896309631  0.40168625922592  0.62423024702470
 6 -4.24062630993099 -0.64654579777978  0.57799569426943
 6 -2.88187440804080 -0.51807020502050  1.19442511161116
 6 -3.04356758365837  0.99046774837484  1.64045032433243
 6 -4.32339257395740  1.45650030113011  1.05051944584458
 6 -2.61540772157216  1.27012983228323  3.11287660226023
 6 -1.95236096579658 -0.76347233643364  0.01400521082108
 6 -0.48008371757176 -0.49148239623962  0.61785516781678
 6  0.57688961216122 -0.71304792669267 -0.46832662276228
 8  0.26768698549855 -1.06256003370337 -1.65335272837284
 8  1.92213081148115 -0.53261319971997 -0.14741012861286
 7 -7.15305294869487  2.57325053495350  0.30911183528353
 6 -6.05409555335534  3.25928969636964  0.83918979507951
 6 -6.35462037043704  4.73044990859086  0.77527578627863
 6 -7.63488827412741  4.82710451565157  0.34190031643164
 6 -8.10545007250725  3.46856379517952  0.01182918151815
 6 -5.44383641754175  5.87947742144214  1.21082123732373
 6 -8.50488049604960  5.95021529112911  0.15348596109611
 6 -8.29661807180718  7.19808895859586  0.61855591489149
 7 -9.18290733183318  0.64987198159816 -0.37138371227123
 6 -9.85903338963896  1.83560688498850 -0.57523033653365
 6 -11.20301425412541  1.55949539403940 -1.01802666236624
 6 -11.29789927712771  0.12657020282028 -1.17583761206121
 6 -10.03788139173917 -0.35229542294229 -0.80325252655266
 6 -12.20148108580858  2.54576981838184 -1.33153260596060
 6 -12.44589838273827 -0.68944506830683 -1.66620595119512
 6 -12.39688159705971 -1.00178037033703 -3.27505815701570
 7 -7.17830079247925 -1.34940977667767 -0.24259693479348
 6 -8.27852217851785 -2.17662620812081 -0.52941452135214
 6 -7.77778981878188 -3.57105765716572 -0.60856115591559
 6 -6.50321811231123 -3.56792977507751 -0.14739682138214
 6 -6.15276900860086 -2.19767772357236  0.08270010541054
 6 -8.67373971347135 -4.75772187058706 -0.89001238433843
 6 -5.27212267516752 -4.41162472587259  0.17166214031403
 8 -5.17507850015001 -5.57170402740274  0.21562751135114
 6 -4.17930243284328 -3.28229567696770  0.55637395899590
 6 -3.72208638543854 -3.73860180288029  1.86036200470047
 8 -3.97928071147115 -3.02310966886689  2.91283464166417
 8 -2.91130648344835 -4.76599521802180  1.81099013651365
 6 -2.35534449144915 -5.22746795269527  3.03986138653865
 6  2.84429074947495 -0.72043033193319 -1.11336485368537
 6  4.18328921412141 -0.44005927382738 -0.50935349814982
 6  5.08340383168317  0.25648217621762 -0.95225810281028
 6  5.06816054165416  1.18381605690569 -2.19348348334834
 6  6.45039131783178  0.55683629962996 -0.02565308970897
 6  7.63893534613461 -0.07795634363436 -0.92371269997000
 6  8.97307501910191 -0.09608142424242 -0.23733983638364
 6  10.15474093469347 -0.51209287248725 -0.99024474447445
 6  10.01567484408441 -1.96622450235023 -1.42128909490949
 6  11.40803546734673 -0.28211310241024 -0.10016797929793
 6  12.86343407890789 -0.54704473797380 -0.74732223732373
 6  14.02716398819882 -0.02071778607861  0.15960237183718
 6  15.37945393639364 -0.16971605520552 -0.46958261076108
 6  15.72398866986699 -1.65947433573357 -0.81658348464846
 6  16.40813780648065  0.36505302260226  0.35234996969697
 6  17.82371995969597  0.50881461106111 -0.14276080308031
 6  18.76210662926292  1.27769584808481  0.67032028872887
 6  20.25511831623162  1.33519295179518  0.25568227422742
 6  20.32623546934693  2.17457476257626 -0.98827352325233
 6  21.04006907390739  1.96375807570757  1.38768270827083
 1 -3.97093745724572  3.59920317171717  1.65959205500550
 1 -10.01571369466947  4.01867414191419 -0.55131965816582
 1 -10.37530195429543 -2.33436897199720 -1.14763258265827
 1 -2.61924921212121 -1.13554375707571  2.17279377007701
 1 -2.16570003630363  1.59746180728073  1.17289093809381
 1 -1.62182526892689  0.87840694709471  3.31731206860686
 1 -2.87375448454846  2.20920014281428  3.44013203540354
 1 -3.30502330283028  0.49990514481448  3.82236392159216
 1 -2.09389450845085 -1.84605527632763 -0.05613362046205
 1 -2.29139550855085 -0.18695107530753 -0.90064679927993
 1 -0.44115954465447  0.53372295959596  0.86463032603260
 1 -0.27981640194019 -1.27401816841684  1.41924538283828
 1 -5.45031920962096  6.82189970197020  0.40997082838284
 1 -6.04859633093309  6.34230711211121  2.09942195469547
 1 -4.41641648624862  5.56340060806081  1.19611034363436
 1 -9.38243850365036  5.80558394039404 -0.49473082578258
 1 -8.86888595229523  8.15757547854786  0.50659043474347
 1 -7.51223915601560  7.26532336873687  1.30525948624862
 1 -11.94504497749775  3.16362550965097 -2.36211204270427
 1 -13.00643794149415  2.03750249264926 -1.73943967216722
 1 -12.66374740744075  3.19365669976998 -0.43955439493949
 1 -12.50154211911191 -1.51283220602060 -1.14324782568257
 1 -13.32199449854986 -0.28426113661366 -1.61987774217422
 1 -13.47361256045605 -1.47459112121212 -3.54852581068107
 1 -12.39242964866487  0.04170569926993 -3.54515349374938
 1 -11.47686252565257 -1.54268529572957 -3.33038131633163
 1 -9.41503612221222 -4.88093459425943 -1.80080614361436
 1 -7.99712409760976 -5.54770072337234 -1.03019297439744
 1 -9.35375955495550 -4.88609705810581 -0.07928019671967
 1 -3.37420493899390 -3.64352095769577 -0.07341507960796
 1 -2.07424081168117 -4.26182839623962  3.68546026362636
 1 -2.97405384268427 -5.88106763166317  3.72181321902190
 1 -1.42688320882088 -5.74482526732673  2.78083144424442
 1  2.94323237803780 -1.80265688848885 -1.64374582328233
 1  2.70733717501750 -0.00385230043004 -1.93700475797580
 1  4.42433291999200 -1.14908332213221  0.38416981718172
 1  3.97354266576658  0.83205874857486 -2.70561104680468
 1  5.08449538173817  2.26323674757476 -1.97752519091909
 1  5.92225179367937  0.92782397329733 -3.00279653655366
 1  6.48228641254125  1.71762174277428  0.22648226212621
 1  6.34444231633163 -0.23135047174717  0.84959115461546
 1  7.18261038383838 -1.14580525352535 -1.13995875307531
 1  7.85896845534553  0.48970807380738 -1.81928275117512
 1  9.26257230153015  0.92368186568657  0.02309473757376
 1  8.91778489928993 -0.48318667136714  0.83461958535854
 1  10.12114674647465  0.17739388718872 -1.87858301630163
 1  9.21767137623762 -2.01605988948895 -2.10817919981998
 1  10.96668580918092 -2.43230662996300 -1.52514787288729
 1  9.38513071017102 -2.45505962066207 -0.61855924962496
 1  11.49138077967797  0.82660909430943  0.26905467626763
 1  11.37164475997600 -0.86656795439544  0.84928124822482
 1  13.20723867636764 -1.67314473377338 -1.05488776027603
 1  12.99792562246225  0.04695963196320 -1.65860019371937
 1  13.85851727202720  1.01044640794079  0.28041286998700
 1  14.06216452705270 -0.55789216811681  0.99650202420242
 1  15.38843924532453  0.51021441844184 -1.43015428422842
 1  15.81728552535253 -2.24303364456446  0.06122798729873
 1  15.06279792419242 -2.07753227322732 -1.45523689718972
 1  16.83741202080208 -1.64160505750575 -1.33127964126413
 1  16.19626289978998  1.43526185988599  0.68585450175018
 1  16.33390746854685 -0.16045233003300  1.24981347604760
 1  17.96911364906491 -0.62718923292329 -0.57328752435244
 1  17.73591090069007  0.94791368546855 -1.01327707130713
 1  18.48949800670067  2.28028929692969  0.90372231903190
 1  18.75966192869287  0.77686252575257  1.50619386488649
 1  20.58997883018302  0.33362436003600 -0.15478958675867
 1  20.13525034353436  3.19981075757576 -0.75979816451645
 1  21.31646544734474  2.25911705380538 -1.28392637383738
 1  19.81428982658266  1.70075036523652 -1.84812319671967
 1  21.06713056655666  1.38338397929793  2.20211388018802
 1  22.23691158395840  2.16412688338834  1.14962161576158
 1  20.79732981148115  3.06152226942694  1.61799893659366

