%nproc=4
%Mem=2GB
# td=(NStates=1) CAM-B3LYP/6-31G(d,p) 

TD

0 1
12 -7.10384095709571  0.59989873797380  0.04647233463346
 6 -4.86440105810581 -1.98369954835484  0.54962149484948
 6 -4.83805373427343  2.76971541884188  1.15847221212121
 6 -9.43973870937094  3.05387088258826 -0.36919977967797
 6 -9.60497081078108 -1.78337384838484 -0.77055348444844
 7 -5.05966939153915  0.41434125222522  0.57095751405141
 6 -4.31943164926493 -0.68916873887389  0.72042006520652
 6 -2.89878888428843 -0.29016844254425  1.19508986318632
 6 -2.96584002240224  1.20451311961196  1.57728845954595
 6 -4.34470146504650  1.58784953375338  1.07710474037404
 6 -2.80709579167917  1.31450373847385  3.13127453635364
 6 -1.83949741074107 -0.59072433383338  0.07924188248825
 6 -0.42362978557856 -0.35777012421242  0.44169829912991
 6  0.54827596479648 -0.57337084998500 -0.78299367986799
 8  0.28024926502650 -0.90796620422042 -1.84236056775678
 8  1.88385019551955 -0.44557195359536 -0.25620240914091
 7 -7.11695214311431  2.60582617241724  0.32999169466947
 6 -6.01815109410941  3.32306328212821  0.76339987358736
 6 -6.42577983108311  4.76912120152015  0.75206589378938
 6 -7.78394110111011  4.81356198769877  0.44152254355436
 6 -8.13831810341034  3.42495169046905  0.09548209450945
 6 -5.41818977567757  5.94266673257326  1.16307106760676
 6 -8.64178197579758  5.96192722642264  0.18867585298530
 6 -8.52994688598860  7.15581169976998  0.81113736353635
 7 -9.06313858645865  0.69498235933593 -0.52563659735974
 6 -9.91731799149915  1.77491744484448 -0.71554787888789
 6 -11.26723582018202  1.44566290539054 -1.03853557305731
 6 -11.31215361926193  0.04008937303730 -1.14634334833483
 6 -9.88780446114611 -0.45241721602160 -0.72223723982398
 6 -12.36417524122412  2.48813938493849 -1.37628440324032
 6 -12.48594314061406 -0.81475888598860 -1.53232404090409
 6 -12.39873736213621 -1.27418983018302 -3.09991511011101
 7 -7.27907737603760 -1.35270488408841 -0.17580225722572
 6 -8.29351959175918 -2.17736290839084 -0.44562951815182
 6 -7.89803594919492 -3.56996526402640 -0.45983326062606
 6 -6.53489737383738 -3.52254659165917 -0.07352908480848
 6 -6.21628422482248 -2.12359064036404  0.14650745494549
 6 -8.63113058045804 -4.77225006740674 -0.84779325772577
 6 -5.34269874017402 -4.31679556305631  0.15530840344034
 8 -5.25430426832683 -5.52069655305530  0.24659168986899
 6 -4.16137971737174 -3.31437722752275  0.54477434273427
 6 -3.56927755865587 -3.70115533683368  1.84579495239524
 8 -3.85941754235424 -3.15468220442044  2.89540222132213
 8 -2.65575676937694 -4.66829155155516  1.67870645154515
 6 -2.00554114201420 -4.99564379347935  2.95464039953995
 6  2.83821633333333 -0.66594438903890 -1.24618581898190
 6  4.11062315131513 -0.42709088538854 -0.62367251625163
 6  5.15101858625863  0.22369863526353 -1.07423719641964
 6  5.10209863286329  1.04108675797580 -2.43491765706571
 6  6.45873020582058  0.27275912611261 -0.35350183538354
 6  7.73606114401440 -0.20436078297830 -1.08836578707871
 6  8.95148702130213 -0.22873800420042 -0.23465527832783
 6  10.22969359385939 -0.66012308400840 -0.92719368986899
 6  10.25300200040004 -2.07385832193219 -1.32703616861686
 6  11.37573044994499 -0.30691447224722 -0.02357148854885
 6  12.72136704440444 -0.61228527962796 -0.64020404330433
 6  13.92834230263026 -0.07250845364536  0.27903497099710
 6  15.31200732563256 -0.12487621672167 -0.38931717151715
 6  15.71357302620262 -1.53164079787979 -0.80085970367037
 6  16.43674778067807  0.43829818981898  0.61883639083908
 6  17.83130772017202  0.63830522892289 -0.06570238483848
 6  18.83279364886489  1.22382059905991  0.84831526452645
 6  20.20120879007901  1.35966630013001  0.28874363756376
 6  20.19181053485348  2.08680697789779 -1.07291828452845
 6  21.23270420122012  1.95387832413241  1.39257462086209
 1 -4.10203168766877  3.57664318571857  1.43526811371137
 1 -10.22693308600860  3.73088392339234 -0.64942033353335
 1 -10.31908519791979 -2.55438477927793 -1.23623027522752
 1 -2.53484994189419 -0.75059337323732  2.11787247844784
 1 -2.28672227742774  1.79674325692569  0.93107375777578
 1 -1.89153361086109  1.19482993589359  3.46465017851785
 1 -3.11815687568757  2.24282834033403  3.55214738013801
 1 -3.36311975467547  0.59021370537054  3.62537495029503
 1 -2.09936242114211 -1.61046100650065 -0.20738464766477
 1 -2.28242991549155 -0.00587333693369 -0.61360139973997
 1 -0.24920843824382  0.82159677357736  0.48925932503250
 1 -0.07033483548355 -0.85762027722772  1.42390634583458
 1 -5.60553932933293  6.74716336043604  0.67463317251725
 1 -5.60341733113311  5.98535189828983  2.40450674777478
 1 -4.31464542054205  5.55853702010201  0.92613578917892
 1 -9.33806585908591  5.72103825192519 -0.59812004020402
 1 -9.32134335023502  7.92278301720172  0.53947356915692
 1 -7.94024349014901  7.22688908840884  1.69435782128213
 1 -12.27977208230823  3.07946827282728 -2.15315832053205
 1 -13.21757142634263  1.92585647684769 -1.81367255875588
 1 -12.57156888798880  3.16847550225022 -0.45300654465447
 1 -12.58860363876388 -1.63572301740174 -1.11472642754275
 1 -13.43886260516052 -0.25027176397640 -1.41103663116312
 1 -13.33727007960796 -1.73617830403040 -3.28246813131313
 1 -12.13273683788379 -0.29488402600260 -3.56901039673967
 1 -11.44844112341234 -1.86137100420042 -3.30213883388339
 1 -9.07674727772777 -4.59980072297230 -1.72512577667767
 1 -7.99956932173217 -5.59568957315732 -0.57995760876088
 1 -9.60471035593559 -4.89844486578658 -0.35906772937294
 1 -3.63502419831983 -3.36161941264126 -0.43138841034103
 1 -1.42669083558356 -4.02386882658266  3.22767568286829
 1 -2.62986259485949 -5.53193481108111  3.73159599849985
 1 -1.06466457795780 -5.70089936313631  2.64519847274728
 1  2.70656996109611 -1.65086692259226 -1.70276424142414
 1  2.40365784338434 -0.10410613101310 -2.21725487768777
 1  4.25735664126413 -0.79162137733773  0.38294151015102
 1  3.92537150065007  1.52007071747175 -2.56704507420742
 1  5.62923833553355  2.05975623452345 -2.12044851305131
 1  5.64650195779578  0.81403251075108 -3.44068279927993
 1  6.56237830073007  1.25830983098310 -0.01251860906091
 1  6.45020914031403 -0.22277031443144  0.63983370007001
 1  7.27762514721472 -1.24312354755476 -1.30558188178818
 1  7.72149458535854  0.56943015111511 -2.00443336693669
 1  9.01575362696270  0.88440632563256  0.25166279847985
 1  8.81059954865487 -0.82104761096110  0.67119498319832
 1  10.31711926332633 -0.01092855515551 -1.97311220072007
 1  9.37211219671967 -2.25039301580158 -1.80943686848685
 1  10.95238779447945 -2.49956674057406 -1.95164940884088
 1  10.16494938093810 -2.67487942994299 -0.56912635233523
 1  11.24161184208421  0.78279050925092  0.35936742424242
 1  11.31390444384439 -0.94597055835584  1.00479110071007
 1  13.04547786668667 -1.62228038923892 -0.90796846444644
 1  12.75498925142514 -0.16357566656666 -1.49024238553855
 1  13.65660709740974  0.99220177617762  0.53395073807381
 1  13.98921167426743 -0.67993759845985  1.16543305980598
 1  15.37938122662266  0.61023050805081 -1.19909426742674
 1  15.83738118101810 -2.09696998909891  0.11042958905891
 1  14.99178222892289 -1.99871224682468 -1.59626704180418
 1  16.64933456285629 -1.69944546944694 -1.31564303380338
 1  16.24324952565257  1.53401123482348  0.91240778507851
 1  16.49972441964196 -0.12911208630863  1.48401116231623
 1  18.19896083478348 -0.41255780318032 -0.48237157755776
 1  17.78376544104411  1.50244756365637 -0.82687626342634
 1  18.51208200080008  2.17035119281928  1.18792679797980
 1  18.81764892519252  0.68935311631163  1.84032403270327
 1  20.51380629332933  0.38979512771277  0.17738480248025
 1  19.76368047464746  3.23404696659666 -0.81820541394139
 1  21.26447069916992  2.00319697249725 -1.51343270657066
 1  19.48370227462746  1.29261107190719 -1.64127109610961
 1  20.88677465266527  1.19839794889489  2.27576719391939
 1  22.21241294759476  1.99744097379738  0.98425339163916
 1  21.20715044494450  3.01723180648065  1.58403884438444

