%nproc=4
%Mem=2GB
# td=(NStates=1) CAM-B3LYP/6-31G(d,p) 

TD

0 1
12 -7.10850142314231  0.61823057115712 -0.00614292689269
 6 -4.84292891089109 -2.02188336673667  0.40337687038704
 6 -4.82760268916892  2.88147659495950  1.08174453935394
 6 -9.35841057655766  3.13363885938594 -0.47118997869787
 6 -9.56637695139514 -1.77089260026003 -0.83318974807481
 7 -5.07435085968597  0.37136695479548  0.69330974927493
 6 -4.31858156425643 -0.79571939393939  0.84335235843584
 6 -2.92482148754875 -0.48605803150315  1.27485783998400
 6 -3.00683412181218  0.95647831613161  1.68278900960096
 6 -4.39606660156016  1.46258700750075  1.08228525842584
 6 -2.93537861996200  1.22874516261626  3.21493290219022
 6 -1.85672913391339 -0.72456771817182  0.09567352565257
 6 -0.45782320492049 -0.58639298649865  0.54794892419242
 6  0.47366850405041 -0.79051256415642 -0.50657603810381
 8  0.28484972507251 -1.24081948954896 -1.59479581128113
 8  1.79229103960396 -0.65167256365637 -0.09348613751375
 7 -7.06354680258026  2.55339092889289  0.17313600910091
 6 -6.00316959595960  3.36511748754875  0.58592212581258
 6 -6.40052730583058  4.77684197359736  0.69365005220522
 6 -7.73586629362936  4.87774840634063  0.29848824012401
 6 -8.13920819241924  3.46705590089009  0.02059460576058
 6 -5.55028298499850  5.79874234013401  1.16931169166917
 6 -8.56409420702070  6.02922395609561  0.10223720912091
 6 -8.44460835213521  7.16204232283228  0.85743199299930
 7 -9.11920419301930  0.75339820092009 -0.64065809950995
 6 -9.89955621532153  1.82958291139114 -0.71773809790979
 6 -11.28502759935994  1.54120245934593 -1.13548526802680
 6 -11.28472087598760  0.10936630073007 -1.21497021102110
 6 -9.89707538823882 -0.41172314661466 -1.01562657875788
 6 -12.38982780648065  2.54075464646465 -1.29412618741874
 6 -12.49146369266927 -0.71532894299430 -1.54705551405141
 6 -12.52929041744174 -1.08745115631563 -3.09937505610561
 7 -7.20909037733773 -1.32369198279828 -0.25151982898290
 6 -8.29952019181918 -2.24200937303730 -0.42286724192419
 6 -7.89588573417342 -3.55699396689669 -0.38297557485749
 6 -6.51398528262826 -3.52180651765177 -0.12124385628563
 6 -6.15716831323132 -2.17458573987399  0.04164696889689
 6 -8.83570103750375 -4.72944578697870 -0.73662214061406
 6 -5.44681915221522 -4.34972885638564  0.17814068666867
 8 -5.30658949684968 -5.55178966236624  0.17763479417942
 6 -4.15954953435344 -3.36136192599260  0.56537640294029
 6 -3.59663029392939 -3.60838605990599  1.94066443934393
 8 -3.69974157475748 -3.02021875807581  2.94800748184818
 8 -2.91014220792079 -4.76742146454645  1.86626520742074
 6 -2.29715030293029 -5.19240346944694  3.01966690219022
 6  2.71779429112911 -0.79518731333133 -1.07979918031803
 6  4.10979306830683 -0.49055723202320 -0.53086323532353
 6  5.16133961836184  0.38773503890389 -0.93123289598960
 6  4.98085650865086  1.12878552785279 -2.22790695599560
 6  6.46260059285929  0.51528337853785 -0.21610809600960
 6  7.74701223912391 -0.09348969586959 -1.07350430093009
 6  8.97956982958296  0.01035590519052 -0.21671348414841
 6  10.22852347684768 -0.44234130583058 -0.94592556305631
 6  10.16166286648665 -1.86006694279428 -1.51018448344834
 6  11.51682455935594 -0.16146992779278 -0.03672280368037
 6  12.86775168286829 -0.31608565966597 -0.83468349124912
 6  14.07994746314631 -0.05494669746975  0.06367343484348
 6  15.43545967086709 -0.13895762486249 -0.59574781458146
 6  15.73684535343534 -1.59305693949395 -1.04002362006201
 6  16.47006111201120  0.46011037103710  0.39139364656466
 6  17.89954454385438  0.58639003740374 -0.08851466606661
 6  18.88670904040404  1.16597481448145  0.85793622662266
 6  20.36585525472547  1.33346367986799  0.33221798499850
 6  20.47762911671167  2.22174047124712 -0.93449444214421
 6  21.27804873567357  1.85350828712871  1.41192655605561
 1 -4.16460794529453  3.69187470887089  1.70239482638264
 1 -10.02527291999200  3.81766260126013 -0.62222761426143
 1 -10.30704399379938 -2.57508684948495 -1.01696834903490
 1 -2.72312876977698 -1.13862217611761  1.91649234043404
 1 -2.37623122832283  1.43576715931593  1.03376402680268
 1 -1.89782423992399  0.94948540144014  3.52079579307931
 1 -3.40077513751375  2.19532358985899  3.34873703910391
 1 -3.62631607430743  0.60234491849185  3.61509392219222
 1 -1.94200668556856 -1.82920288068807 -0.14929883908391
 1 -2.11248292079208 -0.17361011061106 -0.87578761836184
 1 -0.39202271967197  0.30142475637564  0.90315071417142
 1 -0.39425722772277 -1.40304481968197  1.32226618181818
 1 -5.75736451185118  6.76448509260926  0.83007871707171
 1 -5.68801579097910  6.06841020412041  2.17255355245525
 1 -4.50736469246925  5.57012817921792  1.00946412201220
 1 -9.19217126962696  6.02738888698870 -0.81906213441344
 1 -9.12557377327733  8.30588132703270  0.99603922572257
 1 -7.70903036883688  7.31936833633363  1.64180256575658
 1 -12.11028513361336  3.04285461146115 -2.23048605330533
 1 -13.25559522872287  1.74640853205321 -1.55408660016002
 1 -12.62660439153916  3.28676733143314 -0.59570081408141
 1 -12.37029180758076 -1.68681812691269 -1.24607956285629
 1 -13.44895361426143 -0.23794053085309 -1.25426095359536
 1 -13.34376072867287 -1.77216190239024 -3.28652853735374
 1 -12.73977754195420 -0.20761529912991 -3.85097859355936
 1 -11.58402468176818 -1.56549141624162 -3.33224184418442
 1 -9.13078268126813 -4.71822256515652 -1.77579084318432
 1 -8.37569693449345 -5.75515551975198 -0.81539115211521
 1 -9.48759864476448 -4.88714373567357 -0.14679650225023
 1 -3.31155185108511 -3.50369362006201 -0.14374964646465
 1 -2.00393856035604 -4.35319175887589  3.47989090439044
 1 -2.94857446604660 -5.77957957555756  3.77776061496150
 1 -1.36441455295530 -5.79070834403440  2.69323327622762
 1  2.68902820692069 -2.02420425632563 -1.35906987198720
 1  2.31730920852085 -0.22578829922992 -2.00084323652365
 1  4.53605451105111 -1.04735695089509  0.29806302230223
 1  3.97731669516952  1.05329403980398 -2.56889525922592
 1  5.35063047474747  2.23277353625363 -2.07357382558256
 1  5.57439474707471  0.69196030353035 -3.05436416741674
 1  6.64772683558356  1.52987698769877  0.15788843164316
 1  6.50455457485749 -0.13287132453245  0.69080879757976
 1  7.34564194889489 -1.07465670087009 -1.36500782438244
 1  8.14870730663066  0.18333154125413 -1.85690861446145
 1  9.22303435503550  1.05919380438044  0.13985161736174
 1  8.95970445914592 -0.61335684188419  0.76747461116112
 1  10.41599915131513  0.40127266496650 -1.73637852735274
 1  9.41141612711271 -1.91807978447845 -2.11801772657266
 1  11.07615017071707 -2.06740352425243 -2.00864510841084
 1  10.22348523452345 -2.73418536053605 -0.58397783748375
 1  11.45113279417942  0.90488271847185  0.18160964846485
 1  11.67822087548755 -0.73214917621762  0.92323294489449
 1  12.52574589348935 -1.44427258845885 -1.30166783438344
 1  12.74593834633463  0.31458214921492 -1.63599696099610
 1  13.79155059175918  0.99840239623962  0.56024336733673
 1  14.00837359045905 -0.72255185988599  0.90624714121412
 1  15.35504879337934  0.48937842284228 -1.33579793779378
 1  15.95885332823282 -2.25744603670367 -0.12802425632563
 1  15.07778082878288 -2.30641301690169 -1.55484289938994
 1  16.88833846324633 -1.54914043894389 -1.43948541804180
 1  16.05730093079308  1.30194802850285  0.96816336063606
 1  16.41820626782678 -0.20655983108311  1.21000376157616
 1  18.12497343604360 -0.48981552895290 -0.55204854525453
 1  17.83080014451445  1.26957427632763 -0.92931650745075
 1  18.44185497809781  2.04877903560356  1.12558056335634
 1  19.00477763806381  0.57513169416942  1.82802280258026
 1  20.76046095879588  0.28763491169117  0.04241130513051
 1  20.12836694329433  3.17753131503150 -0.63074666806681
 1  21.39856410851085  2.08785543834383 -1.32008337163716
 1  19.72464636903690  1.99515132593259 -1.63993096209621
 1  21.30323629882988  1.34676278537854  2.49819943714371
 1  22.29455116141614  1.83528475817582  1.17070203650365
 1  21.03421315121512  2.88879896319632  1.79081952245224

