%nproc=4
%Mem=2GB
# td=(NStates=1) CAM-B3LYP/6-31G(d,p) 

TD

0 1
<<<<<<< HEAD
12 -7.12570314331433  0.61176992509251  0.05008269566957
 6 -4.85728034603460 -1.95525670407041  0.56088262096210
 6 -4.84851478037804  2.83800224752475  1.14783114801480
 6 -9.43466820232023  3.02144764026403 -0.32973583328333
 6 -9.44541485518552 -1.74818032903290 -1.02287871697170
 7 -5.05863928852885  0.51511132923292  0.75045546384638
 6 -4.26725643174317 -0.68758858085809  0.80625864906491
 6 -2.85417442284228 -0.37179660536054  1.18988934313431
 6 -3.03272671107111  1.12725539383938  1.68303903460346
 6 -4.34033102800280  1.55875662446245  1.14831186108611
 6 -3.07145222732273  1.27344963306331  3.19194060296030
 6 -1.87281074207421 -0.58654391579158  0.03926788508851
 6 -0.36442386498650 -0.51298564576458  0.52325645494549
 6  0.54445558275828 -0.69705321822182 -0.61243662416242
 8  0.20945218531853 -1.02560796839684 -1.71385771747175
 8  1.81565337583758 -0.41742913931393 -0.32667945684568
 7 -7.14402485038504  2.62917850765076  0.43830252575258
 6 -6.15566484548455  3.39757073287329  0.87929146274627
 6 -6.46119337243724  4.75908019741974  0.89463015021502
 6 -7.75725843284328  4.88462909440944  0.32779117041704
 6 -8.17574184578458  3.42873206850685  0.12786533283328
 6 -5.55017297399740  5.87024949084909  1.39405416591659
 6 -8.70756855445545  5.97535856955696  0.35709269466947
 6 -8.42734662596260  7.21021714031403  0.93746999679968
 7 -9.06947922052205  0.64246710781078 -0.60437447114711
 6 -9.83150941064106  1.86122607570757 -0.67683400750075
 6 -11.14664376097610  1.46632497159716 -1.28780049954996
 6 -11.23788619251925  0.09234459855986 -1.33890260426043
 6 -9.90602628332833 -0.42003397769777 -0.97819283538354
 6 -12.31137996169617  2.45601617261726 -1.46237301210121
 6 -12.34713926022602 -0.75488289838984 -1.96051686018602
 6 -12.18875636403640 -1.02853526472647 -3.46665178377838
 7 -7.20556002430243 -1.39606922052205 -0.14723940094009
 6 -8.19416965676568 -2.27122229432943 -0.60884583978398
 6 -7.69036518211821 -3.62072033953395 -0.61586886418642
 6 -6.41535541964196 -3.57060139713971 -0.23259499139914
 6 -6.19901249764976 -2.21345962726273  0.05110791499150
 6 -8.42149961736174 -4.82857569997000 -0.86838531693169
 6 -5.31440591089109 -4.40007389088909  0.18739161176118
 8 -5.17365620352035 -5.53203768716872  0.34095112581258
 6 -4.20859443884388 -3.31325711551155  0.59707957325733
 6 -3.65108573947395 -3.57942316361636  2.00930130303030
 8 -3.98075967656766 -2.94414115031503  3.03324600570057
 8 -2.82491368506851 -4.72502722512251  2.00007858875888
 6 -2.32264285218522 -5.09011324042404  3.28507344284428
 6  2.85274778647865 -0.68850664526453 -1.28708990939094
 6  4.16848893789379 -0.47965614191419 -0.63116326532653
 6  5.14681816621662  0.39145541094109 -0.93391316401640
 6  5.13724214721472  1.23359600890089 -2.15670983628363
 6  6.49265359815982  0.43722557275728 -0.27096358155816
 6  7.73114065196520 -0.18663901080108 -0.99711666216622
 6  8.89942181478148 -0.17764289468947 -0.13760557335734
 6  10.20317094159416 -0.81856892859286 -0.80024099459946
 6  10.12333903410341 -2.29739067516752 -1.18014147914792
 6  11.40955383228323 -0.39256303710371  0.03546441504150
 6  12.74934984268427 -0.59300335143514 -0.75876589948995
 6  14.05028449684968 -0.25668687148715  0.09692676017602
 6  15.41777790269027 -0.26554028312831 -0.53152139193919
 6  15.78456012491249 -1.71035866966697 -0.89632925062506
 6  16.44810891679168  0.35862022202220  0.29388389558956
 6  17.80291488088809  0.55382678107811 -0.28397421202120
 6  18.70405077457746  1.36458467546755  0.73116354935494
 6  20.11314998419842  1.56539687318732  0.20498526172617
 6  20.19539089288929  2.27651594879488 -1.07507850055006
 6  21.08509944074407  2.11051398769877  1.26106146954695
 1 -4.20338182268227  3.75446096749675  1.53239782668267
 1 -10.21184157685769  3.86604743974397 -0.41305669716972
 1 -10.22953624302430 -2.53034237503750 -1.35386203840384
 1 -2.57091354825483 -0.94915322922292  2.19418010921092
 1 -2.24387799299930  1.78043162576258  1.04824547494750
 1 -2.06368082558256  0.80451090399040  3.45896961046105
 1 -3.22207726772677  2.35187924542454  3.47258942434243
 1 -4.05778922162216  0.64915959996000  3.69938235103510
 1 -2.04913739863986 -1.52809276967697 -0.38574248344835
 1 -1.88471014351435  0.18480573097310 -0.71898193779378
 1  0.03678016061606  0.55558017191719  0.98813921302130
 1 -0.27237503950395 -1.31325584078408  1.32262621782178
 1 -5.75585436083608  6.77439608370837  1.00865657485749
 1 -5.66036302570257  5.88284164726473  2.36697299439944
 1 -4.48274223022302  5.41543270967097  1.09364253985399
 1 -9.39498155065507  5.84858100620062 -0.49301953015302
 1 -9.08497971387139  7.91262200110011  0.46753637543754
 1 -7.66662612841284  7.28557495699570  1.67442582808281
 1 -11.93257736283628  2.98907923392339 -2.21086409110911
 1 -13.19373904310431  1.94095798699870 -1.76398759025903
 1 -12.31272300340034  3.00917957265727 -0.42959420342034
 1 -12.42019679807981 -1.63718316341634 -1.31384633953395
 1 -13.13292201110111 -0.17462419921992 -1.82359788728873
 1 -13.09684603720372 -1.70587527372737 -3.70235011951195
 1 -12.43499706390639 -0.02823736133613 -4.05458895459546
 1 -11.19590586988699 -1.54922979007901 -3.46341496149615
 1 -8.89150875387539 -5.06734747764777 -1.92060532463246
 1 -7.75296466126612 -5.64087409160916 -0.77781739473947
 1 -9.06466635153515 -5.05695071637164 -0.11688351095109
 1 -3.38579927582758 -3.43627687838784 -0.09825509700970
 1 -2.04719288578858 -4.15959239893989  3.93010592589259
 1 -3.08598820742074 -5.63413503110311  4.13484632353235
 1 -1.47030514201420 -5.65527480068007  3.25224917781778
 1  2.79909921402140 -1.63533536943694 -1.68596256125613
 1  2.58965644324432 -0.06458217861786 -2.14087723992399
 1  4.26071697729773 -1.38377059225923  0.06918013401340
 1  4.09040800430043  1.25071378177818 -2.76396476617662
 1  5.35448085978598  2.34519477837784 -1.68456492469247
 1  5.92243955155516  0.95578668616862 -2.84604333533353
 1  6.83017508040804  1.44223822382238 -0.05581293849385
 1  6.55745986538654 -0.14608264566457  0.69333905060506
 1  7.28824620932093 -1.10175941114111 -1.23601492509251
 1  7.88238067396740  0.39199240734073 -1.92114503810381
 1  9.12991504310431  0.77517540254025  0.14259189138914
 1  8.67756624532453 -0.77397290349035  0.71514937863786
 1  10.26773432483248 -0.41966942924292 -1.71462635213521
 1  9.48124310981098 -2.49297727422742 -1.89565549034904
 1  10.93110566626663 -2.60592737663766 -1.66468071197120
 1  9.88865175117512 -3.11242318431843 -0.27510695039504
 1  11.46096377727773  0.49298152835284  0.27908939643964
 1  11.37611066446645 -1.07046300760076  0.90139076067607
 1  12.86151947084709 -1.62432059325933 -0.87533520112011
 1  12.53874762726273 -0.09722903190319 -1.71247460876088
 1  13.94760619731973  0.79007156315632  0.70602794579458
 1  14.06854960806081 -0.76054565926593  0.99627614411441
 1  15.13079636813681  0.40676016101610 -1.44935929392939
 1  15.90617806070607 -2.25860615271527 -0.02848430233023
 1  15.18923197389739 -2.20622299789979 -1.65280269536954
 1  16.66619624902490 -1.82238776367637 -1.68571004050405
 1  16.19069427012701  1.34446227992799  0.65629217351735
 1  16.45711015821582 -0.36971614671467  1.22919568076808
 1  17.98704964366437 -0.52635918331833 -0.43134647504750
 1  17.57839490399040  0.85063238213821 -1.27767134293429
 1  18.10429122172217  2.26167032473247  0.85796380168017
 1  18.86485364566457  0.97838201920192  1.83155315561556
 1  20.29362427512751  0.49246539473947 -0.15706864286429
 1  19.78694280088009  3.36225978787879 -1.08109170257026
 1  21.23389764186419  2.36749340214021 -1.53490485378538
 1  19.63111701610161  1.87388919971997 -1.92123909290929
 1  21.02223819901990  1.67280538963896  2.17136675387539
 1  22.17285899219922  2.33047427712771  0.75960092639264
 1  20.59907963786379  3.30123020632063  1.58850929142914
=======
12 -7.11691226422642  0.61373012111211  0.00262795019502
 6 -4.84897951595160 -1.97455863426343  0.50813734643464
 6 -4.79453938283828  2.83463191049105  1.00165653055306
 6 -9.39680441594159  3.06619211471147 -0.34185704540454
 6 -9.61431174487449 -1.73890940194019 -0.77048347744774
 7 -5.14294771937194  0.33637345544554  0.71819223752375
 6 -4.31353105920592 -0.70062988498850  0.70550857405741
 6 -2.88486749214922 -0.44764419011901  1.18496885108511
 6 -3.03121656005601  1.04073674197420  1.70855158585859
 6 -4.37027402230223  1.44173492229223  1.12890992089209
 6 -3.08462354445445  1.08819110721072  3.24309571847185
 6 -1.80091355235524 -0.70347560896090  0.07541149944995
 6 -0.39209663226323 -0.40070441764176  0.56869099839984
 6  0.56499763696370 -0.72672618551855 -0.50501588208821
 8  0.25140638073807 -0.97533294089409 -1.63264959665967
 8  1.86065787628763 -0.59777717411741 -0.04718150705071
 7 -7.06458690659066  2.57972356215622  0.16709540504050
 6 -6.07140641964196  3.36076705250525  0.71894542814281
 6 -6.37932518561856  4.75932022142214  0.73737442464246
 6 -7.75488819581958  4.84584521602160  0.36687507880788
 6 -8.10350462206221  3.47778697399740  0.00803334963496
 6 -5.47446540324032  5.75033749964996  1.38602336283628
 6 -8.55462325992599  6.08356939063906  0.12373935933593
 6 -8.45801969326933  7.28937505610561  0.87599384918492
 7 -9.10974324692469  0.64826768786879 -0.54045807950795
 6 -9.93256951665166  1.73995394849485 -0.70060638473847
 6 -11.19308840544054  1.46023436253625 -1.18255997549755
 6 -11.25268767266727  0.10346571067107 -1.38036675067507
 6 -9.97551323202320 -0.44114608890889 -0.91857687378738
 6 -12.35924474817482  2.50590116111611 -1.51111788658866
 6 -12.34918946524652 -0.83102051215122 -1.84430523902390
 6 -12.35924341274128 -0.79250166136614 -3.40212533113311
 7 -7.30450991929193 -1.38527814141414 -0.17271194819482
 6 -8.30546078587859 -2.24613978607861 -0.47137209240924
 6 -7.88795494109411 -3.63618188568857 -0.43972124942494
 6 -6.50632451655166 -3.50952528952895 -0.10954268616862
 6 -6.20609320572057 -2.13946222752275  0.11899470367037
 6 -8.73540100750075 -4.85380822322232 -0.72532101050105
 6 -5.37315178547855 -4.44626851035104  0.16360923352335
 8 -5.22931176907691 -5.64518900230023  0.21422845354535
 6 -4.24186776617662 -3.34074986478648  0.62824268956896
 6 -3.60516114701470 -3.62092731403140  1.96221659455946
 8 -3.78519011961196 -3.07585432163216  3.04871755285529
 8 -2.64964615831583 -4.56618134053405  1.74853343424342
 6 -2.24360494839484 -5.22283651275128  2.99839477497750
 6  2.87443995569557 -0.86990478507851 -1.15466666706671
 6  4.23713580258026 -0.46508468476848 -0.50253040204020
 6  5.11302478687869  0.40777704310431 -0.96640641334133
 6  4.92821124412441  1.13711636093609 -2.23218738403840
 6  6.41260559335934  0.48858070827083 -0.27669415461546
 6  7.61207874577458 -0.16054640154015 -0.99410636113611
 6  8.86988886148615 -0.12915804620462 -0.15885769856986
 6  10.18529915441544 -0.50376744844484 -0.85825679617962
 6  10.19451615181518 -2.00527146324632 -1.23078654365437
 6  11.38208108500850 -0.16144992579258 -0.03341247264726
 6  12.81921682938294 -0.52187623872387 -0.72536255915592
 6  14.03849331773177  0.09047784498450  0.18371543904390
 6  15.41426755165516 -0.26577030613061 -0.40529876967697
 6  15.69606127502750 -1.68407604140414 -0.77265688338834
 6  16.51315542144214  0.28383274327433  0.53982849004900
 6  17.81297588698870  0.63423482188219 -0.15617143174317
 6  18.82617298679868  1.38837705470547  0.66947738073807
 6  20.25914458365837  1.32353268676868  0.09515427862786
 6  20.42572392619262  2.16684498169817 -1.15156614931493
 6  21.19101003180318  1.92999593589359  1.12413777717772
 1 -4.07592907740774  3.42764828622862  1.55396998389839
 1 -10.08995938863886  3.88769960496050 -0.24548994049405
 1 -10.36307959735974 -2.53059240004000 -1.10839749194919
 1 -2.71197765466547 -1.18546686058606  2.07961865306531
 1 -2.20061366656666  1.62051563416342  1.40469111951195
 1 -1.94686914441444  0.95445589848985  3.47566127962796
 1 -3.32465752575258  2.33240729822982  3.59188135353535
 1 -3.88626206890689  0.71607629162916  3.85522793559356
 1 -1.83774625952595 -1.65126508690869 -0.37529143834383
 1 -2.06444811731173 -0.03237598719872 -0.81669170877088
 1 -0.34806832423242  0.58715332923292  0.89204960406041
 1 -0.29342714471447 -0.86968148334833  1.38507246244624
 1 -5.73709248464846  6.68791743584358  0.82518822802280
 1 -5.62885987538754  5.92427579067907  2.37355365246525
 1 -4.39483343934393  5.52630379677968  1.07227040264026
 1 -9.25533758625863  6.01578772687269 -0.42543277147715
 1 -9.06620783668367  8.19290002890289  0.90065968776878
 1 -7.69622908870887  7.47599399889989  1.67087547304730
 1 -12.29926403150315  3.21389171517152 -2.25027803250325
 1 -13.31193086228623  1.94762865406541 -1.33833502500250
 1 -12.46372810391039  3.20420907560756 -0.79219046304630
 1 -12.30742552095210 -1.84555400050005 -1.22002695759576
 1 -13.26489520842084 -0.21260799759976 -1.67787331483148
 1 -13.31554790739074 -1.29450413661366 -3.79718960346035
 1 -12.31763532773277  0.23573903630363 -3.76388988468847
 1 -11.66110238953896 -1.36185105220522 -3.74941356135614
 1 -9.28371797479748 -4.80959170207021 -1.69993325742574
 1 -7.97681704650465 -5.63994399859986 -0.95567518051805
 1 -9.43630351525153 -4.84353937523752  0.13579175657566
 1 -3.34941563746375 -3.53241649234924 -0.10308558005801
 1 -1.58815698219822 -4.60161660136014  3.49606252155216
 1 -3.25598520712071 -5.32228384598460  3.52568540744074
 1 -1.83084119561956 -6.14284355755576  2.54702865576558
 1  2.62641194529453 -1.72995483138314 -1.79537350235023
 1  2.68746622422242 -0.13271899229923 -2.04413756595660
 1  4.27928883448345 -0.93093530873087  0.48001121712171
 1  3.96292525602560  1.11815052545255 -2.68112648234823
 1  5.33541895359536  2.19013927282728 -2.16669313751375
 1  5.53773108070807  0.62203331083108 -2.91856058705871
 1  6.59995205810581  1.59419341934193 -0.08897625482548
 1  6.30486460586059  0.07350931353135  0.76857657435744
 1  7.38007539223922 -1.25453468866887 -1.28733005660566
 1  7.77060949684969  0.66474968306831 -2.02059498309831
 1  9.01772382398240  0.90234811981198  0.43708134033403
 1  8.60067855655566 -0.89477498369837  0.68326619031903
 1  10.49873742514251  0.02310484818482 -1.74075896539654
 1  9.27711269676968 -2.22389036553655 -1.84895081988199
 1  11.30402295799580 -2.20521730563056 -1.83944818871887
 1  10.05206809280928 -2.57779972197220 -0.32247168686869
 1  11.55154283518352  1.05544777497750  0.04636612411241
 1  11.54137719111911 -0.68283424472447  0.94872549414942
 1  13.10948426732673 -1.50746890809081 -0.82598026562656
 1  12.82649640214021  0.12270296129613 -1.56359972127213
 1  13.77731916861686  1.16631918791879  0.43641098409841
 1  14.05657841094109 -0.30848045274527  1.30452696919692
 1  15.38736202470247  0.03753323832383 -1.42610696869687
 1  15.42854029692969 -2.37200749284928  0.19001754785479
 1  14.78084113481348 -1.96528890449045 -1.57722513761376
 1  16.77245687508751 -1.88192371727173 -1.18891036053605
 1  16.14203940464046  1.15245307900790  1.13307985228523
 1  16.78708315551555 -0.39011818691869  1.36420918211821
 1  18.42357329602960 -0.35457200460046 -0.29272261266127
 1  17.67469453395340  0.92533985288529 -1.17927150295029
 1  18.61196198879888  2.43193735143514  0.86914491979198
 1  18.77593475377538  0.90938511951195  1.75055505580558
 1  20.51586649934994  0.24834098229823 -0.37998093409341
 1  20.25301940854085  3.22707626952695 -0.72923651705171
 1  21.46317056915692  2.23346999979998 -1.61068243154315
 1  19.77401130553055  2.09462127292729 -2.21231820082008
 1  21.53953992919292  1.42191030013001  1.96928654585459
 1  22.25399710601060  2.02709393909391  0.60416538283828
 1  20.77383711361136  2.89608969226923  1.31561200170017
>>>>>>> 8e03b5b5abfc0030b3aa597dc0de36371bfbd096

