%nproc=4
%Mem=2GB
# td=(NStates=1) CAM-B3LYP/6-31G(d,p) 

TD

0 1
12 -7.16839741274127  0.63498224632463  0.10796848424842
 6 -4.77413203120312 -1.93303448184818  0.41475800850085
 6 -4.88375830473047  2.79821826912691  1.14834119901990
 6 -9.42294703020302  3.04756025152515 -0.42373523322332
 6 -9.64386470017002 -1.80174568556856 -0.79040546964696
 7 -5.17727115171517  0.47702752085209  0.74228464676468
 6 -4.34032373847385 -0.68290811281128  0.70852887608761
 6 -2.89166817221722 -0.36813623932393  1.12101245544554
 6 -3.07579101750175  1.06501917021702  1.69160989168917
 6 -4.48246524142414  1.46449719851985  1.14856188608861
 6 -3.04393947604760  1.19695198329833  3.26574798369837
 6 -1.85649911091109 -0.53064832623262  0.00185414371437
 6 -0.42783020562056 -0.45423977117712  0.51493562286229
 6  0.57546868406841 -0.68178169106911 -0.59815519601960
 8  0.27856909700970 -0.89704511211121 -1.78548488018802
 8  1.85739755025503 -0.55041243764376 -0.10646743564356
 7 -7.08106855475548  2.64524011381138  0.25815451095110
 6 -6.08633791279128  3.33097407320732  0.75379891349135
 6 -6.43956120922092  4.74717900730073  0.85968665586559
 6 -7.69252195919592  4.87473810531053  0.44884327562756
 6 -8.17366163776378  3.44999419471947  0.07606015231523
 6 -5.43497145384538  5.88343080898090  1.04544930543054
 6 -8.57450524812481  6.07926896059606  0.11742872827283
 6 -8.52528641994200  7.17333345194519  0.84611086088609
 7 -9.22207448004800  0.63390625172517 -0.51469550325033
 6 -9.86607286698670  1.76782673577358 -0.66049237333733
 6 -11.25098419501950  1.44303264236424 -1.21644336383638
 6 -11.28078048194820  0.11670703480348 -1.25138385238524
 6 -9.99714539523952 -0.50226220052005 -0.78184320042004
 6 -12.23021184488449  2.43607417841784 -1.54257103190319
 6 -12.37126167246725 -0.71011842194219 -1.80665147364736
 6 -12.31175866426643 -1.16115852705271 -3.23208832743274
 7 -7.21074054235424 -1.47929754335434 -0.24418909590959
 6 -8.33132337213721 -2.32008718081808 -0.51397635283528
 6 -7.91936808240824 -3.62844111161116 -0.44451172847285
 6 -6.52900678477848 -3.63914825182518 -0.02066379827983
 6 -6.15716831323132 -2.22320060136014  0.10729353355336
 6 -8.69950741814181 -4.88862170457046 -0.86236471487149
 6 -5.34823929422942 -4.40790467396740  0.28265113771377
 8 -5.25304414231423 -5.60836531993199  0.24177120782078
 6 -4.15901948134813 -3.31172696249625  0.54074393969397
 6 -3.51174180508051 -3.63756897819782  1.80909128202820
 8 -3.79297089768977 -3.10234697089709  2.86821950305030
 8 -2.72204339803980 -4.71440616301630  1.64586316721672
 6 -2.19685027292729 -5.15967019611961  2.97029196469647
 6  2.90238274997500 -0.69624741934193 -1.17894909530953
 6  4.17243933293329 -0.31309948624862 -0.44320446944694
 6  5.17290077447745  0.43106937233723 -0.89856962966297
 6  5.13119154215422  1.28280092939294 -2.07416158145815
 6  6.55599993279328  0.50748259845985 -0.20623710891089
 6  7.65316285418542 -0.06777712461246 -0.94661161166117
 6  8.93500537313731  0.15219008860886 -0.05218703150315
 6  10.25019564406441 -0.50828790049005 -0.79428039853985
 6  10.05847254745474 -2.01627256335634 -0.96123958895890
 6  11.54543742064206 -0.25922970377038  0.09649051765177
 6  12.83417832553255 -0.51970602170217 -0.64006402930293
 6  13.96319578797880  0.03083188038804  0.15775284278428
 6  15.27377350225023 -0.22100582968297 -0.55075331513151
 6  15.63024469336934 -1.68380601440144 -0.84300391809181
 6  16.44844895079508  0.33816817681768  0.34790929812981
 6  17.88116270567057  0.55069646804680 -0.25697151175118
 6  18.92238260776078  1.19113733073307  0.69603003600360
 6  20.30023869306931  1.25009534303430  0.11785654885489
 6  20.27016837063707  2.15658395559556 -1.19126011871187
 6  21.22377330813081  1.75206814311431  1.16190155355536
 1 -4.31421290579058  3.78744426582658  1.58540312721272
 1 -10.15598599129913  3.76486732173217 -0.72752814431443
 1 -10.49514280368037 -2.45714505530553 -0.88936558875888
 1 -2.63385984288429 -0.98141645554555  2.03708439963996
 1 -2.32122572777278  1.76365994859486  1.42849349974998
 1 -2.09153361086109  1.06435688858886  3.76875058855886
 1 -3.24352941294129  2.33533759125913  3.55000716611661
 1 -3.71753519621962  0.38194287828783  3.67846025882588
 1 -1.84383686858686 -1.47308726912691 -0.46406031523152
 1 -2.04670634313431  0.13795104550455 -0.62904294389439
 1 -0.08261177857786  0.57986260016002  1.09005940504050
 1 -0.06980478247825 -1.30307482268227  1.19306326152615
 1 -5.76443521892189  6.82267091119112  0.61718742794279
 1 -5.15194218361836  6.04406776987699  2.14033033013301
 1 -4.55382933893389  5.69599076547655  0.47336051165116
 1 -8.94927698019802  6.21764791289129 -0.88715894409441
 1 -9.19344055995600  7.96506724562456  0.34346396819682
 1 -7.91451091689169  7.34286068556856  1.67109549504950
 1 -11.97408151325133  2.98949927592759 -2.34053705840584
 1 -13.09471914111411  2.02863675487549 -1.89895108660866
 1 -12.13080481158116  3.09844849954995 -0.61771301530153
 1 -12.59422420082008 -1.48727817291729 -0.98088304320432
 1 -13.30456917581758 -0.18553529032903 -1.51114664216422
 1 -13.08398475107511 -2.05370005620562 -3.56605649014901
 1 -12.35656922112211 -0.10936547414742 -3.80496399209921
 1 -11.39766604590459 -1.75739060616062 -3.37886650665067
 1 -8.86188579157916 -4.81126186908691 -2.01872513661366
 1 -8.12762212701270 -5.74821482568257 -0.91066067906791
 1 -9.69373925882588 -4.87116213751375 -0.24734655725573
 1 -3.36242693859386 -3.54473772447245 -0.30981625312531
 1 -1.55296346284628 -4.40014645434543  3.36556947224722
 1 -3.08006761536154 -5.44467608520852  3.61351419031903
 1 -1.78421653315332 -6.27275654885489  2.72144609750975
 1  2.92306161026103 -1.60659249514951 -1.49024298929893
 1  2.44786226382638  0.13280756035604 -1.89005215741574
 1  4.35990689628963 -1.01478369356936  0.31113432943294
 1  4.22454141764176  1.25578428882888 -2.43912228192819
 1  5.52645805750575  2.40152041094109 -2.04039050725073
 1  5.76130343794379  1.04768587608761 -3.00072880388039
 1  6.60136219911991  1.43082708270827 -0.04908226542654
 1  6.56432055145515 -0.06737477487749  0.78383810051005
 1  7.54377176187619 -1.08819805500550 -1.13262458605861
 1  7.61933436933693  0.31307451555155 -1.86757968156816
 1  8.85868792039204  1.27888577357736  0.11587922012201
 1  8.78753724242424 -0.23413892009201  1.03049091279128
 1  10.43295084648465  0.08562109980998 -1.69808469796980
 1  9.16330131563156 -2.16081405790579 -1.62985891069107
 1  10.94817737343734 -2.57002378627863 -1.31270551445145
 1  9.91446433243324 -2.47080902290229 -0.00693013271327
 1  11.62080976187619  0.92146437663766  0.44618610611061
 1  11.31007406080608 -0.77212317361736  1.03821444304430
 1  12.89114243314332 -1.59104726592659 -0.72372003960396
 1  12.88094184668467  0.03811450245024 -1.77452081338134
 1  13.89469090579058  1.10255281128113  0.55042238523852
 1  13.99331208430843 -0.67303690839084  1.10812732923292
 1  15.35810909940994  0.42419190419042 -1.54091844984498
 1  15.35472291519152 -2.56139643174317 -0.13457491139114
 1  14.89567261796180 -1.86528890449045 -1.56154356945695
 1  16.74883451285129 -1.87522304720472 -1.30058152765277
 1  16.06400160086008  1.37666550025002  0.78263480778078
 1  16.56123057025702 -0.24577375247525  1.21035379657966
 1  18.32922386108611 -0.26243279067907 -0.65297863826383
 1  17.71659872437244  1.14605192409241 -1.17516109190919
 1  18.45054584718472  2.25124928262826  0.92988099339934
 1  18.75639279957996  0.80776495749575  1.59453945424542
 1  20.63656856955696  0.29140528872887 -0.43950688668867
 1  19.92794690129013  3.11987554945495 -1.19425301870187
 1  21.40541479357936  2.05690234303430 -1.41265262856286
 1  19.56856076047605  1.54624643544354 -1.92549951895190
 1  20.99541551675167  1.11233934303430  1.92465208240824
 1  22.23627533383338  1.73534476417642  0.84521948824882
 1  21.03186291619162  2.74053413671367  1.76437687818782

