%nproc=4
%Mem=2GB
# td=(NStates=1) CAM-B3LYP/6-31G(d,p) 

TD

0 1
12 -7.11415198819882  0.60366911501150  0.09144683208321
 6 -4.84763938193819 -2.01114229262926  0.48227476017602
 6 -4.83526345524553  2.74999344664466  1.15289165406541
 6 -9.38672340784078  3.16071156665667 -0.49817267696770
 6 -9.52463277697770 -1.71430694169417 -0.92856928602860
 7 -5.04176760136014  0.41982180028003  0.76968738703870
 6 -4.30240994709471 -0.72979280128013  0.82570059325933
 6 -2.88832783818382 -0.49530895659566  1.28304865906591
 6 -2.99936337473747  1.07817048534853  1.77267799849985
 6 -4.36510350525052  1.49966071487149  1.15288231813181
 6 -2.88262334443444  1.28317060516052  3.20057146604660
 6 -1.89149261026103 -0.50688594999500  0.10569452775278
 6 -0.42847026962696 -0.35409975717572  0.53703783308331
 6  0.51244238143814 -0.68793230613061 -0.56401178167817
 8  0.24149538963896 -1.06954236183618 -1.68899523122312
 8  1.75645745624562 -0.40430782718272 -0.19097588648865
 7 -7.09502995089509  2.60022561236124  0.34010270577058
 6 -6.12293157215722  3.34829580538054  0.83357689128913
 6 -6.42038929202920  4.76358064746475  0.67213790099010
 6 -7.65847855485549  4.82320295179518  0.21454984628463
 6 -8.15711998359836  3.48981817711771  0.02466501280128
 6 -5.48933689038904  5.77995046094609  1.12748750925093
 6 -8.53253105070507  6.09573060676068 -0.07291030563056
 6 -8.47777166846685  7.17750386898690  0.78491474127413
 7 -9.12118439103910  0.69663252435244 -0.51806584028403
 6 -9.82717897759776  1.82369232233223 -0.70122644674467
 6 -11.18498759535954  1.51546988608861 -1.14174589408941
 6 -11.22551495539554  0.14621998609861 -1.27583629762976
 6 -9.86534221492149 -0.36618859315932 -0.95303031913191
 6 -12.34455327902790  2.47647821882188 -1.35667244204420
 6 -12.49188373467347 -0.67536494659466 -1.56290709920992
 6 -12.58291577997800 -1.20546295749575 -3.01234635323532
 7 -7.17716718501850 -1.40472008560856 -0.31793647064706
 6 -8.22366260606061 -2.20381555365537 -0.52188714391439
 6 -7.88549469506951 -3.59651791929193 -0.46591386868687
 6 -6.57464134823482 -3.60301463846385 -0.22833456535654
 6 -6.14866746314631 -2.17845612691269  0.05180798499850
 6 -8.69033650105010 -4.80262310471047 -0.87045552395240
 6 -5.38283275357536 -4.38092197569757  0.17098997159716
 8 -5.31307014491449 -5.62871735513551  0.23920095079508
 6 -4.12186576597660 -3.33935972577258  0.50687055235524
 6 -3.51228185908591 -3.70312553385339  1.82665303820382
 8 -3.83951555215522 -3.08625536173617  2.85968864996500
 8 -2.64383557725773 -4.77272199459946  1.75446402730273
 6 -2.35695628352835 -5.30082431153115  3.07907284278428
 6  2.85063757545755 -0.71818961356136 -1.10972217261726
 6  4.13281537053705 -0.50705888218822 -0.46085623462346
 6  5.18254173857386  0.34826109150915 -0.90268004070407
 6  5.12954137713771  1.02497514681468 -2.25744991029103
 6  6.48270260306031  0.40853270347035 -0.09208569376938
 6  7.63321085898590 -0.20721106800680 -0.89864681518152
 6  8.93476534913491 -0.09281441184118 -0.11378319111911
 6  10.15686631113111 -0.59139621132113 -0.93589455995600
 6  10.00627732793279 -2.01931286738674 -1.33142660766077
 6  11.47418029492949 -0.35350913171317 -0.05054418581858
 6  12.82176708440844 -0.41079513061306 -0.78126814971497
 6  13.97235670407041 -0.11025222802280  0.13505057255726
 6  15.39408553345335 -0.06600032913291 -0.45566380618062
 6  15.63529519841984 -1.51973960776078 -0.99356897459746
 6  16.41533563946395  0.53875823582358  0.42051655885589
 6  17.80582517191719  0.58541994039404 -0.21543735833583
 6  18.81065143464346  1.17337555455546  0.77044747774777
 6  20.32907157635763  1.41176150965097  0.23112787598760
 6  20.44163551735173  2.20123842104210 -1.03891488418842
 6  21.14552548334834  1.91020395669567  1.38885424882488
 1 -4.05658714321432  3.40441596299630  1.14814940184018
 1 -10.18984937763776  3.89026986198620 -0.49566495799580
 1 -10.41199448884888 -2.50114945574557 -1.11780843304330
 1 -2.39142559945995 -1.17752606650665  1.97331802300230
 1 -2.13827743294329  1.48679226182618  1.30280093049305
 1 -1.93288774627463  1.10013046594659  3.69445315881588
 1 -3.23465852585259  2.28396245374537  3.48028019341934
 1 -3.64719816251625  0.62875755975598  3.93787620042004
 1 -1.85362784768477 -1.64583454385439 -0.17876178537854
 1 -2.30509218171817  0.23145039543954 -0.64224426402640
 1 -0.02921643904390  0.65277989188919  0.97999839893989
 1 -0.27973577557756 -0.95645016021602  1.41954590979098
 1 -5.68885766116612  6.76922556665667  0.77331304050405
 1 -5.45132212161216  6.16029939303930  2.03023932103210
 1 -4.50505446144614  5.63292445884588  0.73906708230823
 1 -9.18765081758176  6.09514566266627 -0.90933116131613
 1 -9.24822603850385  8.08053879277928  0.70485010681068
 1 -8.10316978277828  7.34880127962796  1.76320470597060
 1 -12.23380748584859  2.98842916891689 -2.23707671237124
 1 -13.28581825102510  1.90669456065607 -1.67308850035003
 1 -12.53708543964397  3.20932958765877 -0.41554279827983
 1 -12.45253003140314 -1.61650109520952 -0.94953990889089
 1 -13.19451817071707 -0.11492822962296 -1.40622615011501
 1 -13.49081543414341 -1.88410309650965 -3.23993387788779
 1 -12.58467203140314 -0.38777331493149 -3.67537103280328
 1 -11.61705798509851 -1.63508837593759 -3.07646626662666
 1 -9.33475307830783 -4.60020076297630 -1.79608287238724
 1 -8.00312967776778 -5.63864386858686 -1.02274188718872
 1 -9.31700158505851 -5.05453047434744  0.11957013441344
 1 -3.35260595649565 -3.46566981768177 -0.31077634913491
 1 -1.75151331783178 -4.61931837153715  3.66232914821482
 1 -3.12770237883788 -5.74777639523952  3.63195603450345
 1 -1.63602171367137 -6.05547482068207  2.76586053895390
 1  2.66446575067507 -1.82890472637264 -1.67337130213021
 1  2.72844032163216 -0.07127284768477 -1.88117126932693
 1  4.31456236183618 -1.10502271747175  0.27508072407241
 1  4.26032499599960  0.97815652605260 -2.62535090479048
 1  5.31210662236224  2.17473773267327 -1.85667213541354
 1  5.72248955655566  0.64598570607061 -2.80456918791879
 1  6.74137620052005  1.40104410441044  0.28682132493249
 1  6.22168628802880 -0.18625666306631  0.81967168386839
 1  7.39482686738674 -1.35656489168917 -0.90444176777678
 1  7.70580301620162  0.27645085318532 -1.91048397199720
 1  9.06444849644964  0.96636452145214  0.05660329252925
 1  8.82203069176918 -0.43232873907391  0.81995985968597
 1  9.91641919331933  0.21043358105811 -1.77365225472547
 1  9.14239922542254 -2.41077905440544 -1.87604352915292
 1  10.92144470017002 -2.27965474937494 -1.97523176707671
 1  9.90845373137314 -2.81524346634663 -0.60063950365037
 1  11.34728240914091  0.65165739593959  0.20243173067307
 1  11.63371642504251 -1.21051701300130  0.54582520412041
 1  13.00494381328133 -1.32745090629063 -1.26209387698770
 1  12.95763951645164  0.26728741974197 -1.55372873417342
 1  13.48400983768377  0.95360791679168  0.37862520552055
 1  14.13358611171117 -0.73290289498950  1.05137165366537
 1  15.55290857935794  0.46786627162716 -1.46579093709371
 1  15.80477792069207 -2.14111440354035 -0.03762521642164
 1  14.68586163686369 -1.85948832443244 -1.74150156525653
 1  16.52198182758276 -1.42823834873487 -1.85265673517352
 1  16.15309050975097  1.53812164586459  0.61599814411441
 1  16.65314976217622  0.10977180208021  1.40680344154415
 1  18.24994593329333 -0.31815836323632 -0.46058939933993
 1  17.87934499899990  1.17384470337034 -1.19515309110911
 1  18.39999079167917  2.21567572527253  1.08414641994199
 1  18.84904206450645  0.72110629162916  1.84964496479648
 1  20.74610952365236  0.38707485568557  0.04774183818382
 1  19.94821892849285  3.18592215411541 -1.11552514591459
 1  21.58518277037704  2.46317297009701 -1.20218158145815
 1  20.25926983138314  1.39173098389839 -1.90949791879188
 1  21.10612658785879  1.38423653275328  2.33570318751875
 1  22.12747445374537  1.95297652735274  1.10112507880788
 1  20.91024075397540  2.81780186348635  1.64044448494849

