%nproc=4
%Mem=3GB
# td=(NStates=1) iop(3/107=0140000000,3/108=0140000000) CAM-B3LYP/6-31G(d,p) 

TD

0 1
12 -7.06492118381838  0.58043642714271  0.04582095209521
 6 -4.86929574607461 -2.02275950655065  0.55610101250125
 6 -4.73492952355236  2.88561727962796  1.06965707090709
 6 -9.27742450695070  3.08585613861386 -0.36309878517852
 6 -9.45954205220522 -1.69150091579158 -0.99365617051705
 7 -5.05398242944294  0.42359845044504  0.72327015101510
 6 -4.35637788508851 -0.74584572777278  0.85662355705571
 6 -2.95561178177818 -0.43794219221922  1.19096476557656
 6 -2.96748997589759  1.09989869146915  1.68046432573257
 6 -4.31832206690669  1.51754640574057  1.09690408430843
 6 -3.01782796359636  1.27788060736074  3.24037935253525
 6 -1.85715144484448 -0.58079406860686  0.10405421572157
 6 -0.42808851805181 -0.47606085408541  0.45589897219722
 6  0.49328125132513 -0.72227884978498 -0.71904169426943
 8  0.13264348114811 -1.09482326002600 -1.79262665576558
 8  1.82024062246225 -0.40549048744874 -0.25440082768277
 7 -6.94922256565657  2.61862507240724  0.38571949604960
 6 -5.99318946274627  3.45852962036204  0.79460533663366
 6 -6.36089099749975  4.81686855045505  0.86088434713471
 6 -7.65980076537654  4.82108391359136  0.40639676607661
 6 -8.06347587508751  3.45706264506451  0.12915091369137
 6 -5.43341537543754  6.00380985468547  1.14447460266027
 6 -8.49065907390739  5.98489875947595  0.07814842734273
 6 -8.48829723972397  7.12805195489549  0.88000205950595
 7 -9.05136417751775  0.65150214461446 -0.47352392629263
 6 -9.82592007830783  1.83628695299530 -0.58843165666567
 6 -11.17211116381638  1.46878632313231 -1.10290515021502
 6 -11.18458794599460  0.10797834363436 -1.28422845114511
 6 -9.83905150875088 -0.32935312871287 -0.99875207650765
 6 -12.24339527722772  2.48151339273927 -1.55288474117412
 6 -12.27003079597960 -0.69539566336634 -1.81872120272027
 6 -12.22917482638264 -1.11341153345335 -3.31488213941394
 7 -7.23503646604660 -1.45228006370637 -0.19994266936694
 6 -8.22498682498250 -2.20495904140414 -0.55672725262526
 6 -7.81369340914091 -3.65232578397840 -0.54242454225423
 6 -6.52096988748875 -3.65130811291129 -0.15011709340934
 6 -6.18579231093109 -2.24401235703570  0.16932876827683
 6 -8.58925126462646 -4.77491358975898 -0.94620800390039
 6 -5.39648511141114 -4.51117468086809  0.29224419851985
 8 -5.21390238253825 -5.61844870187019  0.24644059265927
 6 -4.24166866946695 -3.37992543994399  0.63303162476248
 6 -3.50577475427543 -3.65206314901490  1.99783575207521
 8 -3.70496327972797 -3.07625498339834  3.04506786498650
 8 -2.77107246004600 -4.74013263176318  1.85286432393239
 6 -2.37586654365437 -5.26493169906991  3.08543594399440
 6  2.82055837623762 -0.71178946784678 -1.21326484368437
 6  4.13157404260426 -0.41255652355236 -0.58653121592159
 6  5.11446693799380  0.45971249924993 -0.93297617461746
 6  5.00428415401540  1.46539421472147 -2.10441457645765
 6  6.33162944164416  0.39746036203620 -0.04853537793779
 6  7.58981043364336 -0.08471701970197 -0.78903923262326
 6  8.88299601120112  0.06229441334133 -0.13514961736174
 6  10.10347580818082 -0.48054971817182 -0.93615933593359
 6  10.02985626222622 -1.89368724862486 -1.50324729072907
 6  11.30270493429343 -0.45219011011101  0.00130216771677
 6  12.72220995649565 -0.62438247174717 -0.68785629072907
 6  13.95893716551655 -0.13842955725573  0.21300771237124
 6  15.25236122712271 -0.08696778037804 -0.63015866836684
 6  15.70613688468847 -1.52702109040904 -1.17790961726173
 6  16.25941293399340  0.42506902420242  0.39590432513251
 6  17.75949353705371  0.58484221382138 -0.07025355235524
 6  18.72454287288729  1.20004808330833  0.82484574127413
 6  20.15888869326933  1.20412984548455  0.22788949494949
 6  20.28935178097810  1.94276158125813 -1.08325302120212
 6  21.06136120312031  1.86390809070907  1.31576551655166
 1 -3.93801416491649  3.50138338973897  1.15724181998200
 1 -9.96348847214722  3.89545181968197 -0.47899242544254
 1 -10.34567899199920 -2.27857339243924 -1.40961878127813
 1 -2.78726601380138 -1.06361656435644  2.01302779347935
 1 -2.05187865416542  1.74480654175418  1.41604525352535
 1 -1.98620170657066  1.14731383778378  3.70320065746575
 1 -3.09147625672567  2.48147737053705  3.59701772397240
 1 -3.64466726722672  0.80481563586359  3.82218390359036
 1 -1.92814793379338 -1.70832150295030 -0.41601960906091
 1 -2.06559292829283  0.20456807660766 -0.70314704930493
 1 -0.24098952765277  0.51430101740174  0.88476233923392
 1 -0.28093651395140 -1.27552831943194  1.23495695399540
 1 -5.73813799149915  6.83362087408741  0.61737156845685
 1 -5.27385885718572  6.09131201260126  2.13097511001100
 1 -4.40987583218322  5.83675794379438  0.74153488608861
 1 -9.21527178697870  5.81366474847485 -0.71627297999800
 1 -9.03010207390739  7.95773549454946  0.59783955965597
 1 -7.78248618071807  7.44260109650965  1.59948890919092
 1 -11.79132960596059  2.89323847094710 -2.65408123962396
 1 -13.10379767746775  1.96365510791079 -1.91514724292429
 1 -12.21821285398540  3.25039237333733 -0.80228066756676
 1 -12.52069403430343 -1.64177510031003 -1.02932643354335
 1 -13.28207050615062 -0.17013972447245 -1.61147690209021
 1 -12.99936513571357 -1.88036169826983 -3.49188014611461
 1 -12.35145555125512 -0.21337980928093 -4.04321329972997
 1 -11.13928876827683 -1.34788581578158 -3.52148042624262
 1 -8.90282490109011 -4.70504700550055 -2.00104616761676
 1 -8.25435982118212 -5.82290824412441 -1.16826678177818
 1 -9.55932011101110 -5.07622607100710 -0.23432570127013
 1 -3.41401892039204 -3.66645325092509 -0.12330006810681
 1 -1.30446383398340 -4.85593780718072  3.60454217181718
 1 -3.21589802710271 -5.29439896479648  3.69211024872487
 1 -1.99749026952695 -6.35367615241524  2.91970533163316
 1  2.77432548734873 -1.74935155795580 -1.56620806950695
 1  2.70701714301430 -0.17638955415542 -2.07732879037904
 1  4.42954344104411 -0.78828724252425  0.28805020522052
 1  3.97754306580658  1.58111365406541 -2.48119860556056
 1  5.42529946214622  2.51310173407341 -1.68602604100410
 1  5.47620718921892  0.94535572647265 -2.96117237413741
 1  6.53042122602260  1.51747172777278  0.16830644454445
 1  6.39420729282928 -0.01558889558956  0.87105330083008
 1  7.38390051285129 -1.35641631463146 -1.13647840504050
 1  7.55704826332633  0.71449055205521 -1.59551037393739
 1  9.11052709700970  1.06194569206921  0.23642607070707
 1  8.95143826462646 -0.53504185688569  0.71436756015602
 1  10.33388802060206  0.31759790759076 -1.76839199719972
 1  9.25135474457446 -2.11743002650265 -2.29052743464346
 1  11.05214435503550 -2.06490989028903 -2.11021637973797
 1  9.78220041714171 -2.48155226992699 -0.65840323402340
 1  11.28416005760576  0.51499793319332  0.51578934973497
 1  11.36719431493149 -0.92281357895790  1.02872919301930
 1  12.96893484598460 -1.66444386368637 -0.85333760526053
 1  12.76675250515051 -0.12723778777878 -1.68428276197620
 1  13.93008442874287  0.83288865216522  0.42290711941194
 1  13.90654896549655 -0.89013539243924  1.12475484948495
 1  15.08742914431443  0.57343074007401 -1.57540880968097
 1  15.99532332913291 -2.16226556775678 -0.24077221272127
 1  14.94090573497350 -1.95391991199120 -1.75678705220522
 1  16.70063834343434 -1.44726562356236 -1.69008552185218
 1  16.08373164666467  1.36859519321932  0.60623653995400
 1  16.16937101490149 -0.24035031983198  1.45389388408841
 1  18.16747348504850 -0.36599311331133 -0.21542173777378
 1  17.53872118171817  0.93818271237124 -1.13398914251425
 1  18.38437749464946  2.13575484348435  1.05363731053105
 1  18.69589555205521  0.41694653415342  1.70119336483648
 1  20.41732156445645  0.21679267686769 -0.01160526832683
 1  19.73674049254926  2.95227600410041 -1.09307149184918
 1  21.27605140594060  2.23806494859486 -1.06574455565557
 1  19.80024842244224  1.51173146334633 -1.96499488388839
 1  21.02648650215021  1.37776341724172  2.21493516231623
 1  22.14911280408041  1.95583605430543  1.03831048464846
 1  20.91172125062506  2.97649376657666  1.37851498819882

