%nproc=4
%Mem=3GB
# td=(NStates=1) iop(3/107=0140000000,3/108=0140000000) CAM-B3LYP/6-31G(d,p) 

TD

0 1
12 -7.10107479917992  0.60466885038504  0.05866223622362
 6 -4.85335415191519 -1.92391962256226  0.51737714011401
 6 -4.83108913951395  2.89989870777078  1.19412951815182
 6 -9.40046681118112  3.05894344734473 -0.48010048534853
 6 -9.53856995499550 -1.67591935763576 -0.89360616551655
 7 -5.16320335153515  0.50357644824482  0.73148097209721
 6 -4.30963321062106 -0.70262140534053  0.82089998469847
 6 -2.91094731533153 -0.38615701370137  1.24307997709771
 6 -3.05885911281128  1.14025272687269  1.73143942324232
 6 -4.38454868956896  1.56312096319632  1.18618301220122
 6 -2.97206338713871  1.21554437373737  3.20607592219222
 6 -1.97097282698270 -0.59808579777978  0.13806761706171
 6 -0.45941165036504 -0.58414166216622  0.55101848414841
 6  0.47987991119112 -0.81859848174817 -0.50616040614061
 8  0.19100931773177 -1.10523430113011 -1.67843523662366
 8  1.78936753515352 -0.47533747214721 -0.10088547614761
 7 -7.07519516291629  2.57770097999800  0.41137206130613
 6 -6.08931907570757  3.33768753615362  0.86322219831983
 6 -6.44111902030203  4.82208907250725  0.83664192289229
 6 -7.80251503680368  4.82685449064907  0.35171129752975
 6 -8.16970649814981  3.45841278007801  0.01311931053105
 6 -5.51084311821182  5.87837731143114  1.28553870907091
 6 -8.68265827382738  6.02991326092609  0.17062767526753
 6 -8.43227163716372  7.18988813851385  0.72834689398940
 7 -9.10375941704170  0.72620961536154 -0.45884245814581
 6 -9.81301878817882  1.75621894619462 -0.74724753825383
 6 -11.16972092479248  1.55707515201520 -1.16406126582658
 6 -11.22552203940394  0.15570311611161 -1.39148917721772
 6 -9.95519312291229 -0.29188938233823 -0.84088628992899
 6 -12.29006994469447  2.57576281768177 -1.39299875257526
 6 -12.40724451735174 -0.73187931173117 -1.69801913251325
 6 -12.38147005590559 -1.03585377767777 -3.28416906810681
 7 -7.28991195359536 -1.37957279297930 -0.33048572367237
 6 -8.32300662696270 -2.19824837033703 -0.55172675257526
 6 -7.82745478527853 -3.58137868926893 -0.52758305810581
 6 -6.54008179867987 -3.51068405050505 -0.11444352605261
 6 -6.19254298599860 -2.13590154595460 -0.01456962156216
 6 -8.66395873537354 -4.80252635103510 -0.92323570667067
 6 -5.38679414231423 -4.27203076647665  0.19138411251125
 8 -5.11376236853685 -5.50125698269827  0.27331327992799
 6 -4.16006050865087 -3.17648509590959  0.54908322992299
 6 -3.63666784358436 -3.59837778047805  1.90344631313131
 8 -3.97203998739874 -3.09521687958796  2.95475883408341
 8 -2.79766511931193 -4.69990860936094  1.73819285678568
 6 -2.31954091109111 -5.32275748164816  2.96837423782378
 6  2.75432175257526 -0.73982227112711 -1.13114663186319
 6  4.05811669686969 -0.54285955385539 -0.50267283008301
 6  5.13043853515352  0.17652418041804 -1.05912878987899
 6  5.12035576117612  1.04856253155316 -2.23959809480948
 6  6.46899317801780  0.12462307830783 -0.24888541294129
 6  7.73426487908791 -0.40376892489249 -0.84516484518452
 6  9.01062877447745 -0.30704252035204 -0.10999710211021
 6  10.27442290289029 -0.67179884308431 -0.94489020902090
 6  10.28820209680968 -2.19559743964396 -1.43233019901990
 6  11.40989565336534 -0.38004289538954 -0.08137610011001
 6  12.87981571707171 -0.44141417491749 -0.66066357145715
 6  14.00235150695069 -0.00584629892989  0.18794520612061
 6  15.41389738073807 -0.06774585818582 -0.56327197969797
 6  15.75396166716672 -1.55805419371937 -0.89600142644264
 6  16.40782777547755  0.49745626292629  0.43808854355436
 6  17.87737532523252  0.60777450705071 -0.17838436543654
 6  18.94928534713471  1.32372045054505  0.68903215991599
 6  20.32184498889889  1.43602303480348  0.20737744374437
 6  20.36261910771077  2.33839114421442 -1.04301899779978
 6  21.28351341834183  1.88508020792079  1.27862180218022
 1 -4.10233059655966  3.48018126952695  1.50508660446045
 1 -10.11748387168717  3.65962823732373 -0.65056958315832
 1 -10.39935435953595 -2.46304183928393 -1.14007182658266
 1 -2.79703699089909 -1.21883208590859  2.12906939763976
 1 -2.36007947424742  1.71094315541554  1.18664231323132
 1 -1.87857094349435  1.07863697009701  3.64987532493249
 1 -3.29736684578458  2.19740896369637  3.78621664386439
 1 -3.63843664416442  0.43808896319632  3.58239992519252
 1 -2.29945506450645 -1.46978764956496 -0.43833184028403
 1 -2.22327869686969  0.11338895869587 -0.53597033163316
 1 -0.12403783248325  0.42705229252925  1.12515637863786
 1 -0.27259567986799 -1.22581334793479  1.44752821112111
 1 -5.85558973667367  6.91631914391439  0.72514234553455
 1 -5.70017148844885  6.11334421582158  2.24527654015401
 1 -4.40758560316032  5.58419268726873  1.17002773537354
 1 -9.49064932473247  5.84610799279928 -0.55918727142714
 1 -9.11386044974497  7.92128184918492  0.44321409710971
 1 -7.59972790489049  7.44616145254525  1.26302526282628
 1 -12.37372784578458  3.24029317641764 -2.41146697819782
 1 -13.24723202090209  2.04010275267527 -1.60146587478748
 1 -12.47233826652665  3.28262559665967 -0.59959039853985
 1 -12.33806577147715 -1.81931285408541 -1.17157065796580
 1 -13.25138743784379 -0.30633334383438 -1.33154890929093
 1 -13.36830202940294 -1.61145480758076 -3.46180713881388
 1 -12.59007941364136  0.09541106980698 -3.78070704910491
 1 -11.43209804920492 -1.61861288848885 -3.59822810101010
 1 -8.76406102470247 -4.93268976977698 -1.98592465546555
 1 -8.14008839403940 -5.71996795009501 -0.65283523862386
 1 -9.65962014101410 -4.78068651705170 -0.32223449214922
 1 -3.44835235373537 -3.43555016061606 -0.18825656375638
 1 -1.60755414301430 -4.74264647804781  3.66229794739474
 1 -3.07807424472447 -5.70464998989899  3.65003604130413
 1 -1.50679119961996 -6.10630141494149  2.45651901300130
 1  2.63397145194519 -1.82063868666867 -1.57035848454845
 1  2.65211165246525 -0.03123503870387 -1.98263932143214
 1  4.21184167086709 -0.93480189398940  0.59456085628563
 1  4.11963727522752  1.24732027472747 -2.64123460916092
 1  5.34216114831483  2.05380580448045 -1.65355279367937
 1  6.02001156965697  0.95193638453845 -3.05476173307331
 1  6.88650683458346  1.17283726432643  0.38188780268027
 1  6.33497136923692 -0.18078541524152  0.79477567306731
 1  7.52392451525153 -1.39684035703570 -1.21916667386739
 1  8.09540209870987  0.22724182718272 -1.73304412731273
 1  9.08658470277028  0.80002950045005  0.29802223032303
 1  9.02223534433443 -0.78218657135714  0.88523464686469
 1  10.22041667346735  0.02118826662666 -1.64053921192119
 1  9.45996560566057 -2.30420870437044 -2.25887426932693
 1  11.01740088068807 -2.47011041034103 -1.89721507960796
 1  10.15836803390339 -2.86575068976898 -0.57386478017802
 1  11.02221386298630  0.67746417981798  0.24428219901990
 1  11.28367596309631 -1.00073137073707  0.86405272537254
 1  13.02985093759376 -1.42515993529353 -1.12303457495750
 1  12.78397422732273  0.30801573757376 -1.59346368006801
 1  13.83612503280328  1.01015637893789  0.65336016471647
 1  14.16207451805180 -0.75914229312931  1.14053642764276
 1  15.53644404580458  0.49038243524352 -1.58620988978898
 1  15.94171796859686 -2.37297663886389 -0.18953708920892
 1  15.12804444884488 -2.02146666666667 -1.79431080458046
 1  16.77378565816582 -1.48882977997800 -1.23814032733273
 1  16.15015828932893  1.57697603130313  0.65851176747675
 1  16.49336341414141 -0.05561184598460  1.48654714941494
 1  18.25259199689969 -0.50609712371237 -0.59527972357236
 1  17.72989029862986  1.29816871097110 -1.13852959655966
 1  18.46729578647865  2.31228249624962  0.84070601740174
 1  18.66056201870187  0.78357319681968  1.71220446594659
 1  20.72178201050105  0.49816081368137 -0.13701780958096
 1  19.99429624812482  3.34491526802680 -0.81982416711671
 1  21.39933373417342  2.56970811291129 -1.42787076827683
 1  19.99555795339534  1.96983727392739 -2.08800718511851
 1  21.24205805930593  1.22571821272127  2.07778144694469
 1  22.24720261306130  2.07256772747275  0.88512516611661
 1  21.14652473097310  2.88069418661866  1.63529066576658

