%nproc=4
%Mem=2GB
# td=(NStates=1) CAM-B3LYP/6-31G(d,p) 

TD

0 1
12 -7.12309288228823  0.63686243434343  0.08058574597460
 6 -4.86535115311531 -1.97471865026503  0.48720525322532
 6 -4.79094902380238  2.86296474377438  1.00794715961596
 6 -9.40262499799980  3.13455895139514 -0.46955981568157
 6 -9.61659197289729 -1.69985549654966 -0.89546597569757
 7 -5.15710913551355  0.39567938603860  0.71611202950295
 6 -4.39566927302730 -0.75747556955696  0.75217324052405
 6 -2.89145815121512 -0.32697212291229  1.27379773397340
 6 -3.17354079247925  1.11456412471247  1.63803453415342
 6 -4.47556455135514  1.50534128292829  1.10115714561456
 6 -3.10260534263426  1.31619390749075  3.22824423332333
 6 -1.96761022202220 -0.69628488988899  0.14446840514051
 6 -0.49427685028503 -0.54220856805681  0.52153628292829
 6  0.48325946314631 -0.68725223812381 -0.57130251075107
 8  0.21351259135914 -0.97850325792579 -1.75280161186119
 8  1.76548835933593 -0.45893328972897 -0.13967075597560
 7 -7.05461590949095  2.65115070487049  0.38469716521652
 6 -6.04505378437844  3.43339431523152  0.72323585718572
 6 -6.39357661076108  4.82459674907491  0.75049573677368
 6 -7.67359006600660  4.86064669616962  0.34232262356236
 6 -8.12171644324433  3.51493068836884  0.08306085238524
 6 -5.33312126882688  5.88470093599360  0.98370313081308
 6 -8.50642844044404  6.04232526622662  0.31875886128613
 6 -8.29741363266327  7.26507262586259  0.83427967776778
 7 -9.15014728732873  0.62203506460646 -0.56504053775378
 6 -9.82685894559456  1.85624557765777 -0.73969029312931
 6 -11.20875997259726  1.41262960206021 -1.12851457095710
 6 -11.26753915781578  0.11972733683368 -1.26726544054405
 6 -9.98247392809281 -0.33239521382138 -0.94970998709871
 6 -12.31430025372537  2.41674224522452 -1.38955573037304
 6 -12.38359290559056 -0.71176858695870 -1.74838564706471
 6 -12.30473796219622 -1.08147055825583 -3.11470658925893
 7 -7.26669613791379 -1.35853546714671 -0.19302397939794
 6 -8.32462270207021 -2.20677584968497 -0.47845280048005
 6 -7.86647279287929 -3.60416868436844 -0.37847512481248
 6 -6.60497438153815 -3.58854319131913 -0.00638237013701
 6 -6.15765836223622 -2.16747502880288  0.13565636983698
 6 -8.68558602600260 -4.88265110751075 -0.69641812021202
 6 -5.34118858915892 -4.41833571707171  0.13162603520352
 8 -5.08102694059406 -5.52963744714471  0.25041207190719
 6 -4.12605618501850 -3.35544133393339  0.49181904720472
 6 -3.48201883278328 -3.68688390969097  1.85029540244024
 8 -3.79328092869287 -3.22092882908291  2.98525120622062
 8 -2.69943113681368 -4.74673939633963  1.71386996789679
 6 -2.17352794069407 -5.33196742584258  2.98243317881788
 6  2.72896540824082 -0.55703349794979 -1.23621482188219
 6  4.12176426542654 -0.46903507980798 -0.64691484048405
 6  5.15117860226023  0.30457672307231 -0.99162893559356
 6  5.15136355935594  1.33182583188319 -2.12513667896790
 6  6.49123345614561  0.34589643984398 -0.26052253745375
 6  7.68736627452745 -0.30515086198620 -0.97154410491049
 6  8.93439531213121 -0.30395552595260 -0.14969678247825
 6  10.16554717921792 -0.73596066776678 -0.85463643414341
 6  10.21004770497050 -2.16103703980398 -1.27981144614461
 6  11.41740461736174 -0.44083786458646 -0.02969210061006
 6  12.76443135083508 -0.50454450555056 -0.69749977287729
 6  13.87191666006601 -0.28319952275228  0.14918198569857
 6  15.29716584148415 -0.18271200030003 -0.60824906470647
 6  15.80990265916592 -1.53978161196120 -1.05001461916192
 6  16.41150525642564  0.44446880688069  0.40997550475048
 6  17.92958754815481  0.45404680308031 -0.05339115371537
 6  18.82776314581458  1.39097731473147  0.83501393439344
 6  20.27712638183818  1.49818015151515  0.34798956215622
 6  20.37843919771977  2.19245754295430 -1.04405539823982
 6  21.13487441824183  2.36925986228623  1.31241660506051
 1 -3.96491797629763  3.47950347174717  1.36730131703170
 1 -10.24497489018902  3.87877871287129 -0.48348373987399
 1 -10.30500378977898 -2.44539388018802 -1.23974062626263
 1 -2.70528698559856 -1.14351266516652  2.14890558175818
 1 -2.33764736993699  1.71010459305931  1.13484413481348
 1 -2.03747820532053  0.80893134603460  3.74440815431543
 1 -3.28226328632863  2.34890894839484  3.40723288868887
 1 -3.90162360506051  0.74585926992699  3.65443785658566
 1 -2.29097158205821 -1.67705766616662 -0.01807571677168
 1 -2.23904557705771 -0.20721347094709 -0.92989302890289
 1 -0.27639115651565  0.33920853475348  1.15999639873987
 1 -0.35654345634563 -1.37904241944194  1.25578953415342
 1 -5.34497327272727  6.69763840794079  0.10733644284428
 1 -5.28392538193819  6.51678504160416  2.09051534863486
 1 -4.38390234623462  5.56527769416942  0.85758893449345
 1 -9.24841689418942  6.05513166126613 -0.48888911711171
 1 -9.09696091199120  8.12627336623662  0.68421804360436
 1 -7.60345981178118  7.59601600110011  1.79616800230023
 1 -12.20445455055506  2.87143746974697 -2.37207021172117
 1 -13.21661133033303  1.67631152235224 -1.74632582408241
 1 -12.43546527762776  3.32194084878488 -0.78962020602060
 1 -12.34920969936994 -1.53093253835383 -1.18496345124512
 1 -13.41465018391839 -0.07744448124813 -1.44442997049705
 1 -13.19330568316832 -1.67997268346835 -3.52130201470147
 1 -12.53902746694670 -0.18701323892389 -3.84712820852085
 1 -11.50705698499850 -1.57116198329833 -3.29268788878888
 1 -9.22605220822082 -4.71972271517152 -1.71394465856586
 1 -7.98629799459946 -5.76500650485049 -0.52644225722572
 1 -9.48559844474447 -4.90479550085009  0.13735191259126
 1 -3.38355905180518 -3.32814606530653 -0.09656492799280
 1 -1.79891805830583 -4.45730216991699  3.52450536583658
 1 -2.88065767436744 -6.04252587018702  3.46613945284528
 1 -1.21786989848985 -5.86188546174617  2.43123707660766
 1  2.63410271437144 -1.53652548844884 -1.54655862086209
 1  2.40506798439844  0.28328260786079 -2.08777192939294
 1  4.26433733933393 -1.13406562176218  0.49049226522652
 1  4.32898186168617  1.11524023442344 -2.82951132083208
 1  5.05664107580758  2.53555381428143 -1.84685115331533
 1  5.98045535313531  1.07405851335133 -2.76922565356536
 1  6.69241130403040  1.44136813681368 -0.11884924212421
 1  6.44583870327033 -0.10223826122612  0.77321703840384
 1  7.32859024372437 -1.19359859505951 -1.53565488908891
 1  7.66718915481548  0.32237544564456 -1.91216414001400
 1  8.86499855145514  0.75089297429743  0.61615924812481
 1  8.66768525722572 -1.00056556275628  0.77120498419842
 1  10.44976252765276 -0.10935839813981 -1.93358824832483
 1  9.33207819331933 -2.47999597609761 -1.96682260706071
 1  11.11068362406241 -2.28945572947295 -1.94739898379838
 1  10.38664155015502 -2.72442438443844 -0.33612305200520
 1  11.21767944884489  0.42153438363836  0.28838032553255
 1  11.21736478987899 -1.04490045134513  0.79891051265127
 1  13.00380369926993 -1.40854901610161 -1.17609527712771
 1  12.69019277177718  0.32498318931893 -1.56900026132613
 1  13.84914635133513  0.73819637563756  0.70103744674467
 1  14.17655040814081 -1.07539714441444  1.04281079757976
 1  15.37346063456346  0.50550003500350 -1.30395475347535
 1  15.91394883778378 -2.37119741184118 -0.17498895279528
 1  15.21361441214121 -1.90875325092509 -1.92793020812081
 1  16.71824145354536 -1.37350287518752 -1.75574704420442
 1  16.31229643034303  1.53272110581058  0.86432297659766
 1  16.44262871007101 -0.60016919201920  1.25096785798580
 1  18.20589152785278 -0.69217576497650 -0.01520486088609
 1  17.94646171067107  0.61444876377638 -1.02731630743074
 1  18.48768956155616  2.51492565026503  0.98445645094509
 1  18.65616277657766  0.96406058705871  1.76437643794379
 1  20.79974488718872  0.40779692789279  0.33267033103310
 1  19.93083719031903  3.15184874677468 -1.01133472687269
 1  21.36508076017602  2.22908956175618 -1.36652801610161
 1  19.76697060146015  1.63315512631263 -1.88338530753075
 1  21.17206318151815  1.95908401750175  2.30644026122612
 1  22.05090679697970  2.42520375007501  0.83817878417842
 1  20.92163189308931  3.51672175547555  1.17782822332233

