%nproc=4
%Mem=2GB
# td=(NStates=1) CAM-B3LYP/6-31G(d,p) 

TD

0 1
12 -7.12177275027503  0.58643739183918  0.13454114151415
 6 -4.91375599359936 -1.95589676807681  0.57028356105611
 6 -4.81423135203520  2.94922336963696  1.02533889878988
 6 -9.47523225872587  3.08994448994899 -0.50467332703270
 6 -9.51921223492349 -1.75508101910191 -0.90445687478748
 7 -5.10005342994299  0.52741255935594  0.69867028532853
 6 -4.32755246134614 -0.70877069906991  0.74081210441044
 6 -2.93709271467147 -0.31501092679268  1.13540389458946
 6 -3.02563600200020  1.11773444174417  1.64912564326433
 6 -4.44800179507951  1.55908665746575  1.03162019191919
 6 -2.82525760786079  1.34796708480848  3.05439684858486
 6 -1.84278773977398 -0.54002926432643  0.05798975727573
 6 -0.49515693829383 -0.40835518271827  0.58369249854986
 6  0.56432756995700 -0.65842935583558 -0.55009038953895
 8  0.25516675677568 -0.81848725632563 -1.75377170887089
 8  1.78734054455446 -0.58561595799580 -0.16688347724772
 7 -7.13787423532353  2.62949853965397  0.28358705420542
 6 -6.01791107010701  3.39875085088509  0.64296783038304
 6 -6.51840909400940  4.82665695509551  0.73510419761976
 6 -7.77991069806981  4.86144677617762  0.28745713701370
 6 -8.15769004060406  3.38272746804680 -0.00717817151715
 6 -5.65816377307731  5.93598606450645  1.28889364986499
 6 -8.69408720632063  6.00012104580458  0.23053003840384
 6 -8.78158204950495  7.16652277087709  0.96624287408741
 7 -9.09155142774277  0.62257511861186 -0.54391842554255
 6 -9.89617587728773  1.78407836093609 -0.69902622672267
 6 -11.23272236883688  1.44357269636964 -1.02397411691169
 6 -11.28511091499150  0.08452381648165 -1.15614432843284
 6 -9.96257193789379 -0.43103507780778 -0.90950596669667
 6 -12.32043086678668  2.37698826982698 -1.36350312511251
 6 -12.47486203250325 -0.83902131223122 -1.63011381988199
 6 -12.41709919831983 -1.17258967016702 -3.14593971257126
 7 -7.31215068336834 -1.41797141074107 -0.08233291029103
 6 -8.27748798859886 -2.29392456455646 -0.51757671287129
 6 -7.92057820342034 -3.65579384688469 -0.59044632193219
 6 -6.53191707580758 -3.56243058005801 -0.21986371827183
 6 -6.20409300570057 -2.18501678297830 -0.01461865766577
 6 -8.71898936633663 -4.92608545094509 -0.93597207560756
 6 -5.31914638493849 -4.32699658315832  0.13538641124112
 8 -5.09334817271727 -5.58107259065907  0.06400343104310
 6 -4.16843042244224 -3.26792258205821  0.53056292159216
 6 -3.60814144504450 -3.63036825812581  1.98264863776378
 8 -3.72814441504150 -3.00047678387839  3.07473015411541
 8 -2.80974216791679 -4.60184490689069  1.82079065996600
 6 -2.14707529542954 -5.03452768186819  3.04591952745275
 6  2.84779729142914 -0.82170996559656 -1.19606080648065
 6  4.17032912191219 -0.54667284358436 -0.64821497049705
 6  5.18122160656066  0.33788005340534 -0.96164593729373
 6  5.02936135913591  1.18721137043704 -2.21278544384438
 6  6.47168150095009  0.31854370457046 -0.19110559575958
 6  7.66162370027003 -0.03397374427443 -0.96991394189419
 6  9.00897276987699 -0.07418254865487 -0.17551936473647
 6  10.24816544104410 -0.49364643634363 -0.83595456595660
 6  10.22000870107011 -2.06881781788179 -1.19582304730473
 6  11.50119299619962 -0.12585636643664  0.07178804740474
 6  12.79575448314831 -0.48059211031103 -0.57625764866487
 6  14.11227069546955 -0.10683188598860  0.07709477697770
 6  15.42812893779378 -0.28326205530553 -0.54061230103010
 6  15.76931860076008 -1.71337897169717 -0.88435805350535
 6  16.51359546544655  0.19720408040804  0.34393890109011
 6  17.93473806320632  0.37027842624262 -0.24456027062706
 6  18.90741111061106  1.08750696769677  0.72304273727373
 6  20.36930559975998  1.31395172867287  0.20104486768677
 6  20.40423177697770  2.28600689788979 -0.97512850555055
 6  21.16330726152615  2.00416335263526  1.32535789918992
 1 -4.16445793029303  3.71341686308631  1.31869645654565
 1 -10.17134752745275  3.99096993199320 -0.46010140164016
 1 -10.28832212161216 -2.43968330913091 -1.19017566976698
 1 -2.50542699959996 -0.90902921682168  1.99508019921992
 1 -2.12223582878288  1.58621220382038  0.77076772717272
 1 -1.75954041154115  0.84706515941594  3.50646435993599
 1 -2.85972103210321  2.39170322782278  3.40260242564257
 1 -3.50741418411841  0.92474715871587  3.58641105390539
 1 -1.82725521042104 -1.62364232463246 -0.37681159035904
 1 -2.06622829532953  0.07858510891089 -0.88671871147115
 1 -0.06429994739474  0.59786440034003  1.00215061416142
 1 -0.20257805980598 -1.13987850305031  1.30644459965997
 1 -6.07814659005901  6.92097074117412  1.03472918211821
 1 -5.85620260966097  5.83865722882288  2.39303560066007
 1 -4.60975493149315  5.70092125852585  1.09954312991299
 1 -9.70551260376038  6.01418756685668 -0.56374660286029
 1 -9.29945116101610  7.95026576547655  0.84378400020002
 1 -8.10932039783978  7.20132653215322  1.79180756625663
 1 -12.06761086618662  2.86681700770077 -2.28822182688269
 1 -12.99736940614061  1.59825371657166 -1.68869006050605
 1 -12.73096482758276  2.97257591229123 -0.71001224522452
 1 -12.61302608100810 -1.71318076317632 -0.94213916881688
 1 -13.39054777367737 -0.21176791359136 -1.29979550705071
 1 -13.55327167976798 -1.80041472767277 -3.21253113761376
 1 -12.24150771497150 -0.13448798639864 -3.74802829852985
 1 -11.49669594889489 -1.79014388148815 -3.45073369336934
 1 -8.94497410041004 -4.71534227712771 -1.91645490959096
 1 -8.08784814961496 -5.72019202340234 -0.78523813681368
 1 -9.55011489638964 -5.04200922222222 -0.20696251885189
 1 -3.15292598849885 -3.29736298699870 -0.17043231473147
 1 -1.60601876837684 -4.23716015571557  3.48831174647465
 1 -2.70569017761776 -5.45006662426243  4.02433527242724
 1 -1.43597170867087 -5.87902717591759  2.88268222112211
 1  2.33288259235924 -1.75626746264626 -1.42785675067507
 1  2.66227370497050 -0.19983570397040 -2.10809396159616
 1  4.32497340294029 -1.30346256145615  0.41530474647465
 1  3.98494745824582  1.20327903830383 -2.60031840154015
 1  5.14191960366037  2.12960321922192 -1.90043651185118
 1  5.66449375697570  1.08553966146615 -3.13190192119212
 1  6.71564362726273  1.27228122812281  0.12742538533853
 1  6.38951307070707 -0.20442848024803  0.68548826552655
 1  7.39302668736874 -1.06275551075108 -1.53360468406841
 1  7.82128456435643  0.57666087418742 -1.83930685428543
 1  9.26662871447145  0.88907679267927  0.18334596679668
 1  8.83206169486949 -0.84013952015201  0.64118198189819
 1  10.34416196759676  0.16325886358636 -1.64484937443744
 1  9.33654864036404 -2.25617359385939 -1.91086701150115
 1  11.26762931863186 -2.32762954685469 -1.61098534243424
 1  9.98330121612161 -2.48889083108311 -0.08880832053205
 1  11.47329501040104  0.95690792099210  0.32792427992799
 1  11.42844589798980 -0.73296925822582  1.04442506410641
 1  12.76848016691669 -1.66962512371237 -0.74340200780078
 1  12.58909266176618  0.02628331933193 -1.52035539683968
 1  13.97286872357236  0.97470002600260  0.42636997999800
 1  14.14645739883989 -0.65544514921492  0.87821433793379
 1  15.43414670317032  0.30673015801580 -1.44580893889389
 1  15.88541598449845 -2.30921121322132 -0.04173562746275
 1  14.83437648834884 -2.05947832343234 -1.29238665376538
 1  16.71342097149715 -1.94415994089409 -1.39627109660966
 1  16.35032023272327  1.21790962466247  0.92510905520552
 1  16.50978542574257 -0.62603177827783  1.27551031223122
 1  18.28988992769277 -0.57954450185018 -0.65935927632763
 1  17.81750881538154  1.13905122402240 -1.16944051985198
 1  18.39378017061706  2.04776893459346  1.03331133643364
 1  18.88553571387139  0.36391057205721  1.53383338363836
 1  20.86099101180118  0.38912506070607  0.10437750175018
 1  19.98998310491049  3.19849341124112 -0.53312690609061
 1  21.50910516261626  2.44249090189019 -1.08146951025102
 1  19.81934583898390  1.99025083588359 -1.79605657465747
 1  21.17764373957396  1.32348045714571  2.03437305450545
 1  22.24283598989899  2.01678290799080  1.15183014931493
 1  20.76158588848885  2.96294637793779  1.42725316581658

