%nproc=4
%Mem=3GB
# td=(NStates=1) iop(3/107=0140000000,3/108=0140000000) CAM-B3LYP/6-31G(d,p) 

TD

0 1
12 -7.12589728142814  0.57617600110011  0.22200857085709
 6 -4.90877969446945 -2.04855208580858  0.50252565496550
 6 -4.76358238883888  2.82516123402340  1.18365847104710
 6 -9.44696146064607  3.22322987598760 -0.25455793109311
 6 -9.54954105210521 -1.59138090379038 -0.87997480238024
 7 -5.06918394959496  0.33059915051505  0.75587341134113
 6 -4.37270951825183 -0.77400854405441  0.68267616231623
 6 -2.89728594919492 -0.54568296629663  1.18575424452445
 6 -2.97999122602260  0.91216991859186  1.74657093639364
 6 -4.41789202390239  1.48780343144314  1.07931232513251
 6 -3.12620880168017  1.05372819211921  3.19412472707271
 6 -1.94894062376238 -0.77994398359836  0.00433424372437
 6 -0.47709341854185 -0.46234948294829  0.52784616691669
 6  0.50385230843084 -0.63964058595860 -0.60403019311931
 8  0.11726194299430 -0.93365714341434 -1.74210160326033
 8  1.76517511591159 -0.41743168156816 -0.18905429302930
 7 -7.02827047044704  2.58773198309831  0.40207113121312
 6 -5.90096023982398  3.43446721412141  0.75142101820182
 6 -6.22040694909491  4.72519938353835  0.58005626432643
 6 -7.56810159545955  4.84607641284128  0.26762288868887
 6 -7.96482601010101  3.45145208400840  0.07923592219222
 6 -5.25464749864986  5.92924239793979  0.98238839403940
 6 -8.40777078507851  5.98448871847185  0.05609622212221
 6 -8.18532694269427  7.14568371807181  0.68235229452945
 7 -9.13260230133013  0.75043203760376 -0.49880645454545
 6 -9.89894738103810  1.90205352965297 -0.64018683218322
 6 -11.22766671937194  1.55959540404040 -1.07139199889989
 6 -11.25051453865387  0.22789033483348 -1.19843987228723
 6 -9.94073167676768 -0.34864505790579 -0.88508070937094
 6 -12.33110404810481  2.54789003040304 -1.45186463916392
 6 -12.38477227012701 -0.55741186498650 -1.80982031263126
 6 -12.34759666856686 -0.98912910521052 -3.33134378557856
 7 -7.28254121652165 -1.42158699439944 -0.06690936603660
 6 -8.37639196549655 -2.18206675217522 -0.53418499839984
 6 -7.92794483428343 -3.54929548094809 -0.56174647444744
 6 -6.55863365386539 -3.59360234233423 -0.21942402410241
 6 -6.31145487718772 -2.29845780158016  0.23134496989699
 6 -8.74889722922292 -4.75074117251725 -0.77582096519652
 6 -5.43331879477948 -4.35728929232923  0.14047902200220
 8 -5.21598259055906 -5.54037089408941  0.05801174977498
 6 -4.28023252585259 -3.41746919431943  0.46667498909891
 6 -3.68754293109311 -3.68068601130113  1.88701466996700
 8 -3.98529131253125 -3.29693705160516  2.90716407460746
 8 -2.80017537033703 -4.82292091059106  1.76243528102810
 6 -2.29862881988199 -5.40672587848785  2.90864826522652
 6  2.91178749914992 -0.68084637353735 -1.14430794799480
 6  4.17833871907191 -0.48299356725673 -0.39926248904890
 6  5.20091558285829  0.30465699369937 -0.81525440244024
 6  5.17995172077208  1.25433310861086 -2.03958809380938
 6  6.52833911261126  0.39231984798480 -0.11097162156216
 6  7.65977743034303 -0.30320886888689 -0.80840116881688
 6  8.97810552215222 -0.09606142224222  0.09067296489649
 6  10.20504596519652 -0.56367803100310 -0.70537625762576
 6  10.17848112471247 -2.12964084398440 -1.14442140814081
 6  11.42843750755075 -0.25898078917892  0.19465150265027
 6  12.73788152365237 -0.35983601710171 -0.63752125722572
 6  14.04119539133913 -0.10324603890389  0.07109352095210
 6  15.39870586158616 -0.26152523612361 -0.43012866536654
 6  15.72379865086509 -1.66368475677568 -0.87298912521252
 6  16.47485447814782  0.42042856015602  0.43941867656766
 6  17.85005259295930  0.55117884748475 -0.27002352935294
 6  18.86772719131913  1.30327840634063  0.66762001870187
 6  20.29917272167217  1.47883731623162  0.01293799979998
 6  20.17701054685469  2.21391869696970 -1.34426912281228
 6  21.04030909790979  2.25507720762076  1.08273221322132
 1 -3.93468383188319  3.51588483988399  1.60308640444044
 1 -10.16500862416242  4.00485275977598 -0.43530805700570
 1 -10.63880830493049 -2.01085662076208 -1.10044786418642
 1 -2.81681896909691 -1.39165936863686  2.06724321502150
 1 -2.40140360666067  1.62550461156116  1.17163081208121
 1 -2.29376246264626  0.60610971737174  3.71434177157716
 1 -3.24430153925392  2.21518074087409  3.68625664786479
 1 -3.79857265776578  0.45156031033103  3.69614129932993
 1 -2.10107522652265 -1.88373904470447 -0.42354036113611
 1 -2.08429479847985  0.00892851265127 -0.77287402200220
 1 -0.60508593729373  0.59368895619562  0.85442930593059
 1 -0.15681410171017 -1.11608237483748  1.37326078437844
 1 -5.61226540424042  6.94578209020902  0.54409424072407
 1 -5.14064553585359  6.20836371777178  2.08677068956896
 1 -4.28551339593959  5.80316458445845  0.78660939353935
 1 -9.36835709550955  5.87532091409141 -0.53309466216622
 1 -8.97513657735774  7.80148986998700  0.58154793049305
 1 -7.20861879397940  7.07791462786279  1.46625558585859
 1 -12.14607508050805  3.14367351445145 -2.49115494699470
 1 -13.29588688638864  1.97114585698570 -1.64396012421242
 1 -12.52983401610161  3.23224055815582 -0.46731717121712
 1 -12.48845080998100 -1.37537846064606 -1.21438493939394
 1 -13.42867516661666 -0.18980169066907 -1.79903565796580
 1 -13.07513271247125 -1.61887554965497 -3.82305326342634
 1 -12.32260266596660 -0.08970744204420 -3.94418339673967
 1 -11.42958779817982 -1.64098512571257 -3.50777905610561
 1 -8.97456207480748 -4.95201170197020 -1.84811087408741
 1 -8.07533191839184 -5.46761271457146 -0.54986494159416
 1 -9.77156133513351 -4.66641508990899 -0.18610087878788
 1 -3.49015653415342 -3.58389499509951 -0.44404214231423
 1 -1.74717810541054 -4.58663087648765  3.45906762436244
 1 -3.22149858715872 -5.57500702560256  3.56928796649665
 1 -1.63161368186819 -6.35117590239024  2.91388474957496
 1  2.58734678947895 -1.78008463126313 -1.40009145784578
 1  2.68878531983198  0.01658974377438 -1.93194425192519
 1  4.55235572227223 -1.11269968376838  0.59581098129813
 1  4.11810712221222  1.05503104580458 -2.67412789848985
 1  5.67634456665667  2.32281270517052 -1.83391082948295
 1  5.93048261676168  0.77147833873387 -2.79792604950495
 1  6.96199438333833  1.43784376497650  0.16013562746275
 1  6.44901277337734 -0.32637997469747  1.01537773327333
 1  7.34129625242524 -1.29197987098710 -0.85418017521752
 1  7.86943950245025 -0.03619451645165 -1.69589041194119
 1  9.20196624092409  0.91219071657166  0.37522995109511
 1  8.82321544234424 -0.59532788548855  1.09852597599760
 1  10.32440707250725 -0.12735658785879 -1.49946510451045
 1  9.35099470857086 -2.01799008250825 -1.96763514541454
 1  11.22148128872887 -2.48223162246225 -1.54495985408541
 1  9.96875907300730 -2.85752986768677 -0.21448884258426
 1  11.40327196879688  0.83259969336934  0.56067383818382
 1  11.40496809230923 -0.82709400700070  1.16148246834683
 1  12.87202515501550 -1.52947036633663 -1.17186945844585
 1  12.50681651155116  0.36875181118112 -1.49639397309731
 1  13.98382980328033  0.95597096039604  0.47699252795280
 1  13.98716702730273 -0.63820019891989  1.02139451345134
 1  15.32852325372537  0.35279867686769 -1.47016828562856
 1  15.79884368116812 -2.22695203640364  0.23074493899390
 1  14.89115075947595 -2.15389990999100 -1.28784015751575
 1  16.59077735733574 -1.70328122512251 -1.42727924122412
 1  16.14444771827182  1.29604793849385  0.66156207250725
 1  16.57279135693569 -0.29307559235924  1.47965646034603
 1  18.26863360106011 -0.46051256525653 -0.54300449604960
 1  17.75579288888889  0.98838773287329 -1.20842658625863
 1  18.58270732763276  2.27753902190219  1.09110105690569
 1  19.02293825632563  0.97780261976198  1.65543878937894
 1  20.81556138843884  0.48429942754275 -0.12348645644564
 1  19.85707252575258  3.26979775627563 -1.38742092679268
 1  21.36343014381438  2.33458460056006 -1.73807178837884
 1  19.44798319591959  1.50404069426943 -1.89214759915992
 1  21.20354420792079  1.65907154805481  1.94711838063806
 1  22.24664255705570  2.75308577927793  1.05282193579358
 1  20.47160723922392  3.25726184338434  1.36137327402740

