%nproc=4
%Mem=2GB
# td=(NStates=1) CAM-B3LYP/6-31G(d,p) 

TD

0 1
12 -7.12510308330833  0.61494024212421  0.03445113251325
 6 -4.85382000000000 -1.90916209460946  0.59197573027303
 6 -4.85743567246725  2.84427287458746  1.19224558945895
 6 -9.42329706520652  3.08190368586859 -0.50437329702970
 6 -9.56990730443044 -1.67084259525953 -0.96392282138214
 7 -5.07842126672667  0.41969178727873  0.72953337163716
 6 -4.33794350045005 -0.74028385038504  0.79548757195720
 6 -2.87287629302930 -0.42372179787979  1.38813916811681
 6 -3.00378381678168  1.14062673097310  1.70779150985099
 6 -4.28627562246225  1.48279902870287  1.16871390129013
 6 -2.95546062816282  1.44763705180518  3.23609501840184
 6 -1.87145060606061 -0.69255451685169  0.29607356565657
 6 -0.46861428402840 -0.50100444764476  0.74676880618062
 6  0.54549568676868 -0.66721023392339 -0.37239261976198
 8  0.26928816891689 -1.20628603620362 -1.36780311201120
 8  1.84066587708771 -0.49277667406741  0.03320653175318
 7 -7.09820026792679  2.57368295809581  0.36004469997000
 6 -6.09635891489149  3.39831080688069  0.76796032963296
 6 -6.48006525962596  4.80683497289729  0.78211889908991
 6 -7.82577528452845  4.73936456795680  0.32122051335134
 6 -8.15633990559056  3.40920011531153 -0.00560801450145
 6 -5.46898485518552  5.94102656855686  1.04092885338534
 6 -8.64582237983798  5.97959899359936  0.04270125552555
 6 -8.58184207550755  7.13248936753675  0.78216446624662
 7 -9.11074334693469  0.63525638673867 -0.49432346604660
 6 -9.80344660436043  1.74187414051405 -0.73464978907891
 6 -11.13254235083508  1.44489282838284 -1.06952867236724
 6 -11.13771617551755  0.15589095319532 -1.35047376137614
 6 -9.88649433013301 -0.34474644894489 -0.97539255535554
 6 -12.20168899259926  2.45388595959596 -1.49535631043104
 6 -12.35075962226223 -0.77111452155216 -1.88653946244624
 6 -12.32751023942394 -1.15537794899490 -3.27160227882788
 7 -7.20624009230923 -1.41713132673267 -0.10199487648765
 6 -8.28448868866887 -2.19726489858986 -0.57145210041004
 6 -7.84607075267527 -3.59390765826583 -0.46704398169817
 6 -6.57720160426043 -3.60678501550155  0.01105937403740
 6 -6.22769536593659 -2.20431871317132  0.14098690289029
 6 -8.72742020942094 -4.78585142754275 -0.93507198559856
 6 -5.29393386368637 -4.35927981148115  0.23558643124312
 8 -5.29315815371537 -5.54849933333333  0.19777680838084
 6 -4.15269884928493 -3.29333512331233  0.56845671097110
 6 -3.43276390729073 -3.56243146444644  1.85363573647365
 8 -3.61800340094009 -3.02895963216322  2.92815549664966
 8 -2.65389658335834 -4.75085980838084  1.69661824272427
 6 -2.13755434333433 -5.38457268636864  2.86661159665967
 6  2.77929044074407 -0.68391618621862 -1.06604780518052
 6  4.17360944994499 -0.43144132043204 -0.51001115011501
 6  5.19315279967997  0.34829109450945 -0.96930670337034
 6  4.85920434343434  1.22305495479548 -2.11945611091109
 6  6.47959229202920  0.50300215041504 -0.19019550475048
 6  7.54688222612261 -0.06333668056806 -1.04492144264426
 6  8.90821269386939 -0.05812094249425 -0.26119793259326
 6  10.20663128762876 -0.44501157285729 -0.99566053655366
 6  10.04440114031403 -1.91285222132213 -1.49672313731373
 6  11.44705758265827 -0.27646142694269 -0.05479461086109
 6  12.79587449514951 -0.38250230133013 -0.79205922882288
 6  14.03028249664967  0.02559135633563  0.16456352385239
 6  15.30180630553055 -0.12397612671267 -0.54748298809881
 6  15.64958662756276 -1.59173680748075 -0.98756837453745
 6  16.47344145004501  0.38168252825283  0.41261576877688
 6  17.85120971037104  0.56590798919892 -0.24421023562356
 6  18.79365973547355  1.12608082508251  0.78257869086909
 6  20.21964063326332  1.26199653315332  0.23850861406141
 6  20.32478383218322  2.08754705190519 -1.03047404010401
 6  21.17083801460146  1.68222115841584  1.25700106350635
 1 -4.00301178567857  3.43800932233223  1.54525911281128
 1 -10.12751314401440  3.70716155115512 -0.56571196269627
 1 -10.25644893429343 -2.53834317511751 -1.16152280448045
 1 -2.72392884978498 -1.21370968486849  2.22760345154515
 1 -2.27839144434443  1.86590017261726  1.11523217361736
 1 -2.00877533503350  1.12311276417642  3.77094080758076
 1 -3.42944800480048  2.55929998749875  3.37494966036604
 1 -3.66815025772577  0.66488117211721  3.33255566836684
 1 -2.04289677457746 -1.74667462786279 -0.08224213341334
 1 -2.10715238773877 -0.09207195679568 -0.49387942754275
 1 -0.13974749214921  0.41821643554355  1.14688508760876
 1 -0.28340614261426 -1.08821333653365  1.67547150235024
 1 -5.61293006840684  6.88824746884688  0.51572728192819
 1 -5.61989897929793  6.11549491259126  2.08915521262126
 1 -4.42152610861086  5.85501666806681  0.86352952855286
 1 -9.27417947044705  6.11032718081808 -0.78680890909091
 1 -9.24920613651365  7.97337807670767  0.56020564236424
 1 -7.95902536833683  7.17929432893289  1.79678806430643
 1 -11.88272237733773  2.90143046904690 -2.39395239993999
 1 -13.14372404160416  2.03713760496050 -1.73684487598760
 1 -12.46066779787979  3.23682233693369 -0.79866111011101
 1 -12.35427020542054 -1.64425387048705 -1.20988594349435
 1 -13.30721944084408 -0.03856059285929 -1.84080960846085
 1 -13.33707005960596 -1.74771945814581 -3.73629351385138
 1 -12.23598716291629 -0.39745428302830 -3.96584007970797
 1 -11.44088036733674 -1.95813068016802 -3.68637725772577
 1 -9.42103170617062 -4.53166390929093 -1.80441370547055
 1 -8.03167253205320 -5.80279028322832 -0.97121673467347
 1 -9.43479336423643 -4.97201222252225 -0.13118494109411
 1 -3.35593628952895 -3.34994824552455 -0.04043931543154
 1 -1.70839900640064 -4.61119755945595  3.53596651195119
 1 -2.99783939253925 -5.63364498209821  3.45687852675268
 1 -1.61577968946895 -6.19371864506451  2.56422037493749
 1  2.69686899099910 -1.82523435933593 -1.32367633263326
 1  2.49957743534353 -0.09014473487349 -1.82744589678968
 1  4.39972087768777 -0.99092130733073  0.29936315231523
 1  3.80746971047105  1.38840755115512 -2.31952032173217
 1  5.46285169686969  2.11663192209221 -1.94853132133213
 1  5.40345765336534  0.68029913741374 -2.87880661166117
 1  6.71761382428243  1.56075007500750  0.11728437123712
 1  6.47917203660366 -0.13549158655866  0.50116983368337
 1  7.32668005270527 -1.19733896909691 -1.26358768236824
 1  7.71134357025702  0.63443665176518 -2.01509443304330
 1  9.06386843844384  1.08846673167317  0.12013964616462
 1  8.76262475117512 -0.65765127132713  0.74019188288829
 1  10.28550610201020  0.11977451515152 -1.93689857935794
 1  9.24633961946195 -1.90128810531053 -2.27723364816482
 1  11.02031458715872 -2.30683746764676 -1.69855409930993
 1  9.68138102410241 -2.58286022802280 -0.49846928662866
 1  11.37316499739974  0.79262149234923  0.25382687018702
 1  11.37285033843384 -0.98464442574257  0.74565518711871
 1  13.08291161006101 -1.35746390759076 -1.10169783738374
 1  12.83017677017702  0.08996968796880 -1.79961332263226
 1  13.90854229092909  1.06791934793479  0.34077142014201
 1  13.86204895799580 -0.61770137483748  0.98777529402940
 1  15.34823811231123  0.57572705770577 -1.44310866886689
 1  15.73251069396940 -2.07692798489849  0.09712825892589
 1  14.83733678437844 -2.17645002060206 -1.56758417351735
 1  16.60478010741074 -1.38696422132213 -1.50956242574257
 1  16.06331153185318  1.44064189788979  0.63703024732473
 1  16.50687513471347 -0.31677085218522  1.23501626282628
 1  18.35733667236724 -0.28925547294729 -0.82100544094409
 1  17.90099716421642  1.22684000290029 -1.23251682748275
 1  18.32272306490649  2.14828898659866  1.08403640894089
 1  18.69957711801180  0.58427260826083  1.73151315161516
 1  20.45561047374737  0.24318046624663 -0.06681961796180
 1  19.93121722832283  3.12506606850685 -0.75670926432643
 1  21.27829208130813  2.17983463626363 -1.32299366266627
 1  19.63368727312731  1.81678348914892 -1.81600856985699
 1  21.11796777197720  1.15317342644264  2.39166878407841
 1  22.28433013931393  1.47247847754775  1.01647661396140
 1  21.07021675157516  2.73163324662466  1.46987742824282

