%nproc=4
%Mem=2GB
# td=(NStates=1) CAM-B3LYP/6-31G(d,p) 

TD

0 1
<<<<<<< HEAD
12 -7.18817939093909  0.64789353745375 -0.01829414201420
 6 -4.87958257625763 -1.96086726512651  0.43258979167917
 6 -4.88125805470547  2.73194164146415  1.31206757165717
 6 -9.51262599809981  3.01864736023602 -0.21941480118012
 6 -9.51046135983598 -1.82576808780878 -0.91615804490449
 7 -5.17202062666267  0.43463328142814  0.65972639093909
 6 -4.36187589368937 -0.66614643664366  0.75108313151315
 6 -2.89830883628363 -0.35540496619662  1.18853920812081
 6 -3.00679411781178  1.18694136243624  1.71391212191219
 6 -4.48220521542154  1.47108785758576  1.21103813371337
 6 -2.89527460956096  1.33138542664266  3.32063347224722
 6 -1.93782724372437 -0.58420368176818  0.08224218251825
 6 -0.43821124372437 -0.35147949514952  0.50132426172617
 6  0.58973011021102 -0.61463497639764 -0.67160254075408
 8  0.29693093319332 -1.08481388898890 -1.75680201190119
 8  1.86804861536154 -0.35908330473047 -0.25485227412741
 7 -7.17713816171617  2.65081067086709  0.28478717421742
 6 -6.16517579657966  3.32493346914691  0.88668220182018
 6 -6.46481373447345  4.75675996539654  0.77580826802680
 6 -7.75413812081208  4.77140777227723  0.38523691499150
 6 -8.22029630123012  3.41516071137114  0.12564511081108
 6 -5.57834579127913  5.90363282918292  1.21527628812881
 6 -8.55820361796180  6.01397243094309  0.11581856725673
 6 -8.45400929222922  7.24982110071007  0.74843109290929
 7 -9.18398067066707  0.53380624172417 -0.45126916061606
 6 -9.91408766846685  1.69872982608261 -0.62700902500250
 6 -11.17713681028103  1.42494083318332 -1.12239395889589
 6 -11.27797020092009  0.08404376847685 -1.28750746474648
 6 -9.95457113781378 -0.46266824112411 -0.91325634173417
 6 -12.17083590729073  2.42074264526453 -1.43880065486549
 6 -12.43585813211321 -0.74559196929693 -1.85814662316232
 6 -12.25205269366937 -1.15898831003100 -3.40509562816282
 7 -7.22147161546155 -1.40254986858686 -0.27976265326533
 6 -8.23615385518552 -2.23805897799780 -0.60876583178318
 6 -7.86270241584158 -3.61122939043904 -0.58005528282828
 6 -6.56842072617262 -3.54607894489449 -0.01848358025803
 6 -6.18815141154115 -2.20524880618062  0.05766857105711
 6 -8.64260172757276 -4.83115595799580 -0.71213969236924
 6 -5.33742821312131 -4.33570745424542  0.20657352995300
 8 -5.11655049294929 -5.54846933033303  0.21535856655666
 6 -4.18653223262326 -3.31995778557856  0.59210907620762
 6 -3.58003863476348 -3.68659388068807  1.88993936683668
 8 -3.76865846644664 -3.07326406260626  2.93897657875788
 8 -2.81323251695169 -4.74821954435444  1.76330491139114
 6 -2.24792538043804 -5.17414164326433  3.10178511401140
 6  2.86958947064706 -0.67781557615762 -1.25875707610761
 6  4.14223631263126 -0.37202537883788 -0.52709285828583
 6  5.18158164256426  0.40279654505451 -0.97676744944494
 6  5.00705912891289  1.23738638793879 -2.27438160346035
 6  6.38271260406041  0.55494734493449 -0.24206069126913
 6  7.73380091799180 -0.03354370127013 -0.91775872637264
 6  8.99684155675568  0.08283315291529 -0.02069388218822
 6  10.23054367886789 -0.48989606130613 -0.73330430093009
 6  10.16807350755075 -1.97748868496850 -1.11357482248225
 6  11.49866274317432 -0.22100588138814  0.09006987558756
 6  12.78206311401140 -0.38926297739774 -0.66721674457446
 6  13.99384885328533 -0.20136133893389  0.21769883738374
 6  15.36906303120312 -0.27514124322432 -0.47198543834383
 6  15.73080474937494 -1.64149178297830 -0.87134675237524
 6  16.45348945484549  0.29403376337634  0.54087859505951
 6  17.88613320272027  0.47753915231523 -0.18385420002000
 6  18.91045141464146  1.24857307430743  0.69288972197220
 6  20.26205487468747  1.22630296379638  0.03471823502350
 6  20.34694604840484  2.09994829202920 -1.18585957865787
 6  21.22565349614962  1.77583051935194  1.11249661306131
 1 -4.39953143764377  3.38396391779178  1.85246983388339
 1 -10.08282867556756  3.81269210421042 -0.56139153065307
 1 -10.07224051345134 -2.51694103490349 -1.39203585578558
 1 -2.62525898279828 -1.12575088898890  1.94473516471647
 1 -2.26715032023202  1.73185676827683  1.17353800420042
 1 -1.81466592409241  1.10988144104410  3.74945865936594
 1 -2.99467452745274  2.40438449594960  3.27716988238824
 1 -3.45365880858086  0.67076176017602  3.77079949274927
 1 -2.02689517441744 -1.61199115951595 -0.21669557875788
 1 -2.21934360686069  0.09171642204220 -0.72693273287329
 1 -0.34045756315632  0.70109472337234  0.95025542464246
 1 -0.12725052705271 -0.98488300350035  1.27950190539054
 1 -5.75218399379938  6.73071171527153  0.74573028222822
 1 -5.62266925632563  5.91298466156616  2.33461975907591
 1 -4.59105306130613  5.53742490889089  0.99141231683168
 1 -9.31032308480848  5.86337248534853 -0.62033226142614
 1 -9.14118533443344  8.03379411831183  0.46095571737174
 1 -7.79886935273527  7.16850324982498  1.66006439193919
 1 -11.87837194229423  2.86322664866487 -2.42552555725573
 1 -13.18709837903790  2.12156604780478 -1.61950314181418
 1 -12.26680841194120  3.05824447914791 -0.44871611561156
 1 -12.50569534793479 -1.56366581168117 -1.34424937983798
 1 -13.15783450235023 -0.10333707050705 -1.63306883438344
 1 -13.15360171277128 -1.71962664886489 -3.67887777227723
 1 -11.91601516571657 -0.23958849644964 -3.93554705040504
 1 -11.54249052835284 -1.98684355145515 -3.55995461546155
 1 -9.09792939593959 -4.66434717761776 -1.67172043614361
 1 -8.14060342514251 -5.57452745694569 -0.49196880988099
 1 -9.43477336223622 -4.77056207750775  0.01593977137714
 1 -3.36243693959396 -3.35160841154115 -0.06682195369537
 1 -2.06067423392339 -4.03726016571657  3.56948986428643
 1 -3.00030963956396 -5.87315893349335  3.68414125302530
 1 -1.24178228972897 -5.66222549574958  2.70507446034603
 1  2.78138744284428 -1.74202603850385 -1.63167713271327
 1  2.79344682228223 -0.06496221662166 -2.17628078027803
 1  4.29697060266027 -0.95411762696270  0.34660787678768
 1  3.98836780028003  1.03598230863086 -2.92876124582458
 1  5.02072748444844  2.34578483738374 -1.84177064526453
 1  5.99539684728473  0.88983009050905 -2.92153088408841
 1  6.47019908280828  1.53825782578258  0.01930457325733
 1  6.29445356475648  0.22981494409441  0.82157187388739
 1  7.44704208890889 -1.00248948414841 -1.22701402500250
 1  7.78942137803780  0.69399260736074 -1.87923084668467
 1  9.11219327092709  1.17821570657066  0.21016864906491
 1  9.03264175287529 -0.51296680288029  0.94629249294930
 1  10.31663921532153 -0.03348081038104 -1.62771766126613
 1  9.21490647614761 -2.09490746724672 -1.79962588738874
 1  11.13896645234523 -2.22375915981598 -1.78313255715572
 1  9.85095798179818 -2.68807074907491 -0.32670210991099
 1  11.42705038593859  0.82646487668767  0.42444393189319
 1  11.21664471787179 -1.09969593089309  0.85241586318632
 1  12.89378269716972 -1.34131229242924 -0.89233690129013
 1  12.85374912741274  0.21443213421342 -1.55399876117612
 1  13.93289472617262  0.88113066906691  0.64279162216222
 1  13.84069682278228 -0.85497510221022  1.17344386088609
 1  15.27945123362336  0.39994947994800 -1.35357971597160
 1  15.56727417031703 -2.25665595769577 -0.02981443534353
 1  15.17195024572457 -2.06111848744874 -1.61361877697770
 1  16.81720134953495 -1.88889441434143 -1.14991646114611
 1  16.20382558325833  1.35262309600960  0.77353389768977
 1  16.62053650085008 -0.31954112921292  1.43496625782578
 1  18.15639657835784 -0.53226977437744 -0.36914025442544
 1  17.60903796829683  1.19627694659466 -1.03942751855185
 1  18.73310410301030  2.26438059575958  0.81155916121612
 1  18.93846100640064  0.83344752575258  1.70419041934193
 1  20.48578349104911  0.25554170237024 -0.49841277727773
 1  19.98240234683468  3.14308787068707 -0.89072266566657
 1  21.32054630673067  1.72926957975798 -1.72342370567057
 1  19.77147105150515  1.74314612541254 -2.05347231623162
 1  21.02179815501550  1.37892600170017  2.00965058225823
 1  22.30802250855085  1.76547777747775  0.64876984328433
 1  20.99390912081208  2.70697078037804  1.25414585508551
=======
12 -7.13659423242324  0.56446519461946 -0.04381669426943
 6 -4.89708432643264 -1.97068824722472  0.56257278997900
 6 -4.83657358625863  2.84568301560156  1.12026839173917
 6 -9.40899563506351  3.10365586108611 -0.37879073877388
 6 -9.43112342604261 -1.76377188818882 -0.88667509660966
 7 -5.10990441504150  0.45515533363336  0.69720013831383
 6 -4.32338204430443 -0.67697751975198  0.76835485868587
 6 -2.90596960236024 -0.42431185688569  1.17275762996300
 6 -3.08733217161716  1.12160482878288  1.67758848954895
 6 -4.41894888978898  1.53933468226823  1.17637466736674
 6 -2.98619370147015  1.25000728882888  3.23787519641964
 6 -1.99433289428943 -0.56823208460846 -0.00291633333333
 6 -0.55457287988799 -0.48697304450445  0.35556968626863
 6  0.46469760696070 -0.68342185508551 -0.66596197669767
 8  0.18484972507251 -1.01781718931893 -1.85977230893089
 8  1.74790660116012 -0.70612800920092 -0.14436122502250
 7 -7.03292374027403  2.59718530833083  0.26008470397040
 6 -6.02963224222422  3.41317229302930  0.79166269986999
 6 -6.36229348244824  4.73456774617462  0.81946263346335
 6 -7.69840254725473  4.84249488098810  0.39270766206621
 6 -8.07878214981498  3.50201939723972  0.02123466976698
 6 -5.48916687338734  5.79687215311531  1.39688444894489
 6 -8.49952775037504  6.13102413611361  0.24600158555856
 6 -8.51930582188219  7.18966508510851  1.03683993379338
 7 -9.05548782138214  0.69237209830983 -0.49713374707471
 6 -9.80921718141814  1.80358031113111 -0.68959528362836
 6 -11.13476257285729  1.54462280138014 -1.12994471397140
 6 -11.11421382528253  0.06858222232223 -1.34804351835184
 6 -9.88484416511651 -0.35847782208221 -0.95376039213921
 6 -12.24451327502750  2.50695126612661 -1.36195297009701
 6 -12.33595814211421 -0.80994840494049 -1.90034084258426
 6 -12.04340182858286 -1.28970138133813 -3.30855597419742
 7 -7.25628509680968 -1.39903951755176 -0.07701237823782
 6 -8.27259749954995 -2.27277244934493 -0.53534849004900
 6 -7.86276242184218 -3.63829209670967 -0.45002227952795
 6 -6.49949383348335 -3.54846918391839 -0.06831856375638
 6 -6.16235883228323 -2.17872615391539  0.19951275547555
 6 -8.71250871827183 -4.89870271267127 -0.76057453585359
 6 -5.29507397769777 -4.30202408590859  0.20101297389739
 8 -5.18432727062706 -5.53130761416142  0.21637866856686
 6 -4.15638921832183 -3.35985177497750  0.58306817211721
 6 -3.63684431533153 -3.57907312861286  1.91367174007401
 8 -3.86970857145715 -3.01030776697670  2.91119380048005
 8 -2.76018721242124 -4.66201092349235  1.83442202310231
 6 -2.20546113401340 -5.08826305540554  2.94433936943694
 6  2.79982249394939 -0.74614240884088 -1.24035523592359
 6  4.10320240924092 -0.31655983228323 -0.64100424942494
 6  5.16050953535354  0.35201146654665 -1.01889166186619
 6  5.12976139913991  1.18394104340434 -2.34245841114111
 6  6.41071540434043  0.40441229142914 -0.27252373757376
 6  7.67167470537054 -0.22541288818882 -0.95104205470547
 6  8.94637651025102 -0.10168529892989 -0.10227204000400
 6  10.21675229972997 -0.58902597429743 -0.73980495099510
 6  10.15287198739874 -2.05632656875688 -1.16064952995300
 6  11.47689056595660 -0.16826060686069  0.01715258385839
 6  12.80596550425043 -0.54169822092209 -0.70111013391339
 6  13.93471293969397 -0.13104430723072  0.22521958945895
 6  15.38055418031803 -0.21781551065107 -0.49143738353835
 6  15.64867653655365 -1.78909654345435 -0.75541515921592
 6  16.48633273917392  0.28906326632663  0.50814532173217
 6  17.81056564596459  0.51386278467847 -0.09655547014701
 6  18.85042541204120  1.31189940694069  0.74681511451145
 6  20.22058072727273  1.44333466696670  0.08006276947695
 6  20.16338769256926  2.10509880708071 -1.19485047774777
 6  21.04128505930593  2.25579851615162  1.14645000840084
 1 -4.24788627312731  3.48595411681168  1.59879446634663
 1 -10.11957234993499  3.89641047604760 -0.40800619211921
 1 -10.40930421982198 -2.53343268406841 -1.29871652385239
 1 -2.71500795769577 -0.88778709260926  2.10620131133113
 1 -2.36379998519852  1.75986956955696  0.97748839923992
 1 -1.94271872937294  1.10907136003600  3.53151686518652
 1 -3.29945500550055  2.41577563506351  3.78885105050505
 1 -3.74068751145115  0.45200988498850  3.58105051785179
 1 -2.32266475137514 -1.48352831323132 -0.40846475567557
 1 -2.15645731823182  0.11725897629763 -0.74917495709571
 1 -0.44231774917492  0.45084969886989  0.76650704980498
 1 -0.22284008600860 -1.12159667486749  1.28929288448845
 1 -5.76417519291929  6.72624126822682  1.03067877707771
 1 -5.60088707810781  5.82381574467447  2.47193349044904
 1 -4.40899485548555  5.75208637503750  1.13092626822682
 1 -9.33911596409641  6.04881102920292 -0.41621184938494
 1 -9.28506972287229  7.95306604550455  0.84537415921592
 1 -7.87598706450645  7.07017341684168  1.81019940544054
 1 -11.91286539163916  3.27511783778378 -2.20565357005701
 1 -13.20086975617562  2.12361625282528 -1.67293848534854
 1 -12.63762549364937  3.16768542324232 -0.60145138913891
 1 -12.35139991839184 -1.59333877897790 -1.16988194309431
 1 -13.17642636153615  0.07628089128913 -1.86392191969197
 1 -13.02702905550555 -1.70136482268227 -3.85575546004601
 1 -11.66681024522452 -0.29861439903990 -3.64935843154315
 1 -11.26761304060406 -2.00677554465446 -3.27821644164416
 1 -8.86870647364736 -4.70903164606461 -1.80876414051405
 1 -7.96263562836284 -5.68858886308631 -0.59453906690669
 1 -9.60789067396740 -4.80654567586759 -0.19191101370137
 1 -3.43219391529153 -3.40579383008301 -0.10821609310931
 1 -1.54244241074107 -4.51360780048005  3.47607052235224
 1 -2.93458306690669 -5.41737335493549  3.79631247014701
 1 -1.55751386288629 -5.86003527672767  2.64728868176818
 1  2.81437074117412 -1.79261109700970 -1.58277224222422
 1  2.53098057565757 -0.21445716611661 -2.12009516171617
 1  4.25009591519152 -0.81708392359236  0.17995121112111
 1  3.95615457895790  1.39035774617462 -2.67381575127513
 1  5.71229664136414  2.11319157805781 -2.24792126032603
 1  5.56210351795179  0.54829593709371 -3.18937766876688
 1  6.84323638653865  1.46158015801580 -0.19977733493349
 1  6.21008512791279  0.08396035863586  0.80407012371237
 1  7.29407679237924 -1.15786502170217 -1.22446376997700
 1  7.90624306020602  0.01538474657466 -1.92138506210621
 1  9.09714176577658  0.99425731073107  0.09422705490549
 1  8.70315880458046 -0.45247075327533  0.84499236293629
 1  10.23598114951495 -0.04910237253725 -1.69870475997600
 1  9.06744172967297 -2.27676565306531 -1.68403432823282
 1  10.92449500520052 -2.50559734363436 -1.73650789468947
 1  10.24996788278828 -2.72290423242324 -0.29109854955496
 1  11.45174285518552  1.04639686988699  0.29089057655766
 1  11.54147720112011 -0.69191515281528  0.73933455505551
 1  12.60045336423642 -1.60131829302930 -0.84112177977798
 1  12.81172492499250 -0.02400170917092 -1.74716807810781
 1  13.82472390909091  0.78908146414641  0.52861020402040
 1  14.03292604570457 -0.91406101080108  1.01870838733873
 1  15.37698098659866  0.40769025402540 -1.28499285728573
 1  15.87532497539754 -2.44998529062906  0.40854940104010
 1  14.92207525822582 -2.05225760136014 -1.49256667176718
 1  16.72033166256626 -1.90580610551055 -1.28249971947195
 1  16.10883608430843  1.25410324402440  0.96083262756276
 1  16.41915636283628 -0.48142731783178  1.24474723592359
 1  18.28819975867587 -0.36643319071907 -0.28906224662466
 1  17.76319338383838  1.02416973587359 -0.95681925772577
 1  18.29082987558756  2.33085724342434  0.91811981728173
 1  18.95749290959096  0.96871105210521  1.81982198249825
 1  20.40708562126213  0.28621476967697  0.12166923092309
 1  19.61647575417541  3.00951451335133 -1.20976456985699
 1  21.42553680578058  2.04068072087209 -1.32705406870687
 1  19.87629153355336  1.45490730153015 -2.11595856485649
 1  21.01308728392839  1.83186129522952  2.18158777597760
 1  22.23538524482448  2.17879910961096  0.90638560486049
 1  20.57185691559156  3.31031111441144  1.25118555905590
>>>>>>> 8e03b5b5abfc0030b3aa597dc0de36371bfbd096

