%nproc=4
%Mem=2GB
# td=(NStates=1) CAM-B3LYP/6-31G(d,p) 

TD

0 1
12 -7.14972554555456  0.52168091619162  0.19939762716272
 6 -4.85071968996900 -1.99652083048305  0.39878641134113
 6 -4.84288421732173  2.83273172047205  1.14160052495250
 6 -9.45925066056606  3.12320781628163 -0.42079493919392
 6 -9.62032234593459 -1.78034354535454 -0.72655908500850
 7 -5.12613603820382  0.33618343644364  0.75503592189219
 6 -4.38221792789279 -0.79083890589059  0.77332535573557
 6 -2.94334333973397 -0.39969939563956  1.12387274147415
 6 -2.99612305070507  1.06463913221322  1.58583931463146
 6 -4.44555155005501  1.45014576337634  1.19168619851985
 6 -3.00639572167217  1.19284157225723  3.06113752265227
 6 -1.87622108310831 -0.61726698809881  0.12945690399040
 6 -0.44951237383738 -0.46406075327533  0.59159328862886
 6  0.54530566776678 -0.56641015391539 -0.52805818631863
 8  0.29502074217422 -1.05682108970897 -1.64870120182018
 8  1.79092090259026 -0.35537293369337 -0.11887867676768
 7 -7.08622907080708  2.58971456125613  0.30225892139214
 6 -6.10308958795880  3.32640361616162  0.72523605720572
 6 -6.48317557065706  4.73256754615462  0.79440012721272
 6 -7.73565627262726  4.86654728622862  0.31576996829683
 6 -8.24538881048105  3.45540473577358  0.02396494279428
 6 -5.49442739943994  5.83861632753275  1.10905566606661
 6 -8.63609140674067  6.10725175887589  0.15820280568057
 6 -8.43431732303230  7.12163828242824  0.90964721452145
 7 -9.16818909150915  0.67822068316832 -0.51304533823382
 6 -9.99640590029003  1.81072102520252 -0.61612793689369
 6 -11.30256935353535  1.41621996109611 -1.17900962046205
 6 -11.33482588648865  0.04413977807781 -1.25224393839384
 6 -9.97474315501550 -0.40200217451745 -0.80971598769877
 6 -12.30389921362136  2.38210878187819 -1.49944671947195
 6 -12.49403394969497 -0.74458186828683 -1.76583739223922
 6 -12.52057954635464 -1.02669508070807 -3.24513963256326
 7 -7.21277074537454 -1.47006662026203 -0.22967764476448
 6 -8.34991523132313 -2.29195436753675 -0.44019897509751
 6 -7.85907205280528 -3.68445671317132 -0.48530580788079
 6 -6.58260214431443 -3.59939427642764 -0.10957268916892
 6 -6.24230682708271 -2.24486276757676  0.08920172437244
 6 -8.69633710111011 -4.81763460586059 -0.68191667006701
 6 -5.34053852415242 -4.39102298579858  0.12983585618562
 8 -5.15442428032803 -5.59706418981898  0.29423645434543
 6 -4.22215579497950 -3.35922171197120  0.46469633493349
 6 -3.52806343724372 -3.67467268856886  1.81278165106511
 8 -3.83588518911891 -3.03961069726973  2.80768344944494
 8 -2.60316150985099 -4.59774449684968  1.79618819971997
 6 -1.98780936883688 -5.01647587668767  3.05838077357736
 6  2.82226473817382 -0.38216601120112 -1.14707590799080
 6  4.08702079107911 -0.24552272857286 -0.53286343534353
 6  5.21288477287729  0.47994425982598 -1.05292506520652
 6  5.21395981898190  1.11550419971997 -2.42996716201620
 6  6.37155148794880  0.45256710691069 -0.30246673187319
 6  7.63781131903190 -0.16840718761876 -1.08283523402340
 6  8.91622349494950 -0.08637376777678 -0.19165097789779
 6  10.27884850935093 -0.52971004270427 -0.95616658715872
 6  10.12391909210921 -2.05681661776178 -1.26564002900290
 6  11.48428130503050 -0.23806758755876  0.01301216981698
 6  12.85490039773977 -0.43448749984999 -0.78981900480048
 6  13.97148661706171  0.06817561476148  0.13900096759676
 6  15.36872299719972 -0.11350507960796 -0.48418665846585
 6  15.68832050095009 -1.62581021482148 -0.85024464216422
 6  16.51570567646765  0.37261162116212  0.40614512171217
 6  17.88628321772177  0.61479287768777 -0.14285009960996
 6  18.91592196169617  1.15898411541154  0.82405283828383
 6  20.34846351555155  1.16505683918392  0.28985374857486
 6  20.45476683048305  2.03798209540954 -1.00113110581058
 6  21.26665759655966  1.64541747804780  1.36667203060306
 1 -4.00289177367737  3.49163468486849  1.37000158705871
 1 -10.29029942264227  3.82517335233523 -0.59272466396640
 1 -10.52233552295229 -2.42810215101510 -0.92394904710471
 1 -2.79177563446345 -1.02865117901790  2.10964165536554
 1 -2.25011861706171  1.85881946454645  1.04540519091909
 1 -2.10580503800380  0.48873932683268  3.55551926542654
 1 -2.71548660866087  2.35152921042104  3.44040620602060
 1 -3.55971941464146  0.69902458645865  3.79651206400640
 1 -2.01016350125012 -1.56816677707771 -0.47438134733473
 1 -2.07680935343534  0.24918216861686 -0.54202424202420
 1 -0.26667018441844  0.33044765866587  1.16262666176618
 1 -0.25105290729073 -1.16228074327433  1.30914486968697
 1 -5.80070884628463  6.69185782988299  0.59030473967397
 1 -5.28357534693469  5.87583094619462  2.10402669976998
 1 -4.41817577357736  5.60652181858186  0.57402057765776
 1 -9.30594264676468  6.12035818391839 -0.49733996219622
 1 -9.27234845074507  8.02843358225823  0.56044566636664
 1 -7.85213467926793  7.43738013751375  1.73136152165216
 1 -11.92832693779378  3.04442476847685 -2.33533653835384
 1 -13.03521319051905  1.82945683688369 -1.97518871037104
 1 -12.61520325142514  3.08981763646365 -0.46206745074507
 1 -12.92419719811981 -1.72079152425243 -1.07033198809881
 1 -13.34141286018602 -0.10610734753475 -1.62685821332133
 1 -13.42628898149815 -1.43133781998200 -3.53126301080108
 1 -12.21766533073307 -0.11246578417842 -4.05000849654965
 1 -11.65085136443644 -1.72583745084508 -3.30225884588459
 1 -8.99429903290329 -5.09971071397140 -1.83307657175718
 1 -8.23280264506451 -5.74959496369637 -0.38509812281228
 1 -9.68163804870487 -4.90650567186719  0.03959213661366
 1 -3.34753544944494 -3.56804005470547 -0.22198747024702
 1 -1.53871203770377 -4.10696713641364  3.34943785908591
 1 -2.66967657625763 -5.30985260286029  3.84428726762676
 1 -1.28241635313531 -5.64799407260726  2.64520847374737
 1  2.67970727482748 -1.31175301120112 -1.57202116711671
 1  2.44677215481548  0.44489876947695 -1.95170832303230
 1  4.51640254585458 -0.80396261146115  0.30728394439444
 1  4.15229419291929  1.25876458685869 -2.83685205490549
 1  5.72495790749075  2.22516277517752 -2.45998246644664
 1  5.73369067666767  0.55992710021002 -3.23511224222422
 1  6.64654671757176  1.52939693969397 -0.01959931713171
 1  6.30671479087909 -0.14714275167517  0.59038875557556
 1  7.30747813251325 -1.03046228142814 -1.49977130073007
 1  8.03853628952895  0.48961216931693 -1.83864678827883
 1  9.14635668726873  1.06075396039604  0.11455908810881
 1  8.86792528122812 -0.75424093029303  0.66900476417642
 1  10.29872742414241 -0.12372983528353 -1.89216410591059
 1  9.05149013451345 -2.21560953745375 -1.83479940474047
 1  11.07326988268827 -2.47714449834984 -2.00076432033203
 1  10.23982686868687 -2.48689063106311 -0.27232667236724
 1  11.27785546644665  0.72934516471647  0.49797128462846
 1  11.46198925232523 -0.72219818111811  1.00253087468747
 1  12.92523584248425 -1.54110227142714 -0.82744041164116
 1  12.85512926542654  0.15914660566057 -1.72186554785479
 1  13.77362879957996  1.25934849084909  0.41439878287829
 1  13.84989774287429 -0.24390399509951  1.22222873937394
 1  15.60299358785879  0.53098258325833 -1.51955631363136
 1  15.65989343224322 -2.27639793189319 -0.00269172307231
 1  15.15894894559456 -2.08432080768077 -1.51485890099010
 1  16.80264989438944 -1.55516104100410 -1.01058252775278
 1  16.11833703440344  1.28394622832283  0.86389293359336
 1  16.53726817401740 -0.13531270637064  1.31913467466747
 1  18.20863180188019 -0.28659520692069 -0.30638397879788
 1  17.71194825932593  1.17858517741774 -0.86116969276928
 1  18.89877066966697  2.18334249194919  0.80993899919992
 1  18.86971413171317  0.78850303130313  1.82931293159316
 1  20.69832474517452  0.00460660886089  0.18254531853185
 1  19.96954106070607  2.91487504940494 -0.71802539593959
 1  21.46353060516052  2.43608026082608 -1.28539990329033
 1  20.01596550095010  1.70102191299130 -1.95533250225023
 1  21.30332630783078  1.21328943804380  2.32124174137414
 1  22.45306701300130  1.98126935663566  0.93960892719272
 1  20.91821155105510  2.77701778507851  1.50689112961296

