%nproc=4
%Mem=2GB
# td=(NStates=1) CAM-B3LYP/6-31G(d,p) 

TD

0 1
<<<<<<< HEAD
12 -7.12635320832083  0.64301304940494  0.10967865526553
 6 -4.80403502150215 -1.99999117751775  0.50794732743274
 6 -4.87460738963896  2.80314876217622  1.15359172407241
 6 -9.44449918541854  3.11335683118312 -0.38467132683268
 6 -9.48083839753975 -1.82599811081108 -0.97531396049605
 7 -5.07372079667967  0.38174799289929  0.81198161646165
 6 -4.32705241134113 -0.70336015801580  0.92544056725673
 6 -2.97727673307331 -0.45416484218422  1.24858521272127
 6 -2.93700713911391  1.08278094639464  1.75944667536754
 6 -4.34370136503650  1.43304405320532  1.27437446734673
 6 -2.84127921002100  1.32526481458146  3.20020142904290
 6 -1.90776423742374 -0.63761902330233  0.17260121842184
 6 -0.45992341494149 -0.46472081928193  0.54531866116612
 6  0.46728786598660 -0.79351286418642 -0.56078145864586
 8  0.17813905400540 -1.24377978557856 -1.65970230193019
 8  1.79950176067607 -0.38675607200720 -0.22731952085209
 7 -7.18234868276828  2.60942653245325  0.32033072857286
 6 -6.03762304130413  3.34404538033803  0.72742627622762
 6 -6.42104935803580  4.75576986638664  0.77100778797880
 6 -7.68903161016102  4.87614824632463  0.32431082238224
 6 -8.11732600420042  3.46230542584258  0.03779632593259
 6 -5.55316327302730  5.87774023992399  1.20522528302830
 6 -8.61412921052105  5.98405943964397  0.11802878827883
 6 -8.49992388368837  7.15496161476148  0.72361861166117
 7 -9.10932320492049  0.64893775487549 -0.65049908360836
 6 -9.87259351905190  1.77248720182018 -0.71418774287429
 6 -11.23768286488649  1.38996733583358 -1.12649436893689
 6 -11.19501190509051  0.03143850795079 -1.36850556455646
 6 -9.92479816051605 -0.43849582388239 -0.98748376447645
 6 -12.19117794149415  2.53911448244824 -1.29777655245525
 6 -12.46258080438044 -0.73999140924092 -1.78300910941094
 6 -12.39133662206221 -1.16830924212421 -3.20595571417142
 7 -7.20749021732173 -1.34095370897090 -0.23751842884288
 6 -8.21071131093109 -2.16610178227823 -0.55892084728473
 6 -7.77217336293629 -3.61556982448245 -0.51804908220822
 6 -6.49941382548255 -3.52237657465747  0.00910917901790
 6 -6.21690428682868 -2.17517579887989  0.07728053225323
 6 -8.57930539793979 -4.82621546394639 -0.93083156155616
 6 -5.31535600590059 -4.35324920842084  0.29542241484148
 8 -5.20243908180818 -5.53146763016302  0.40591762246225
 6 -4.13620720012001 -3.30506629642964  0.56531639693969
 6 -3.50261089198920 -3.58278349964997  1.93423379627963
 8 -3.64036563716372 -3.00988772497250  3.01450413151315
 8 -2.66827802150215 -4.69775449784979  1.73147172807281
 6 -2.03172376027603 -5.22987721682168  2.91259619511951
 6  2.78868137983798 -0.53592138673867 -1.21063226362636
 6  4.05796788578858 -0.40901907820782 -0.65166531553155
 6  5.11363484788479  0.43670993639364 -1.01779155185519
 6  5.04969339233923  1.29216186548655 -2.26292045734573
 6  6.44008834163416  0.47720957115712 -0.33162964816482
 6  7.64554209210921 -0.12684303120312 -1.03964091459146
 6  8.87869974257426 -0.08672380278028 -0.22492430523052
 6  10.15568619311931 -0.54806187788779 -0.95339631013101
 6  10.02266896709671 -1.91006194229423 -1.41226469146915
 6  11.44414729162916 -0.34155793659366 -0.12748187958796
 6  12.84033894159416 -0.49722377347735 -0.77225724862486
 6  13.90047951635163 -0.10281148394839  0.19810687818782
 6  15.29730585548555 -0.23383711281128 -0.50056829662966
 6  15.59524119301930 -1.59608724252425 -0.86158577627763
 6  16.47686179207921  0.32666702670267  0.57368187538754
 6  17.74373896329633  0.49411080948095 -0.14253006760676
 6  18.77488785828583  1.08548676567657  0.79898033103310
 6  20.30736940614061  1.31475180868087  0.26241100430043
 6  20.32349370317032  2.08792708990899 -1.04488548124812
 6  21.09175010581058  1.98315125142514  1.39055441884188
 1 -4.11240272477248  3.43349887128713  1.70699528642864
 1 -10.27006739943995  3.77628846384638 -0.59023441494149
 1 -10.14806809620962 -2.69969931073107 -1.11966861906191
 1 -2.51719817671767 -1.02207052095210  2.07983867506751
 1 -2.26668027322732  1.77376095869587  1.27096774717472
 1 -1.88896335383538  1.09530998389839  3.71854556805681
 1 -3.09513457345735  2.35107916541654  3.46830899629963
 1 -3.42732617531753  0.70633531753175  3.90690310311031
 1 -2.14637712261226 -1.61115107550755 -0.39386329552955
 1 -2.09176084858486  0.24974222462246 -0.53994403400340
 1 -0.37440095749575  0.68604321822182  0.71823222232223
 1 -0.11938974097410 -0.95555007020702  1.64269822502250
 1 -5.94506328172817  6.76651529562956  0.67144285348535
 1 -5.32616960636064  6.06189955305531  2.29818611571157
 1 -4.61000495649565  5.60064123052305  0.56734991059106
 1 -9.35545759825983  6.04107025512551 -0.71270149834983
 1 -8.98611982788279  8.19022976187619  0.33108273007301
 1 -7.93834330013001  7.22508890839084  1.63573195869587
 1 -11.91909601470147  3.11885221122112 -2.05217822252225
 1 -13.06599626882688  2.23690758195820 -1.63469466096610
 1 -12.28862059315932  3.05176383108311 -0.38350959495950
 1 -12.49155393379338 -1.48365781088109 -0.93130808570857
 1 -13.43952267116712 -0.04922165896590 -1.54672019951995
 1 -13.21842819541954 -1.65436012221222 -3.60955083958396
 1 -12.37841140534054 -0.30812535013501 -4.03763725942594
 1 -11.45322160146015 -1.71338620572057 -3.48235685568557
 1 -8.70720032303230 -4.88020876377638 -1.99308257235724
 1 -8.00307967276728 -5.71445144934493 -0.49682929592959
 1 -9.46221610651065 -4.92601762306231 -0.38554037663766
 1 -3.36940763666367 -3.53445669636964 -0.14260953245324
 1 -1.44993315981598 -4.37463390309031  3.16321923722372
 1 -2.82658226682668 -5.63521513911391  3.74480731963196
 1 -1.50072818431843 -6.20992026522652  2.43989794269427
 1  2.84878418251825 -1.50945278117812 -1.64318828382838
 1  2.54375185278528  0.26913119271927 -1.98389154135413
 1  4.27706861246125 -0.71984419961996  0.39259247524752
 1  4.01473043654365  1.55946465686569 -2.68317668736874
 1  5.31990740244024  2.29525978487849 -2.15738220642064
 1  5.52997030463046  0.91819292679268 -3.03284201520152
 1  6.62199426232623  1.51392539253925  0.09949259205921
 1  6.59865398479848  0.01337329992999  0.66149586628663
 1  7.40271765646565 -1.02832206740674 -1.07810913451345
 1  7.93698613451345  0.61081428952895 -1.76521944554455
 1  9.04888694029403  1.01171905690569  0.04121175337534
 1  8.91776026472647 -0.60080558675868  0.75320318401840
 1  10.14467201860186 -0.11577904020402 -1.91248613811381
 1  9.28655364086409 -1.89274725122512 -2.19278520332033
 1  11.05896845254525 -2.21810859475948 -1.86130037393739
 1  9.61422430843084 -2.77611955395540 -0.78524796449645
 1  11.56677435833583  0.60671290149015  0.21547303480348
 1  11.42861591499150 -1.05026098739874  0.74833545514551
 1  12.89558287718772 -1.61411957315732 -1.04235190279028
 1  12.68281203370337  0.32983367436744 -1.64766812811281
 1  13.86059749644964  0.81353390939094  0.70516785978598
 1  13.90003275637564 -0.85276488118812  1.00202671917192
 1  15.24056734523452  0.53328281328133 -1.20607496549655
 1  15.61551899479948 -2.34282457455746  0.03035158125813
 1  15.04790784148415 -2.15337771337134 -1.78323573867387
 1  16.60532016141614 -1.66523204810481 -1.46461793129313
 1  16.01031623232323  1.30467830153015  0.89251579587959
 1  16.39000344754475 -0.43178235333533  1.39548230943094
 1  18.17970890959096 -0.39334588198820 -0.52838617901790
 1  17.58935600010001  1.19498681758176 -1.07789136493649
 1  18.33385417801780  2.03109726742674  1.07751575687569
 1  18.90454761506151  0.51766594759476  1.81545154545455
 1  20.61076598929893  0.34787093529353 -0.02361529752975
 1  20.05881998859886  3.14722828472847 -0.76040963436344
 1  21.40796504860486  1.96932358515852 -1.52159352265227
 1  19.57348125252526  1.73530534133413 -1.82680964996500
 1  21.11322729792979  1.37358546764676  2.20434005120512
 1  22.23679538583858  2.15497672737274  1.00908587488749
 1  20.83973370327033  2.97974805810581  1.70917135763576
=======
12 -7.08249882288229  0.58562731083108  0.08146583398340
 6 -4.84040865886589 -1.97642882128213  0.44020055275528
 6 -4.81308123702370  2.83755220252025  1.19678604350435
 6 -9.42458719421942  3.15818131363136 -0.38388124782478
 6 -9.45687600130013 -1.66936244724472 -0.85141157025703
 7 -5.13142656725673  0.39423924202420  0.71588200650065
 6 -4.33533323942394 -0.75298512051205  0.75736375957596
 6 -2.96280528592859 -0.50019944564456  1.32079243344334
 6 -3.02041547994799  0.99545221352135  1.73405413611361
 6 -4.38044503940394  1.44754550335034  1.15114214411441
 6 -3.05885096719672  1.21589387748775  3.22720412931293
 6 -1.98244170517052 -0.66724198559856  0.22014597289729
 6 -0.46091351395139 -0.45727007420742  0.56287041634163
 6  0.48878001520152 -0.71415492839284 -0.59231461196120
 8  0.08260950105010 -1.03153856145615 -1.76803313501350
 8  1.76128793929393 -0.43842123852385 -0.21892868176818
 7 -7.10996144404440  2.67066265606561  0.31739043454345
 6 -6.03202248124813  3.35722669846985  0.62253578717872
 6 -6.33684093719372  4.81132542194219  0.74040472767277
 6 -7.63170587758776  4.90563119461946  0.40771916321632
 6 -8.10218449004901  3.50646984228423  0.08460100640064
 6 -5.45517347404741  5.93544601050105  1.21561632213221
 6 -8.53686148374837  6.01641267496750  0.07971495689569
 6 -8.52482637393739  7.25567168576858  0.74359060886089
 7 -9.15926819941994  0.65842870397040 -0.57491152485249
 6 -9.87620388008801  1.85877583068307 -0.64904122822282
 6 -11.25637473407341  1.55015335443544 -1.01110282978298
 6 -11.25376778067807  0.17007237133713 -1.20849956395640
 6 -9.97437311801180 -0.30257223152315 -0.84928994509451
 6 -12.30870969466947  2.58914948594860 -1.36954372917292
 6 -12.43760830713071 -0.76978438853885 -1.69852066056606
 6 -12.28368585698570 -1.08157056825683 -3.15073019161916
 7 -7.12377184548455 -1.40725033863386 -0.21834651165116
 6 -8.23623386318632 -2.24750992309231 -0.48572352755276
 6 -7.83170931653165 -3.61965023252325 -0.54284156145615
 6 -6.45734961906191 -3.59212354935494 -0.21589332123212
 6 -6.09326192259226 -2.28806708800880 -0.00134733053305
 6 -8.61429889728973 -4.78214105650565 -0.81233971237124
 6 -5.36161063136314 -4.40352423592359  0.19305217781778
 8 -5.16355519341934 -5.58948343174317  0.29084611531153
 6 -4.15962954235424 -3.39018480828083  0.57051691699170
 6 -3.56219685058506 -3.72753797509751  1.92844321722172
 8 -3.60342194279428 -3.03001973817382  2.88847152825283
 8 -2.82711390509051 -4.76309103150315  1.75275385628563
 6 -2.04539512741274 -5.16943117221722  2.95446038153815
 6  2.79386189788979 -0.75972376697670 -1.21426262666267
 6  4.14097618661866 -0.61689986628663 -0.64725487448745
 6  5.13278676307631  0.16223248864886 -1.16997677037704
 6  4.97385580858086  1.00100274957496 -2.53080724602460
 6  6.41354568736874  0.40342219241924 -0.34315080028003
 6  7.63689122702270 -0.16702704960496 -1.16144309480948
 6  8.88321019361936 -0.25989111951195 -0.10849266206621
 6  10.15026565106511 -0.58582565426543 -0.90282125262526
 6  10.19445614581458 -2.02435337143714 -1.19512297729773
 6  11.47399027592759 -0.20638441924192 -0.01392052345235
 6  12.76171107880788 -0.51504555565557 -0.62241226412641
 6  13.91799126752675  0.04390318751875  0.08052512001200
 6  15.36027215211521 -0.21227495659566 -0.38452669246925
 6  15.60761243014301 -1.71342897669767 -0.60886050375038
 6  16.41628573447345  0.44632899289929  0.46909141634163
 6  17.81051564096409  0.59530092849285 -0.22086790139014
 6  18.80235060456046  1.29997821482148  0.73468390139014
 6  20.21067973717372  1.42040237373737  0.20842560576058
 6  20.28647000080008  2.33622191939194 -0.99917090979098
 6  21.11873280408041  1.94132706900690  1.36111147454745
 1 -4.16293777827783  3.51305682708271  1.60192477937794
 1 -10.02278267096710  3.98852968796880 -0.48835422692269
 1 -10.26435972537254 -2.40159950075007 -0.95285193739374
 1 -2.76450290719072 -1.08253656755676  2.09985067626763
 1 -2.11101470667067  1.61705528812881  1.50368101850185
 1 -2.23333779127913  1.01186163906391  3.99191290479048
 1 -3.37177223722372  2.27596165366537  3.57882004740474
 1 -3.87835127782778  0.74647933193319  3.71366377917792
 1 -2.14592707760776 -1.79363932433243  0.01067715851585
 1 -2.31441311381138  0.06069331973197 -0.64501454105411
 1 -0.48528204560456  0.53633824772477  1.08723912301230
 1 -0.15379318131813 -1.33340785598560  1.27625158035804
 1 -5.92332110751075  6.84162280638064  0.89667537673767
 1 -5.25968295769577  6.14935829892989  2.38717501460146
 1 -4.45150910691069  5.72155332173217  0.76145932153215
 1 -9.16386843934394  6.26469261736174 -0.67887811601160
 1 -9.05738695459546  8.19326006490649  0.50965058685869
 1 -7.79081854765476  7.41376777627763  1.71724010951095
 1 -11.86284038913891  3.20878120412041 -2.34449745444544
 1 -13.22805247444744  2.16134002520252 -1.72815400690069
 1 -12.60170190129013  3.30906956165617 -0.57789903390339
 1 -12.35314009240924 -1.55279472457246 -0.98490344524452
 1 -13.32049076797680 -0.13557029382938 -1.44129965746575
 1 -13.06456280888089 -1.91453613981398 -3.61998188268827
 1 -12.17554111831183 -0.24875941354135 -3.96641013671367
 1 -11.35529180848085 -1.78579344644464 -3.10899951995200
 1 -9.05357496049605 -4.85086582948295 -1.80191345544554
 1 -7.91027039183918 -5.67075707990799 -0.89445905890589
 1 -9.33705359025902 -4.74109913121312  0.08275645304530
 1 -3.43746444234423 -3.70424367506751 -0.29485475697570
 1 -1.11670983748375 -4.53644008370837  3.22830574587459
 1 -2.79589919851985 -5.02592421002100  3.81675451435144
 1 -1.67851596309631 -6.24138341154115  2.57333128602860
 1  2.51341064516452 -1.77118895479548 -1.73243720872087
 1  2.89691716931693 -0.01802752315232 -2.07479063126313
 1  4.42819372497250 -1.11123333853385  0.27506072207221
 1  4.13595255875588  1.24314302470247 -2.99526789648965
 1  5.70332574427443  1.97708796769677 -2.25624209240924
 1  5.80678798639864  0.71718282578258 -3.28055678667867
 1  6.63173523642364  1.48759275927593 -0.12842019921992
 1  6.38791291069107  0.06504846744674  0.76024574127413
 1  7.47006439113911 -1.08068730393039 -1.57936926052605
 1  7.65361779767977  0.69110231833183 -1.92806573017302
 1  8.99211126272627  0.71763964896490  0.45517314951495
 1  8.69861835053505 -1.02936844304430  0.39082694639464
 1  10.15390294169417 -0.06907436973697 -1.86549143864386
 1  9.36495148064806 -2.25670364686469 -1.77699362416242
 1  10.94653720942094 -2.46455323922392 -2.04073831773177
 1  10.32895578157816 -2.75354729672967 -0.39029846954695
 1  11.57903558445845  0.90255248544855  0.29848133563356
 1  11.42293534693469 -0.74827078837884  0.89994061566157
 1  13.08097141604160 -1.53863202440244 -1.05485315291529
 1  12.87125087758776  0.18440913191319 -1.56800016131613
 1  13.67676911361136  1.04075663166317  0.58241558455846
 1  14.12443519661966 -0.57024662936294  1.06234275077508
 1  15.42594588308831  0.26296578157816 -1.35550990899090
 1  15.36882432533253 -2.35789608170817  0.35341388748875
 1  14.93420647134714 -2.02694507010701 -1.33816123122312
 1  16.55507513691369 -1.75152067696770 -0.99456092559256
 1  16.12345754645465  1.53218105180518  0.63478002230223
 1  16.62948739593959 -0.06990616571657  1.33014577577758
 1  18.43216415511551 -0.22104865226523 -0.70287362776278
 1  17.55510257475748  1.25631295019502 -1.17585116091609
 1  18.51571236383638  2.25810996869687  1.02758076337634
 1  18.86549370967097  0.67806198719872  1.60009000930093
 1  20.71488640134013  0.35524167236724  0.01231829582958
 1  19.93377748434843  3.16385994789479 -0.70668426182618
 1  21.42913716581658  2.76180283308331 -1.42155351865187
 1  19.71937584198420  1.94478628942894 -1.97629459845985
 1  20.98217419261926  1.52965107420742  2.42440205740574
 1  22.23561526782678  1.83111434113411  1.24982994929493
 1  21.00086981688169  3.02759284258426  1.38795923642364
>>>>>>> 8e03b5b5abfc0030b3aa597dc0de36371bfbd096

