%nproc=4
%Mem=3GB
# td=(NStates=1) iop(3/107=0140000000,3/108=0140000000) CAM-B3LYP/6-31G(d,p) 

TD

0 1
12 -7.05825051675168  0.62333071657166  0.09095546554655
 6 -4.87525634213421 -1.92514974557456  0.46356175857586
 6 -4.75010104070407  2.77365608350835  1.21796190139014
 6 -9.28432519701970  3.20838839183918 -0.49547202250225
 6 -9.56890298829883 -1.68435020072007 -0.82256906180618
 7 -5.13081011221122  0.40151624222422  0.68915673967397
 6 -4.28959120642064 -0.64827597079708  0.76765466016602
 6 -2.98707492809281 -0.41914031203120  1.18932460156016
 6 -3.01400462736274  1.06020472207221  1.69438571787179
 6 -4.47852808750875  1.49670432153215  1.22282667656766
 6 -3.12221840264026  1.04665748504850  3.30913622822282
 6 -1.94840056975698 -0.51138712791279  0.10939474977498
 6 -0.42483819301930 -0.46573982198220  0.58489187148715
 6  0.55265718891889 -0.72517913981398 -0.51442123222322
 8  0.19114933173317 -1.28225200290029 -1.58440583368337
 8  1.75232383078308 -0.39569950835084 -0.16459184678468
 7 -6.90923856725673  2.64041725162516  0.37051797589759
 6 -5.95845598939894  3.42335610301030  0.72435831193119
 6 -6.32661757015702  4.79171603520352  0.80510876957696
 6 -7.67459224452445  4.84774657985799  0.31968809520952
 6 -8.03129265676568  3.50753769256926  0.01450944954495
 6 -5.44600663456346  5.95838531223122  1.16452660786079
 6 -8.49570957895789  6.00223049264926  0.20630124262426
 6 -8.38440685068507  7.21580072977298  0.79557361666167
 7 -9.11679072017202  0.68419541394139 -0.51270784468447
 6 -9.78475596189619  1.88895221952195 -0.75282809630963
 6 -11.18213216591659  1.54986443094309 -1.21215607530753
 6 -11.12378186538654  0.08156570237024 -1.22721274957496
 6 -9.86535413901390 -0.38612880628063 -0.87372957425743
 6 -12.27211814951495  2.46612185358536 -1.38395784848485
 6 -12.30756454935494 -0.76321244504450 -1.66544587518752
 6 -12.37663957285729 -1.11012120442044 -3.11837248844884
 7 -7.20049301170117 -1.38659349504950 -0.23307598269827
 6 -8.27969229552955 -2.21972051755176 -0.64577615751575
 6 -7.78428046784678 -3.56269682108211 -0.61147144694469
 6 -6.51216900740074 -3.57301028312831 -0.16035811751175
 6 -6.16724045574557 -2.16834479027903  0.00452228762876
 6 -8.54651699119912 -4.91009710811081 -0.78224160726073
 6 -5.30303576647665 -4.32896646004600  0.15326030013001
 8 -5.02120311261126 -5.54322117911791  0.18903485208521
 6 -4.22510701330133 -3.34633208060806  0.56925524712471
 6 -3.57310148694870 -3.58285622832283  1.89521549004901
 8 -3.82216499989999 -2.98343570147015  2.92749610781078
 8 -2.72389774257426 -4.66983560206021  1.77478651615162
 6 -2.13275223222322 -5.18153335923592  2.98926632703270
 6  2.81651797219722 -0.81813010191019 -1.02028554575458
 6  4.08212909810981 -0.48091335923592 -0.44999756255626
 6  5.02186767806781  0.21262779077908 -0.96333921092109
 6  5.09839356495650  1.12652032733273 -2.23969810481048
 6  6.36881316001600  0.34965558155816 -0.23685420982098
 6  7.62522397499750 -0.00065861386139 -1.10686101480148
 6  8.87779549114912  0.02435061896190 -0.19370547294729
 6  10.08043350395040 -0.57452911611161 -1.01223694369437
 6  10.08640191679168 -1.98503638353835 -1.45984295029503
 6  11.37460212401240 -0.35154004510451 -0.19883784628463
 6  12.73961169666967 -0.54784481798180 -0.91655916101610
 6  13.97452872467247 -0.13675939023902  0.04404081568157
 6  15.39422541354135 -0.23644272787279 -0.47669332183218
 6  15.61656792779278 -1.73883227152715 -0.86115794209421
 6  16.34841183388339  0.38281479877988  0.39510424512451
 6  17.70832842054206  0.58697242684268 -0.09870639763976
 6  18.65691611021102  1.16213429192919  0.82257551425143
 6  20.15773857825783  1.39992942544254  0.25543224922492
 6  20.14656750255025  2.25920322542254 -0.92213690959096
 6  21.01459652665266  1.94906660656066  1.44709864986499
 1 -3.97888825232523  3.49038228962896  1.73006910271027
 1 -9.99308143144314  4.05146742124212 -0.25522004820482
 1 -10.20454487858786 -2.50542607770777 -1.36890470987099
 1 -2.62860014721472 -1.05487569026903  1.95166165686569
 1 -2.22661612791279  1.96016807790779  1.39558320732073
 1 -2.26255934233423  0.63350245664566  3.63412374977498
 1 -3.18008511761176  2.06576579937994  3.60444846704670
 1 -3.85289809030903  0.46179133343334  3.67185887108711
 1 -1.89263438243824 -1.47645831663166 -0.36138414551455
 1 -2.25271164016402  0.19433705350535 -0.64804153875388
 1 -0.11967739643964  0.58059764706471  0.87129099209921
 1 -0.25472389268927 -1.15222598919892  1.29184264256426
 1 -5.52134631233123  6.73802131413141  0.41277110841084
 1 -5.63613508480848  6.29706258765877  2.22330434293429
 1 -4.47448229282928  5.68608287628763  0.87388812141214
 1 -9.37556781658166  5.80988437043704 -0.44805615831583
 1 -9.01432049574957  7.75103482448245  0.40660043574357
 1 -7.58909684178418  7.38566540294029  1.47089604990499
 1 -11.86408688168817  3.38621776887689 -2.08883471497150
 1 -13.03143044074407  1.94342308470847 -1.74026975517552
 1 -12.42561359405941  3.09672700680068 -0.48100854035403
 1 -12.48740070497050 -1.56182710551055 -1.16728022892289
 1 -13.33486578567857 -0.49902261276128 -1.46419217361736
 1 -13.17417261646165 -1.59866352845285 -3.32043300140014
 1 -12.46626703240324 -0.28647711901190 -3.66579555795580
 1 -11.59298413781378 -1.80398142534253 -3.51528980718072
 1 -8.86031064966497 -5.09584608540854 -1.85164122712271
 1 -7.96443082828283 -5.76070202350235 -0.50536049114911
 1 -9.46621080008001 -4.83373182158216 -0.07286955565557
 1 -3.44143166166617 -3.35300190579058 -0.41008874697470
 1 -1.86501988958896 -4.52240445384538  3.55878759635964
 1 -3.01613805110511 -5.59173869876988  3.62437347504750
 1 -1.47931845234523 -5.94978576337634  2.63583694479448
 1  2.86181423622362 -2.04921154395440 -1.14094554325432
 1  2.65190163146315 -0.44195611081108 -2.07762882038204
 1  4.36028651535154 -1.07517593139314  0.37756915711571
 1  4.09033434493449  1.36311185388539 -2.59249973567357
 1  5.68153508570857  2.04551497539754 -1.98518595699570
 1  5.69264883338334  0.72170336123612 -2.94401065796580
 1  6.35000318421842  1.28760874147415  0.34422403630363
 1  6.14228210031003 -0.25993333003300  0.58652484798480
 1  7.35986810961096 -1.07658833183318 -1.47428218541854
 1  7.70102266076608  0.56963606660666 -1.95225604850485
 1  9.10513655795580  1.12282177967797  0.17918034613461
 1  8.56592971377138 -0.44638299099910  0.84915103850385
 1  10.25824045584559  0.07888403620362 -1.86244140214021
 1  9.04558416751675 -2.52251053455346 -1.73827220912091
 1  10.98224736533654 -1.93867726702670 -2.37125248334834
 1  10.49627182428243 -2.67992210691069 -0.46990438413841
 1  11.40880252185218  0.66900333373337  0.10857862866287
 1  11.34025162066207 -0.80793209080908  0.65676199629963
 1  13.05151310381038 -1.49984740404040 -1.21358362986299
 1  12.74627045694569  0.00471540754075 -1.87545187888789
 1  13.70410183048305  0.84994035733573  0.56325115381538
 1  13.86993530413041 -0.71887826672667  0.99316169016902
 1  15.37822822422242  0.33678707570757 -1.50307157595760
 1  15.66922071887189 -2.52674201540154 -0.11208934443444
 1  14.80971261566157 -1.99139365936594 -1.72398377187719
 1  16.46435471507151 -1.70474137113711 -1.35379189248925
 1  15.99350262376237  1.23714204790479  0.86949286558656
 1  16.57188126592659 -0.22792907770777  1.24541303600360
 1  18.14457119481948 -0.39531604560456 -0.53324351995200
 1  17.79936724632463  1.30784967906791 -0.95452119571957
 1  18.50444950185019  2.27452872087209  1.10587253405341
 1  18.71341730423043  0.58906374587459  1.80289353485348
 1  20.61603143544355  0.22349334693469 -0.03458756655666
 1  19.96925374387439  3.31961273777378 -0.63636582128213
 1  21.23177697849785  2.51514265636564 -1.51539952115211
 1  19.73467186478648  1.93562385258526 -2.01267965236524
 1  21.01056490999100  1.13706934783478  2.18627229602960
 1  22.01611950475047  1.93904437513751  1.29730638423842
 1  20.68287836633663  2.89269538673867  2.03803093979398

