%nproc=4
%Mem=2GB
# td=(NStates=1) CAM-B3LYP/6-31G(d,p) 

TD

0 1
12 -7.01868244124412  0.54932368046805  0.06745443284328
 6 -4.86462108010801 -1.90824200260026  0.43840037273727
 6 -4.78468839773977  2.85116356365637  1.10917728262826
 6 -9.39382411791179  3.12897839333933 -0.48851171087109
 6 -9.66894720842084 -1.79810532153215 -0.81928835793579
 7 -5.01961538613861  0.44604442254225  0.67567798609861
 6 -4.33043274937494 -0.71177099909991  0.76298432163216
 6 -2.89156816221622 -0.49417884358436  1.15833618781878
 6 -3.02387582598260  1.01536420472047  1.68997972867287
 6 -4.44461145604560  1.46914766356636  1.16479350925093
 6 -3.03093817591759  1.20906319441944  3.18828023692369
 6 -1.91158461946195 -0.66453171457146  0.04181814011401
 6 -0.45677309990999 -0.35222957015702  0.53333746304630
 6  0.56574771197120 -0.60860437333733 -0.63063844434443
 8  0.16542778287829 -0.88259366696670 -1.71893822552255
 8  1.78383019351935 -0.42481987838784 -0.28182497139714
 7 -7.11489193709371  2.53596918671867  0.24660335583558
 6 -6.05771505050505  3.29960093589359  0.72753628722872
 6 -6.47948520162016  4.70213450285029  0.78654934213421
 6 -7.72929563656366  4.81510214171417  0.29176756805681
 6 -8.08052232383238  3.44980417571757  0.00277282358236
 6 -5.59383734043404  5.84381684758476  1.29355411591159
 6 -8.54625242284228  6.01884291799180  0.16799378477848
 6 -8.51213510481048  7.15948206680668  0.92939918971897
 7 -9.14725699829983  0.70218307940794 -0.50071410511051
 6 -9.80563682338234  1.81599155225523 -0.69133545764576
 6 -11.16811590819082  1.43366170527053 -1.18959067856786
 6 -11.27928033193319  0.10950631473147 -1.29862857685769
 6 -9.94423010371037 -0.40897287158716 -0.92333734983498
 6 -12.22803162686269  2.44416498749875 -1.54980175497550
 6 -12.38728327462746 -0.75421283138314 -1.81407221572157
 6 -12.41555904430443 -1.14626703790379 -3.33150826942694
 7 -7.21308077637764 -1.42801241484148 -0.22674735173517
 6 -8.31385162496250 -2.26472164426443 -0.48217317251725
 6 -7.89110525612561 -3.66603487098710 -0.44268154545455
 6 -6.59001288538854 -3.61439577657766 -0.02846457835784
 6 -6.24162675907591 -2.34075235653565  0.10673347754775
 6 -8.66730419781978 -4.89938278067807 -0.87611609000900
 6 -5.34137860816082 -4.38726260976098  0.18668154075408
 8 -5.08664750265027 -5.57018150155016  0.20552758345835
 6 -4.18743232263226 -3.30063585338534  0.62824268956896
 6 -3.70218084898490 -3.67856307760776  1.94832520542054
 8 -3.96024762536254 -3.05590232643264  2.99454213531353
 8 -2.75495668936894 -4.66723144554455  1.86757533843384
 6 -2.30775136303630 -4.98907313641364  3.22015695119512
 6  2.81068358005801 -0.64631242584258 -1.22035323572357
 6  4.12947503650365 -0.38657683398340 -0.57706785578558
 6  5.09901338573857  0.36190245564556 -0.84994476717672
 6  5.07014543754375  1.24076672597260 -2.09213337863786
 6  6.40407474027403  0.45725757595760 -0.03489997519752
 6  7.68408594649465 -0.11798214511451 -0.81271822232223
 6  8.96602847544755 -0.06575170557056  0.03264145134513
 6  10.22390301480148 -0.43091016271627 -0.78956992749275
 6  10.05964266446645 -1.96718765486549 -1.25510897589759
 6  11.46945982288229 -0.20545432623262  0.04961583018302
 6  12.81743665136514 -0.39389344044404 -0.69701972487249
 6  14.02500196859686 -0.01419262206221  0.07349441694169
 6  15.36525265016502 -0.16701043014301 -0.54918315811581
 6  15.78725039393939 -1.55164279807981 -0.90875049274927
 6  16.42403650955096  0.42003636363636  0.25366987418742
 6  17.86784137353735  0.58612001040104 -0.39346516111611
 6  18.81543191269127  1.17452566956696  0.73686411941194
 6  20.40976964616462  1.19328966246625  0.14512927612761
 6  20.44356571037104  2.22912120932093 -1.05272626532653
 6  21.36894782558256  1.57481041734173  1.24329969336934
 1 -4.30932241674168  3.63634915631563  1.50160474737474
 1 -10.21096148884888  3.82597343234323 -0.79715510701070
 1 -10.28415170457046 -2.51381072187219 -1.23000965316532
 1 -2.78934539143914 -1.19113742764276  2.10852154335433
 1 -2.23387699289929  1.77573115571557  1.20966161656166
 1 -2.24295875337534  0.73448390129013  3.71608532203220
 1 -3.27857291729173  2.21656571407141  3.48475064046405
 1 -3.82445588828883  0.66968165216522  3.58824123692369
 1 -1.82685517041704 -1.55465542594259 -0.45678958815882
 1 -2.08695036753675  0.02044929532953 -0.85901594119412
 1 -0.32289580698070  0.60673528742874  0.98673907300730
 1 -0.24936273827383 -1.02886740194019  1.48662261746175
 1 -5.87718649404940  6.78554719881988  0.63909961916192
 1 -5.61444843424342  5.81040440354035  2.42547884498450
 1 -4.56183013901390  5.68611977837784  1.05054823042304
 1 -9.43411546404641  5.89214536263626 -0.66249647784779
 1 -9.31437265316532  7.93813455235524  0.78855847764776
 1 -7.92411187698770  7.40507690719072  1.77127551305130
 1 -12.10899500460046  3.21295162116212 -2.49738274297430
 1 -13.29923959315932  2.15009890109011 -1.61554274577458
 1 -12.23372510361036  3.26362501720172 -0.66315755975598
 1 -12.69758453685369 -1.44771421652165 -1.01637659255926
 1 -13.29874859375938 -0.29198593539354 -1.73714924242424
 1 -13.17885423802380 -1.62557724392439 -3.59610949544955
 1 -12.33706727092709 -0.35547008460846 -4.00411390709071
 1 -11.58115439473947 -1.68582344944494 -3.49149776977698
 1 -9.14102370537054 -4.81361210411041 -1.93892715681568
 1 -7.98751811661166 -5.81752175637564 -0.85692530553055
 1 -9.39125901080108 -5.17764278557856 -0.20460228282828
 1 -3.48742943884388 -3.50727397809781 -0.08945421692169
 1 -1.55256342284228 -4.25841228092809  3.62730564586459
 1 -2.89011862046205 -5.27708932653265  4.04383722262226
 1 -1.79467757925793 -6.02126139933993  3.04943889678968
 1  2.67536684078408 -1.44092592849285 -1.79178314331433
 1  2.64968244584458 -0.03127884828483 -2.10597374957496
 1  4.19603050865086 -0.85526774197420  0.25574879087909
 1  4.08743770727073  1.68810752115212 -2.64885325502550
 1  5.53844925662566  2.20303056195620 -1.81631810001000
 1  5.60730803840384  0.82229333683368 -2.98893762476248
 1  6.60264232713271  1.41179517951795  0.37463010581058
 1  6.08088220762076 -0.44840287768777  0.87252696939694
 1  7.39490687538754 -1.19491872707271 -1.33267459105911
 1  7.77548998489849  0.35968917701770 -1.81247417101710
 1  9.08031008260826  0.99886777177718  0.26864449664966
 1  8.95327381608161 -0.77647315351535  0.76719458315832
 1  10.19654720612061  0.18843138083808 -1.83818870837084
 1  9.34561954745474 -2.06519449594960 -1.95940186498650
 1  11.02668522422242 -2.34057084098410 -1.70827507140714
 1  9.94426731273127 -2.77657959996000 -0.34241368106811
 1  11.21476915781578  0.80847307750775  0.49445093259326
 1  11.50844389778978 -0.84940090139014  0.88020864246425
 1  12.83600691959196 -1.49513767496750 -0.77184485208521
 1  12.80596434893489  0.44276496749675 -1.50487384868487
 1  13.86142757945795  1.01014357035704  0.50747809080908
 1  13.97459021212121 -0.64051365606561  0.88256477297730
 1  15.29058234673467  0.27342682768277 -1.45155951395140
 1  15.89296673957396 -2.10580087218722 -0.10598205210521
 1  14.86024907560756 -2.12902527812781 -1.42173958905891
 1  16.63773340274027 -1.76698222312231 -1.48757022652265
 1  16.05149034973497  1.46536437013701  0.66983352765277
 1  16.58214266146615 -0.15959513461346  1.14086684788479
 1  18.24102504120412 -0.21129767716772 -0.95121846224622
 1  17.82032909740974  1.19662698159816 -1.23096667246725
 1  18.74642543514351  2.28881303900390  0.77410541584158
 1  18.82859001930193  0.71979616061606  1.79635963626363
 1  20.72948786148615  0.21813796199620 -0.10648358435844
 1  20.21425553215321  3.31683524542454 -0.82873646704671
 1  21.35856010811081  2.22856950975097 -1.41738310161016
 1  20.07381128552856  1.91788359915992 -2.01087805680568
 1  21.09390536573657  0.92157026612661  2.21590120732073
 1  22.43017472377237  1.46874810451045  0.99258422472247
 1  21.13267299719972  2.46919700300030  1.55076551705170

