%nproc=4
%Mem=3GB
# td=(NStates=1) iop(3/107=0140000000,3/108=0140000000) CAM-B3LYP/6-31G(d,p) 

TD

0 1
12 -7.05239993169317  0.66546492999300  0.13832020202020
 6 -4.86914573107311 -1.97783501410141  0.65056045844584
 6 -4.76647267786779  2.80082880078008  1.20481058625863
 6 -9.28121488598860  3.12852040504050 -0.38105058035804
 6 -9.63170926892689 -1.75384715041504 -0.74948175307531
 7 -5.12533956515652  0.46511260186019  0.76319414341434
 6 -4.41719396669667 -0.72900404360436  0.85845374007401
 6 -3.01639786038604 -0.38159655765577  1.31356702580258
 6 -3.13986721362136  1.07904660626063  1.91335761506151
 6 -4.41416165086509  1.49034368546855  1.16390078397840
 6 -2.94870105090509  1.06610943024302  3.45806112071207
 6 -1.92769849954996 -0.55511150035004  0.20122393269327
 6 -0.49788549774977 -0.46599984798480  0.54415779807981
 6  0.47095901910191 -0.64853147504750 -0.59790958105811
 8  0.22373259005901 -1.06943072077208 -1.70286767986799
 8  1.69795839423942 -0.46743668206821 -0.19847523512351
 7 -7.05146278967897  2.59758296819682  0.29228015211521
 6 -6.02318246204620  3.34310807820782  0.62409828592859
 6 -6.31646655505550  4.76998386198620  0.71300955965597
 6 -7.57714249954995  4.96323812901290  0.22690881728173
 6 -8.06512604010401  3.63938087688769 -0.02856485788579
 6 -5.24199623352335  5.85413488718872  1.05389554475448
 6 -8.39416942494249  6.07727799739974  0.16589720222022
 6 -8.28968737873787  7.29778892859286  0.62440649995000
 7 -9.00511955305531  0.71632862726273 -0.50039661356136
 6 -9.81953944024402  1.84075740004000 -0.61521433493349
 6 -11.18811276397640  1.46895634013401 -1.10642550225022
 6 -11.22737222442244  0.14164170997100 -1.26589661796180
 6 -9.93064066766677 -0.38194838823882 -0.78391059235924
 6 -12.23971490919092  2.49922516391639 -1.49800925362536
 6 -12.31752554545455 -0.75710183398340 -1.83860319091909
 6 -12.14250615951595 -1.02239243154315 -3.33542419361936
 7 -7.20331329372937 -1.40806564226423 -0.11375405050505
 6 -8.26309063536354 -2.17497604310431 -0.46891847174717
 6 -7.85686772657266 -3.59403995539554 -0.42869316911691
 6 -6.57162495299530 -3.58105108720872 -0.03264534623462
 6 -6.19530326202620 -2.27986594239424  0.16545838123812
 6 -8.63773611311131 -4.78297439583958 -1.01526490959096
 6 -5.34710017291729 -4.39497306070607  0.11202617671767
 8 -5.18759975227523 -5.63180003700370  0.02213816241624
 6 -4.19155365796580 -3.36155360276028  0.54706302790279
 6 -3.57792196899690 -3.65305324802480  1.83414938343834
 8 -3.76820960436044 -3.17200455835584  2.95260861906191
 8 -2.72171752455246 -4.76356497499750  1.65275431293129
 6 -2.09064802180218 -5.22940814671467  2.89754715511551
 6  2.75589190959096 -0.80651894079408 -1.09365288248825
 6  4.05629651485148 -0.43644891279128 -0.49270183298330
 6  5.04364985628563  0.32077860586059 -0.93508638563856
 6  5.02477620322032  1.17255493079308 -2.13365750075007
 6  6.40136641534153  0.47025764176418 -0.18086861126113
 6  7.56382783538354 -0.11656020402040 -0.99955028372837
 6  8.91050876247625 -0.12565438153815 -0.16524262666267
 6  10.10110557115712 -0.63193485668567 -0.81576729672967
 6  10.13482675927593 -2.10465834573457 -1.25972293829383
 6  11.42710737453745 -0.41819671077108 -0.08536649914992
 6  12.63839157465747 -0.56306634013401 -0.86620412551255
 6  13.94379565136514 -0.25455116941694  0.14307071867187
 6  15.29076506750675 -0.29607869146915 -0.53554920742074
 6  15.66835310631063 -1.66105449374937 -1.00004183048305
 6  16.35464245694569  0.45385190249025  0.25112984768477
 6  17.78814640234024  0.61388511811181 -0.20073660066007
 6  18.67876829542954  1.29702778127813  0.81829508620862
 6  20.22634543894389  1.46927636013601  0.38402510851085
 6  20.25318816461646  2.22893019811981 -1.04753944984498
 6  21.09280434743474  2.17225892579258  1.31615555555556
 1 -4.02350271377138  3.62211546294630  1.52335843164316
 1 -9.95555767906791  3.77696997149715 -0.53005753195320
 1 -10.64148857295730 -2.46028156325633 -0.73038085748575
 1 -2.64176146334633 -1.15594579727973  2.03059955065507
 1 -2.24086755305530  1.63099516061606  1.53370701970197
 1 -2.01907499389939  0.56103520992099  3.90822115951595
 1 -3.01195830493049  2.02949217201720  3.75374339653965
 1 -3.93137593809381  0.64523967826783  3.95545723092309
 1 -2.07015213421342 -1.56292696349635 -0.32763077017702
 1 -2.14445081408141  0.33715133493349 -0.40629736433643
 1 -0.29192462116212  0.58825841314131  1.02834669766977
 1 -0.29627804810481 -1.13396416301630  1.53997745604560
 1 -5.32899707740774  6.81997950995099  0.42543237453745
 1 -5.12980445174517  5.96970985238524  2.20406241874187
 1 -4.23050789538954  5.40495476347635  0.65608634123412
 1 -9.25266552635263  5.95562894489449 -0.67713906660666
 1 -8.93323238693869  8.04190391139114  0.51710148584859
 1 -7.54878281038104  7.49469630603060  1.46141510181018
 1 -11.65838631163116  3.21867101420142 -2.14411024252425
 1 -13.08087538523852  2.02411115351535 -1.91402713091309
 1 -12.53605463816382  3.02291962606261 -0.59981042054205
 1 -12.29210117501750 -1.76874779757976 -1.16377987888789
 1 -13.12175447454745 -0.17746045654565 -1.54027978237824
 1 -12.88398359755976 -1.69636329842984 -3.65518647674767
 1 -11.99343974967497 -0.23288175947595 -3.93219219761976
 1 -11.22283712311231 -1.56440746794679 -3.58846712491249
 1 -8.78850346894689 -4.73280978177818 -2.16170223322332
 1 -8.03367775297530 -5.50241619491949 -0.94172412751275
 1 -9.68109228822882 -4.95668411681168 -0.67581985068507
 1 -3.35192271077108 -3.15108171377138 -0.28251598969897
 1 -1.57596098369837 -4.49777199059906  3.49142085968597
 1 -2.80203664096410 -5.56557608250825  3.55996703440344
 1 -1.33779429992999 -5.98698948374838  2.73754711581158
 1  2.75882393719372 -1.97165378817882 -1.20902235093509
 1  2.64652109340934 -0.23096501170117 -2.33457451495150
 1  4.19048953565357 -1.08639705350535  0.47249865006501
 1  4.16855216671667  1.29536507920792 -2.89645013071307
 1  5.28413534573457  2.07747817171717 -1.74106154455446
 1  5.85671524002400  0.83340453135314 -2.85272152905291
 1  6.44429261316132  1.58440842144214 -0.09287967406741
 1  6.22402027412741 -0.11407874457446  0.78932512801280
 1  7.33944606740674 -1.15758643164316 -1.20323508070807
 1  7.58299085758576  0.35772487548755 -2.08670949384939
 1  8.92161820612061  0.91676117361736  0.01141356945695
 1  8.77110023082308 -0.69320767346735  0.80280640404040
 1  10.56820145194520  0.07642379017902 -1.72793795179518
 1  9.22911252035204 -2.35445372887289 -1.70555893779378
 1  10.85914505510551 -2.26535993529353 -2.19256461456146
 1  9.99096129322932 -2.98660277497750 -0.61819921362136
 1  11.29599124072407  0.66002243564356  0.21263903470347
 1  11.45013260876088 -0.85608690629063  0.86025234533453
 1  12.64864281678168 -1.56941436073607 -1.35546781828183
 1  12.49203503340334  0.04621955795580 -1.64756909060906
 1  13.72787420772077  0.73439880318032  0.46306113481348
 1  13.85077338793879 -0.85180155905591  0.96143851785178
 1  15.27005740714072  0.19932332933293 -1.35697696649665
 1  15.43383718051805 -2.38036737793779 -0.18822695819582
 1  14.97505915031503 -1.97273179317932 -1.86975834933493
 1  16.62114039363937 -1.52283318031803 -1.49429594289429
 1  15.87039031253125  1.39039737343734  0.46296221252125
 1  16.21434551235124 -0.05358164296430  1.31367986268627
 1  18.18309504720472 -0.29226574057406 -0.57769796539654
 1  17.77662497209721  1.19100799489949 -1.03437918151815
 1  18.51574063096309  2.27500876887689  1.33797574437444
 1  18.80669663216322  0.45256009550955  1.61486473197320
 1  20.50783061536154  0.45478647624762  0.19364525672567
 1  19.85862268076808  3.26346712321232 -0.85119730443044
 1  21.31870567136714  2.19537067916792 -1.38057603880388
 1  19.51871026862686  1.62599288948895 -1.78088647304730
 1  21.45891974547455  1.59927556845685  2.21483515231523
 1  22.02602049484948  2.20132060276028  0.85698235183518
 1  20.54917499599960  3.12547866506651  1.70906804350435

