%nproc=4
%Mem=2GB
# td=(NStates=1) CAM-B3LYP/6-31G(d,p) 

TD

0 1
12 -7.18998957195720  0.58388713681368  0.15706339373937
 6 -4.85533015101510 -2.00510168856886  0.36864339703970
 6 -4.80009993889389  2.89793824112411  1.04475083998400
 6 -9.51671640714071  3.11190668616862 -0.29990284998500
 6 -9.54719503320332 -1.72909842084208 -0.71465789488949
 7 -5.19376280088009  0.43199301740174  0.70270068836884
 6 -4.42750245634563 -0.72083190519052  0.69767779097910
 6 -2.97055606100610 -0.39578900460046  1.11296165036504
 6 -3.07146058445845  1.05263793209321  1.50812154285429
 6 -4.45119211411141  1.57617836663666  1.07797482738274
 6 -2.92585766786679  1.30335262336234  3.03866527542754
 6 -1.88549201020102 -0.73492875427543  0.05391935023502
 6 -0.45810323292329 -0.63559790699070  0.54694882418242
 6  0.48435957315732 -0.74923843674367 -0.61783716421642
 8  0.21803304340434 -0.97975338293829 -1.73677000870087
 8  1.72935474597460 -0.54052144854485 -0.19344613351335
 7 -7.15895634353435  2.59296488628863  0.35646434193419
 6 -6.08210748974898  3.39168014381438  0.66807034063406
 6 -6.45811306440644  4.84246853625363  0.72236292349235
 6 -7.72196490349035  4.85928656015602  0.29973836513651
 6 -8.19346361796180  3.43791298659866 -0.01208866256626
 6 -5.60518847554756  5.86026849274928  1.05164992549255
 6 -8.53281107870787  5.99854088778878  0.18285527092709
 6 -8.49597348864886  7.16923304190419  0.85559180898090
 7 -9.19139141174117  0.70374323542354 -0.45722975667567
 6 -10.00549680938094  1.76858681178118 -0.60099642374237
 6 -11.25530462706271  1.41224956405641 -1.11543326282628
 6 -11.21225362926293  0.02511787588759 -1.11027974197420
 6 -9.93506918761876 -0.38348032233223 -0.87316233233323
 6 -12.35159398309831  2.37357792879288 -1.33262003680368
 6 -12.39943448974897 -0.77830524062406 -1.69336014451445
 6 -12.18367585598560 -1.22885529672967 -3.08938405700570
 7 -7.30986045434543 -1.37144675827583 -0.13387806480648
 6 -8.28190843064306 -2.25579075117512 -0.48057301250125
 6 -7.84216036163616 -3.60496876437644 -0.42121939923992
 6 -6.53343722782278 -3.54063840084008 -0.12262399429943
 6 -6.19848244464446 -2.14720300160016 -0.08180537633763
 6 -8.72405987338734 -4.93405624802480 -0.67168564696470
 6 -5.28459292959296 -4.34372825632563  0.10961383398340
 8 -5.09744858275828 -5.59765424882488  0.24829185988599
 6 -4.11858543794379 -3.30718650845085  0.47893775907591
 6 -3.54047467836784 -3.64271949324932  1.74710508340834
 8 -3.78351995259526 -3.07726446264626  2.79265194629463
 8 -2.57400859455946 -4.59805452785278  1.65263384428443
 6 -2.10745133303330 -4.95915014411441  2.92145708120812
 6  2.82938545024502 -0.64726252085209 -1.11328252865287
 6  4.09983207220722 -0.44843301960196 -0.44817496649665
 6  5.12008549294929  0.26405267066707 -0.86258603130313
 6  4.98425684868487  1.22707535683568 -2.17329149444944
 6  6.40076440924092  0.36791864206421 -0.09340582578258
 6  7.72624016191619 -0.05056540344034 -0.99991694219422
 6  8.97664953755376  0.00018488808881 -0.18537034983498
 6  10.32931355585558 -0.39968704040404 -0.87451842234223
 6  10.23594029422942 -1.85814675077508 -1.30801426642664
 6  11.50827370427043 -0.12393617441744 -0.00626975837584
 6  12.80868577627763 -0.27697174827483 -0.70215023792379
 6  13.99499896829683 -0.10382158495850  0.27933500100010
 6  15.34276040094009 -0.17077080618062 -0.46019425922592
 6  15.65589725862586 -1.57652528632863 -0.80132975067507
 6  16.48903300920092  0.37528188818882  0.46056056325633
 6  17.83049763916392  0.52574397279728 -0.26059187378738
 6  18.84371474097410  1.11655987298730  0.81884231723172
 6  20.28206687588759  1.14270460396040  0.20622538573857
 6  20.39664101790179  1.96104440164016 -1.09105009770977
 6  21.27017794859486  1.71618455475548  1.21094645804580
 1 -3.99589107360736  3.65241076247625  1.44881946884688
 1 -10.34392478517852  3.75501633663366 -0.53313870537054
 1 -10.34071736113611 -2.34812415321532 -1.05451210341034
 1 -2.66373283018302 -0.90454876877688  2.07563825502550
 1 -2.37653125832583  1.71239482208221  0.96295694609461
 1 -2.02175663316332  1.00242069496950  3.40638435193519
 1 -2.91177623762376  2.42874693219322  3.10438260366037
 1 -3.87023046574658  0.70409509350935  3.41491390419042
 1 -1.98461094599460 -1.76128608900890 -0.38886279547955
 1 -2.04425609810981 -0.28874162376238 -0.83855389498950
 1 -0.51395491289129  0.51628624252425  1.11698209730973
 1 -0.10645844784478 -1.31135565076508  1.23865782098210
 1 -5.90981975737574  6.86759540364036  0.56438214741474
 1 -5.53823081248125  6.07213057615762  2.10656695379538
 1 -4.50184414041404  5.44954612101210  0.98284145974597
 1 -9.54030608310831  6.07885403350335 -0.52350257845785
 1 -9.08411962786279  8.07144788368837  0.70747036883688
 1 -7.60469993579358  7.38537493699370  1.57346573207321
 1 -11.94704880998100  3.27450777677768 -2.13593659835984
 1 -13.33413308250825  1.91166505770577 -1.90822201370137
 1 -12.53963569466947  3.06050470517052 -0.48325956995700
 1 -12.51500627902790 -1.64567401250125 -1.26809176407641
 1 -13.33036175507551 -0.18501523832383 -1.63734926242624
 1 -13.12025837843784 -1.69940462666267 -3.52690257475748
 1 -12.16941050525053 -0.25208974657466 -3.69344283998400
 1 -11.26382266156616 -1.62154702180218 -3.27816643664366
 1 -8.55350495349535 -5.03903464636464 -1.81910517461746
 1 -8.35101446624662 -5.77720772497250 -0.03007262026203
 1 -9.83107299219922 -4.60820584188419 -0.29564138673867
 1 -3.38681937783778 -3.33071632233223 -0.41172644414441
 1 -1.47499566606661 -4.17011345104510  3.53939685498550
 1 -2.74583419201920 -5.45652727032703  3.84746758565857
 1 -1.21607971947195 -5.79035830903090  2.73728768166817
 1  2.83756306040604 -1.57291912781278 -1.52942690769077
 1  2.49716719431943  0.12918719831983 -1.96666981918192
 1  4.22689359495950 -1.10160237543754  0.56811002700270
 1  3.87774673817382  1.39515822622262 -2.41059942964296
 1  5.26554196589659  2.27972823172317 -1.94911137933793
 1  5.44386169376938  0.83671477897790 -2.98107683868387
 1  6.72364442734273  1.54357835783578  0.39504214701470
 1  6.36992111151115 -0.22943098049805  0.70654037073707
 1  7.52853023772377 -1.06282551775178 -1.26496782038204
 1  7.85117755365537  0.76424963306331 -1.83133605720572
 1  9.00427247884788  1.07351523652365  0.31360899309931
 1  8.89163765246525 -0.64839034523452  0.72836069976998
 1  10.31518907030703  0.20898343604360 -1.78160304980498
 1  9.37668265376538 -2.19780775727573 -1.80317624242424
 1  11.01720427612761 -2.15907269116912 -2.03212745664566
 1  10.38042092809281 -2.43150509250925 -0.33869330903090
 1  11.42951063196320  0.87237946814681  0.48241972947295
 1  11.34596765016502 -0.62733869516952  0.99736035763576
 1  12.77393071197120 -1.42173033423342 -0.71612928052805
 1  12.87520127262726  0.15347603860386 -1.59774313561356
 1  13.96491792849285  1.12144470047005  0.65028237123712
 1  13.96634938803880 -0.86102570727073  1.14142065856586
 1  15.34677796629663  0.64149363436344 -1.14325868386839
 1  15.54694213711371 -2.19593988608861  0.02682122822282
 1  14.98774182488249 -2.05604798039804 -1.45711312641264
 1  16.71600122952295 -1.60499602450245 -1.29292076157616
 1  16.48464366506651  1.50957879157916  1.07885442974297
 1  16.63933838103810 -0.25624479957996  1.45725848704870
 1  18.43643458215822 -0.35976252365237 -0.58465180558056
 1  17.70920798529853  1.07114443334333 -1.03338691449145
 1  18.36164695729573  1.96753091079108  1.16475448074807
 1  19.00980814111411  0.69558373937394  1.62626262656266
 1  20.73250816351635  0.19788593679368  0.05617268126813
 1  19.88918302490249  2.95628919081908 -0.88034162756276
 1  21.48289254135414  2.00530718351835 -1.29590095339534
 1  20.00314421882188  1.66772858365837 -2.02974994399440
 1  21.17123309850985  1.14204231333133  2.19917953515351
 1  22.39377108340834  1.69157038673867  0.80935590189019
 1  21.12160189008901  2.84521460476048  1.52809324982498

