%nproc=4
%Mem=2GB
# td=(NStates=1) CAM-B3LYP/6-31G(d,p) 

TD

0 1
<<<<<<< HEAD
12 -7.11236180918092  0.59390813891389  0.06779446684668
 6 -4.84728934693469 -1.93409458785879  0.44292082478248
 6 -4.91345127402740  2.77338578587859  1.18819518441844
 6 -9.48675341084108  3.15719121462146 -0.34629748944895
 6 -9.54383469716972 -1.76157166816682 -0.93920034913491
 7 -5.15424884948495  0.38017783588359  0.74659507780778
 6 -4.38457816391639 -0.69905972797280  0.79633765696570
 6 -2.92290129552955 -0.38147757345735  1.17034738893889
 6 -3.05122856125613  1.15291796009601  1.62593332403240
 6 -4.39415641054105  1.47238798759876  1.14539156905691
 6 -2.90004508660866  1.35604789288929  3.17391880078008
 6 -1.86747020802080 -0.51889715111511  0.01763572187219
 6 -0.52692011461146 -0.30881522872287  0.43924805410541
 6  0.53773491069107 -0.60469398229823 -0.54759013951395
 8  0.28070931103110 -0.98178358595860 -1.67110344204420
 8  1.79868167866787 -0.26860425682568 -0.09550633953395
 7 -7.16662711061106  2.58472406220622  0.37120581608161
 6 -6.14284356335634  3.35846682248225  0.82676621022102
 6 -6.51183843694369  4.73610790019002  0.81278196539654
 6 -7.80099280628063  4.80187081858186  0.36843523482348
 6 -8.14950922252225  3.40570976627663  0.09126167246725
 6 -5.61961991869187  5.82763522942294  1.33504826532653
 6 -8.51221901950195  6.04732576627663  0.10297728312831
 6 -8.35046893819382  7.20957707630763  0.70151640144014
 7 -9.17541981458146  0.67813067416742 -0.54951898559856
 6 -9.96937319701970  1.78582853595360 -0.71542786688669
 6 -11.25917501410141  1.44328266736674 -1.15196691619162
 6 -11.20881328522852  0.01927729182918 -1.23004171817182
 6 -9.84257993869387 -0.38163013731373 -0.96106112221222
 6 -12.39478830253025  2.43474404540454 -1.36010278507851
 6 -12.35364991129113 -0.79639704980498 -1.83525433393339
 6 -12.22418990739074 -1.20018242944294 -3.25814093269327
 7 -7.17525699399940 -1.38442805640564 -0.18582325932593
 6 -8.20224046384639 -2.25138031013101 -0.49638459365937
 6 -7.84349049464947 -3.62785105260526 -0.39452672997300
 6 -6.45888977307731 -3.44527886488649 -0.04143587548755
 6 -6.15992858925893 -2.13871215251525  0.08022082628263
 6 -8.66144361176118 -4.89547238963896 -0.60656913531353
 6 -5.31829629992999 -4.33047693119312  0.24573744634463
 8 -5.26523536143614 -5.56019050245024  0.39572660336034
 6 -4.09480305970597 -3.39481527132713  0.47344721002100
 6 -3.44561519241924 -3.67315253655366  1.83678405130513
 8 -3.62007360796080 -3.00418715491549  2.84013669476948
 8 -2.63560475417542 -4.78226294869487  1.66246482738274
 6 -2.10724131203120 -5.30467469656966  2.92827776327633
 6  2.82517502920292 -0.57060485508551 -1.12685388578858
 6  4.20010209920992 -0.44020219651965 -0.53927407640764
 6  5.15311879627963  0.42861912731273 -0.97947772047205
 6  5.12772119511951  1.14199684898490 -2.39216338163816
 6  6.43683801660166  0.52998484868487 -0.26074255945595
 6  7.66009354725473  0.00422007510751 -1.02537948844884
 6  8.92139401200120 -0.09339446984698 -0.17815962876288
 6  10.14817544204420 -0.45101217291729 -0.89257022752275
 6  10.14790149034903 -1.89777071317132 -1.34410787578758
 6  11.43953683058306 -0.30239402020202 -0.04010314171417
 6  12.74852976067607 -0.55891994309431 -0.68409843274327
 6  13.97812728112811 -0.25085628842884  0.15212227972797
 6  15.35479160406041 -0.34763849294929 -0.47394563436344
 6  15.75868753765377 -1.73989162296230 -0.79085870357036
 6  16.36257036293629  0.37913227322732  0.41208571577158
 6  17.78932352175217  0.49004040244024 -0.20485630023002
 6  18.72668303780378  1.25822403940394  0.69324975797580
 6  20.19126779597960  1.27637797129713  0.28128289148915
 6  20.34425577937794  2.04155245244525 -1.07060805350535
 6  21.09450038083808  1.95597853415342  1.37851321472147
 1 -4.28195968046805  3.60165568696870  1.55260984788479
 1 -10.31449184188419  4.04110494549455 -0.20536592809281
 1 -10.26111940134013 -2.58931827262726 -0.96767341954195
 1 -2.73294975187519 -1.09962827672767  2.03929462066207
 1 -2.37951155635564  1.79603318591859  1.24363501390139
 1 -1.89701415891589  0.96836728962896  3.70880459395940
 1 -2.99916497649765  2.36749080658066  3.44594676007601
 1 -3.49701314401440  0.84615929992999  3.73100551335134
 1 -2.03731621652165 -1.49021898229823 -0.51291520072007
 1 -2.00521219371937  0.06800405080508 -0.69140918051805
 1 -0.17822133953395  0.65845045894589  0.60932133123312
 1 -0.35045284728473 -0.88378289348935  1.28348230343034
 1 -5.68873764916492  6.71190983508351  0.74680038923892
 1 -5.87410439983998  6.06975033813381  2.45937223432343
 1 -4.52173612961296  5.88114928132813  1.15560873647365
 1 -9.22976502900290  6.13278942704270 -0.69780000820082
 1 -8.90694191009101  8.02437317621762  0.53575319711971
 1 -7.65003446924692  7.21087748724872  1.72728111361136
 1 -12.18344244934493  2.91894222022202 -2.18848185288529
 1 -13.16408607780778  1.68637252845285 -1.71299249074907
 1 -12.42285401650165  2.98356701140114 -0.54772601660166
 1 -12.36561133953395 -1.59873931903190 -1.31461641654165
 1 -13.36658537743774 -0.56527326412641 -1.56346187368737
 1 -13.10552690529053 -1.64532921912191 -3.71248113261326
 1 -11.85529909410941 -0.32824736233623 -4.13232672837284
 1 -11.23700998029803 -1.79497436453645 -3.37301592159216
 1 -9.50843044604461 -4.93027377027703 -1.38864212831283
 1 -8.19667903270327 -5.78639864406441 -0.45367498049805
 1 -9.25174505940594 -4.95247026832683  0.21619979737974
 1 -3.26890758665867 -3.58822207290729 -0.20026529802980
 1 -1.34294246074607 -4.67600404010401  3.54477739303930
 1 -2.94911452005201 -5.39252086968697  3.59401224012401
 1 -1.47462557405741 -6.09881915511551  2.65990994389439
 1  2.48400770487049 -1.62234407030703 -1.60563452845285
 1  2.64616209380938  0.20262454205421 -2.03124627682768
 1  4.32270317591759 -0.90799301450145  0.38051126712671
 1  4.03771273477348  1.38181689208921 -2.69977834753475
 1  5.56339175087509  2.13298355725573 -2.28394486268627
 1  5.74859216681668  0.28303941144114 -3.12498122912291
 1  6.62873493639364  1.58617261726173 -0.15895325252525
 1  6.21711583098310  0.01663362596260  0.66158587528753
 1  7.34208159285929 -0.96160539573957 -1.37102842644264
 1  8.05457789368937  0.48249145724572 -1.93615653925393
 1  9.08038008960896  0.86336422142214  0.26224385658566
 1  8.78950743944394 -0.90085559175918  0.71457932163216
 1  10.21157870927093  0.20608314601460 -1.61520641014101
 1  9.34816980248025 -1.92848082458246 -2.22224814961496
 1  11.07439999569957 -2.11173795769577 -1.95994023792379
 1  9.68836172217222 -2.67210915291529 -0.59440888058806
 1  11.54535221612161  0.83087531773177  0.06990847834784
 1  11.34010706410641 -1.03207916921692  0.74805542714271
 1  12.88112143104311 -1.58308646984698 -1.24532219981998
 1  12.86515026752675 -0.06447575657566 -1.64084744604460
 1  13.83833527022702  0.85536809280928  0.67093443644364
 1  13.94703745684568 -0.87941754645465  1.01994851135114
 1  15.34399768826883  0.18928841384138 -1.44243860186019
 1  15.65816325922592 -2.39415970807081  0.22668121422142
 1  15.00751380208021 -2.29069144474447 -1.45424283938394
 1  16.75062469186919 -1.74975049994999 -1.15736720622062
 1  16.08038323902390  1.22686051975198  0.73845038933893
 1  16.50819526672667 -0.13045222032203  1.43880664186419
 1  17.91556249494949 -0.50575712311231 -0.52988632903290
 1  17.65271233573358  1.02079939883988 -0.96129970577058
 1  18.22272306490649  2.38581273897390  0.91806981228123
 1  18.84785194549455  0.85968014901490  1.71370137043704
 1  20.51323623632363  0.15514166236624  0.19873693769377
 1  19.81766587318732  3.03093665556556 -0.80309390279028
 1  21.44696894899490  2.11885853865387 -1.25286664996500
 1  19.96538044244425  1.33032484328433 -1.88298526752675
 1  20.80247622282228  1.47319542864286  2.48910852805281
 1  22.24822652895289  2.02324355405541  1.28383334963496
 1  20.67230696059606  2.92073215651565  1.56507694819482
=======
12 -7.12873344634463  0.62411115921592  0.04694238163816
 6 -4.87348196619662 -1.95425660406041  0.58392492519252
 6 -4.77012694159416  2.81161960926093  1.05956232113211
 6 -9.40555529102910  3.07855335083508 -0.33825668536854
 6 -9.42834314801480 -1.73569908090809 -0.96105253435344
 7 -5.09255267986799  0.41110092819282  0.78202862116212
 6 -4.23349305540554 -0.74807462946295  0.79429745294529
 6 -2.88965797119712 -0.42578200390039  1.29882023622362
 6 -3.01279471787179  1.10542321062106  1.71121185188519
 6 -4.32261925682568  1.49972072087209  1.14538156805681
 6 -2.99258434053405  1.22428471657166  3.29692110101010
 6 -1.86960042104210 -0.61152641404140  0.17557151545155
 6 -0.46268369096910 -0.37776212341234  0.64244837413741
 6  0.45943708090809 -0.59611312421242 -0.47293267376738
 8  0.25102634273427 -0.92140754835484 -1.59299563126313
 8  1.79596140664066 -0.39900729712971 -0.14655144404440
 7 -7.06546699459946  2.60538612841284  0.34911360686069
 6 -5.99075835483548  3.35547652345235  0.60907444104410
 6 -6.30096734983498  4.76781107050705  0.72010269746975
 6 -7.68128083508351  4.86648728022802  0.34279267056706
 6 -8.17714198579858  3.51425062036204  0.09091163746375
 6 -5.36320427712771  5.88583104900490  0.99568432893289
 6 -8.52654045164516  6.03335436913691  0.03458044344434
 6 -8.44006789808981  7.12670878947895  0.77125337513751
 7 -9.04678695129513  0.52571543264326 -0.56287032073207
 6 -9.85201146084608  1.76854680778078 -0.60700702480248
 6 -11.16170526712671  1.47129546864686 -1.09361108060806
 6 -11.22998540244024  0.07661302540254 -1.21400011401140
 6 -9.92571825252525 -0.43455542984298 -0.82139715581558
 6 -12.35361418511851  2.39599017001700 -1.21332810761076
 6 -12.31149569586959 -0.79835724582458 -1.74483529202920
 6 -12.19805729412941 -1.22671508270827 -3.23583870247025
 7 -7.14690415871587 -1.36744635823582 -0.08558323532353
 6 -8.20319055885589 -2.15848102020202 -0.61736669186919
 6 -7.82150829642964 -3.60600886838684 -0.56919419671967
 6 -6.45917980208021 -3.64805914291429 -0.24622635453545
 6 -6.17308990539054 -2.21883016431643  0.11048385258526
 6 -8.52777024442444 -4.91767460986099 -1.02588106650665
 6 -5.23050752105211 -4.39322320582058 -0.00869799719972
 8 -5.04015285318532 -5.60525500890089 -0.05378834813481
 6 -4.20796437583758 -3.29563535333533  0.53171303660366
 6 -3.59568019891989 -3.61745696699670  1.95130550345035
 8 -3.84891649224923 -3.03985072127213  2.99110179127913
 8 -2.83719491319132 -4.69976469886989  1.88716729762976
 6 -2.14539512741274 -5.11369559865987  3.02070700620062
 6  2.80547305900590 -0.60070786538654 -1.20270147054705
 6  4.07999008800880 -0.30789896619662 -0.54409455845585
 6  5.08044152855286  0.49626589198920 -0.93593336603660
 6  5.09821824482448  1.14225687498750 -2.30678484378438
 6  6.38673300610061  0.59976182638264 -0.16648313351335
 6  7.55817335523552 -0.03001334823482 -0.86385333583358
 6  8.83003487608761 -0.13547867826783 -0.02290410321032
 6  10.12802342684268 -0.51920899259926 -0.83601457195720
 6  9.97284398459846 -1.95054599069907 -1.21522498749875
 6  11.33054593149315 -0.18108188898890 -0.04390352175218
 6  12.66349125682568 -0.43844789588959 -0.64397442034203
 6  13.91794126252625 -0.09197039983998  0.17613468096810
 6  15.33614973987399 -0.28202193129313 -0.52477071687169
 6  15.56711838073807 -1.72786041984198 -0.83904352205221
 6  16.42549665556556  0.33524788478848  0.44018852605261
 6  17.75277986738674  0.45023642204220 -0.17332314691469
 6  18.80952132163216  1.08098631563156  0.82981341434143
 6  20.13617228642864  1.30060039353935  0.12487725092509
 6  20.19181053485348  2.08939723692369 -1.16952794549455
 6  21.11858278907891  1.87809074537454  1.06846220962096
 1 -4.05431691619162  3.55421094249425  1.42934752165216
 1 -9.98192858555856  3.86224705970597 -0.45083047454745
 1 -10.19960324972497 -2.63967330813081 -0.98785543774377
 1 -2.39138559545954 -1.00992930683068  2.10229092029203
 1 -2.24801840704070  1.75528911151115  1.21615226562656
 1 -2.09175363286329  0.78609906280628  3.53539725322532
 1 -3.12136719671967  2.19515357285729  3.63368553395340
 1 -3.84809825252525  0.69406409040904  3.80713312611261
 1 -2.07005949084909 -1.60243020342034 -0.05491940114011
 1 -2.20968264076408  0.17598484888489 -0.67176721632163
 1 -0.30520403780378  0.63127774167417  1.00766116521652
 1 -0.05155295729573 -1.23364787998800  1.21934588978898
 1 -5.81805058045805  6.72946159025903  0.39613532273227
 1 -5.51429841924192  6.17499086218622  2.01565786288629
 1 -4.28241219721972  5.82841400780078  0.60556373197320
 1 -9.30758281078108  6.04212036013601 -0.76174640284028
 1 -9.21326254215422  8.09880061896190  0.60880050185019
 1 -7.56110557635764  7.22281868136814  1.34467285278528
 1 -12.15265937103710  3.20071039703970 -2.06165917061706
 1 -13.09991966116612  1.82930682188219 -1.54872606410641
 1 -12.64634636573657  2.75315397009701  0.01678043404340
 1 -12.29808458685869 -1.60913035813581 -1.00638559345935
 1 -13.10677939683968 -0.17839457625763 -1.60374590209021
 1 -13.10901725432543 -1.75269995619562 -3.75746563106311
 1 -12.09655321952195 -0.14991952955296 -3.77895139083908
 1 -11.42706898619862 -1.99551441854185 -3.33144176417642
 1 -8.72132173517352 -4.97212795569557 -2.15025828992899
 1 -7.95846521132113 -5.66936694089409 -0.79961957495750
 1 -9.42352223712371 -5.20836585788579 -0.49107092969297
 1 -3.42459315521552 -3.23242649334933 -0.29164443594359
 1 -1.73731189768977 -4.36236267596760  3.78034094939494
 1 -2.74473408200820 -5.77201881948195  3.81021386028603
 1 -1.29651776327633 -5.85785505870587  2.76225017791779
 1  2.66643594769477 -1.56781861776178 -1.45245921092109
 1  2.67240471807181  0.17780205980598 -2.02711586378638
 1  4.28441934753475 -0.92160437563756  0.29737295329533
 1  4.14177314081408  1.35829453985399 -2.73663203290329
 1  5.51350676237624  2.26942720162016 -2.38807527572757
 1  5.75211251885189  0.66264737223722 -3.02995172617262
 1  6.62208427132713  1.72596659665967 -0.17021437863786
 1  6.08502262166217 -0.07065510291029  0.64731444814481
 1  7.46790417511751 -1.00910014521452 -1.27954927852785
 1  7.84772720862086  0.65012822092209 -1.84145706930693
 1  9.18767081868187  0.95697358235824  0.49346697889789
 1  8.94815330403040 -0.83479898609861  0.69543740744074
 1  10.11455900730073  0.31455399309931 -1.60378526802680
 1  8.90123510901090 -2.31405938243824 -1.60600652545255
 1  10.71385394109411 -2.14553133703370 -2.02869711361136
 1  10.01670455645565 -2.65295723772377 -0.30649008870887
 1  11.25284296519652  0.83788601880188  0.32667415491549
 1  11.22317537093709 -0.73075903720372  0.85889651125113
 1  12.67656097499750 -1.49164732593259 -0.97006467406741
 1  12.49739349184918  0.17711840284028 -1.59460282158216
 1  14.07010844754475  0.87094965096510  0.56682402540254
 1  14.09389214231423 -0.76753635833583  1.14328084458446
 1  15.30422371087109  0.50239972497250 -1.36349070707071
 1  15.73383082598260 -2.16324661676168  0.17829637573757
 1  14.83463651435144 -2.26886926252625 -1.28330574567457
 1  16.47045667506751 -1.99064458935894 -1.27297876737674
 1  16.09602480318032  1.37001483518352  0.87956450075007
 1  16.26060050725072 -0.02785196029603  1.43117587878788
 1  18.23569450815081 -0.64622116951695 -0.49999333973397
 1  17.62378944344434  0.89629694859486 -1.05883945974597
 1  18.51110190279028  2.18655281298130  1.05127313261326
 1  18.83295045534554  0.64027820882088  1.76882688298830
 1  20.54387930063006  0.26209235743574 -0.02388532453245
 1  20.07411151775177  3.22533609550955 -0.82732632603260
 1  21.24291854395440  2.12131878467847 -1.63852521582158
 1  19.47235113951395  1.72370418121812 -1.89809677867787
 1  21.35556153135314  1.37880598969897  2.04652426962696
 1  22.09343104940494  2.01383261296130  0.34683965026503
 1  20.84790452035204  2.91553163646365  1.20594103460346
>>>>>>> 8e03b5b5abfc0030b3aa597dc0de36371bfbd096

