%nproc=4
%Mem=2GB
# td=(NStates=1) CAM-B3LYP/6-31G(d,p) 

TD

0 1
12 -7.11284185718572  0.59426817491749  0.10634832223222
 6 -4.83035765376538 -1.99217039543954  0.54599113181318
 6 -4.79454938383838  2.75370381768177  1.08704506940694
 6 -9.23845858135813  3.09800529602960 -0.56626948664866
 6 -9.47482779647965 -1.73995950695069 -0.84041047014701
 7 -5.08444186878688  0.42939275737574  0.70275069336934
 6 -4.32415212131213 -0.72326214821482  0.80603862706271
 6 -2.86379538493849 -0.37859728542854  1.18458881308131
 6 -3.07620105850585  1.07544021232123  1.72589332003200
 6 -4.33411040594059  1.53447419621962  1.16577360726073
 6 -2.90931601370137  1.13816610471047  3.23344475337534
 6 -1.87395085608561 -0.63459872127213  0.13247720602060
 6 -0.44455187778778 -0.42794714191419  0.47504163346335
 6  0.57392853005301 -0.68298181108111 -0.65685106560656
 8  0.28321956205621 -1.26099150675068 -1.68313464516452
 8  1.79922173267327 -0.32796019241924 -0.22129891879188
 7 -7.06130657855786  2.55300088988899  0.28592728822882
 6 -6.06146542554256  3.37641861766177  0.75628916251625
 6 -6.30550780388039  4.82695698509851  0.71070175737574
 6 -7.63537624462446  4.84498513001300  0.35635402670267
 6 -8.00418469006901  3.48855805110511 -0.08063551725173
 6 -5.45586354305431  5.82669513541354  1.21583634413441
 6 -8.52338013561356  6.08716975067507  0.00999798519852
 6 -8.31434532583258  7.24685080368037  0.74364061386139
 7 -9.10022229482948  0.56756961806181 -0.48507254095410
 6 -9.78912517221722  1.82124207730773 -0.78722504660466
 6 -11.07975707230723  1.46996533563356 -1.21246296579658
 6 -11.18977138103810  0.10039540364036 -1.24897361136114
 6 -9.85132081278128 -0.37866984128413 -0.78138315441544
 6 -12.16503532723272  2.50934150515052 -1.51015779057906
 6 -12.39970451675168 -0.76456386648665 -1.64363517201720
 6 -12.29751724012401 -1.08100051125113 -3.16983210181018
 7 -7.16879634793479 -1.44076368996900 -0.02823750075008
 6 -8.31522176197620 -2.24811998409841 -0.42465742094209
 6 -7.89418556415642 -3.67201546904690 -0.43035031233123
 6 -6.57699158325833 -3.60102443944394  0.09915818391839
 6 -6.06828942534253 -2.22081036233623  0.15520832503250
 6 -8.69999746714671 -4.89498234063406 -0.73330180858086
 6 -5.31652612291229 -4.48812269576958  0.23519639223922
 8 -5.16901573947395 -5.69664414781478  0.24866189688969
 6 -4.18191177057706 -3.39933572337234  0.60294015931593
 6 -3.52718334923492 -3.64548977027703  1.88416878977898
 8 -3.74233583418342 -3.15191192739274  2.94633731483148
 8 -2.75107630133013 -4.77235195759576  1.73056163706371
 6 -2.07289787768777 -5.19770399949995  2.83452838833883
 6  2.79091160286029 -0.58921671627163 -1.21645284568457
 6  4.12699478847885 -0.41594977127713 -0.56164631363136
 6  5.07585106950695  0.49982624802480 -0.97309708240824
 6  4.88992741574157  1.39085173447345 -2.18227239253925
 6  6.34900923372337  0.77162901310131 -0.17978446364636
 6  7.49173671157116  0.07929758285829 -0.89695664616462
 6  8.90339221182118  0.04373924352435 -0.06534834763476
 6  10.10287091159116 -0.35295236693669 -0.94042501300130
 6  9.88051475167517 -1.84218515461546 -1.48944240924092
 6  11.29022189908991 -0.24820860166017 -0.03070220162016
 6  12.69798470617062 -0.46006005710571 -0.92867289018902
 6  13.87396686508651 -0.14157536033603  0.17275434293429
 6  15.26711283618362 -0.25501923102310 -0.46188442824282
 6  15.60243191209121 -1.78309594339434 -0.85672529022902
 6  16.42562666856686  0.34938929892989  0.42838734593459
 6  17.74638922832283  0.56326772517252 -0.25123093769377
 6  18.68979934943494  1.24006222322232  0.75068550155016
 6  20.13311198039804  1.30802113561356  0.31259602280228
 6  20.35224657845785  2.05604390159016 -1.01824281698170
 6  21.01105203600360  1.80837377367737  1.46356171957196
 1 -3.95688717321732  3.51858738013801  1.28394298119812
 1 -10.11044143684368  3.81572240724072 -0.83084847634764
 1 -10.25113840324032 -2.56270561136114 -1.06982363456346
 1 -2.49440589748975 -0.97997631153115  2.11875256645664
 1 -2.20954455965597  1.44049763236324  1.21578222862286
 1 -1.87496195369537  0.78946939983998  3.38910262376238
 1 -3.05366042604260  2.10591464896490  3.70783294869487
 1 -3.78998244094410  0.55283996799680  3.53415582838284
 1 -1.89840232513251 -1.62867282768277 -0.22028593779378
 1 -2.00917258975898  0.10772802320232 -0.65574561416142
 1 -0.32956647404740  0.43672828672867  0.98301870097010
 1 -0.10732853485349 -1.11380589578958  1.19520347554755
 1 -5.45498427382738  6.64401304540454  0.56796250545054
 1 -5.51056804620462  6.35616897999800  2.28903520062006
 1 -4.45300925692569  5.42210337673767  1.15745892149215
 1 -9.40432248474847  5.84937108520852 -0.60599082728273
 1 -8.93237445334533  8.19181992089209  0.77804742654265
 1 -7.53443290909091  7.27002340184018  1.55831421692169
 1 -11.83646775187519  3.17824815081508 -2.35954895959596
 1 -13.07513718291829  2.19926381758176 -1.66915810731073
 1 -12.36194792589259  3.25467412211221 -0.79004024802480
 1 -12.66416119451945 -1.63603304840484 -1.06137109200920
 1 -13.37090580948095 -0.06584332113211 -1.60361588908891
 1 -13.04009036163616 -1.67747243344334 -3.79528941344134
 1 -12.38574213841384 -0.11788632623262 -3.83682717841784
 1 -11.25575185448545 -1.64794966206621 -3.45291391139114
 1 -9.09983958695870 -4.88760950385039 -1.78983224732473
 1 -8.01186055085508 -5.81983198739874 -0.66329594259426
 1 -9.31377126202620 -5.24125914721472  0.24438261566157
 1 -3.53609430533053 -3.41320457115712 -0.42223749524953
 1 -1.54226239273927 -4.35055149484949  3.28442135743574
 1 -2.76166577517752 -5.57840945854585  3.52676551545155
 1 -1.57808592009201 -6.07153642684268  2.50010396329633
 1  2.68065736983698 -1.59228106400640 -1.47499146414641
 1  2.54833231083108  0.09908418801880 -2.10264341654165
 1  4.21626253185319 -1.03874608980898  0.27925114111411
 1  3.92543150665066  1.31356006640664 -2.74470283998400
 1  5.12461787348735  2.49241950085009 -1.84865133333333
 1  5.76308361596160  1.08115922342234 -2.97717644864486
 1  6.63700576347635  1.70646464646465  0.05870851365136
 1  6.20508462786279  0.19322128472847  0.86011572827283
 1  7.45873325802580 -0.92057129232923 -1.19964128772877
 1  7.94228666456646  0.61057426552655 -1.97252017561756
 1  8.85588764036403  1.11406929192919  0.19836746894689
 1  8.68806729542954 -0.70882638883888  0.66773463716372
 1  10.37357490889089  0.29604214191419 -1.66957184668467
 1  8.95362034753475 -1.69237721422142 -2.12861878667867
 1  10.73397595329533 -2.39500628452845 -1.96856110001000
 1  9.43033591959196 -2.50424236623662 -0.78878831853185
 1  11.36935461636164  0.74099632983298  0.45405689318932
 1  11.23894694809481 -0.98925488678868  0.78934955655566
 1  12.67778109700970 -1.53559172037204 -1.23483115071507
 1  12.82482623512351  0.37008769976998 -1.68483184448445
 1  13.66411784848485  0.87827038303830  0.58907625062506
 1  13.80284303740374 -0.95285489018902  1.03627014351435
 1  15.53853714221422  0.31663114811481 -1.36487084508451
 1  15.60130757365737 -2.49605989808981 -0.07996945084508
 1  14.84106715741574 -2.07589996559656 -1.62671008610861
 1  16.69309893929393 -1.73557908280828 -1.33452492199220
 1  16.11363656435643  1.32191002470247  0.75639218351835
 1  16.68773322052205 -0.38713788888889  1.38409117031703
 1  18.13354429312931 -0.44285083248325 -0.53417675807581
 1  17.59935700020002  1.31435875477548 -1.19710328612861
 1  18.23474426702670  2.11013517121712  1.01032903820382
 1  18.75761292159216  0.65964014501450  1.68741874217422
 1  20.43897881058106  0.17220336853685 -0.07439037503750
 1  20.10908501510151  3.14432799469947 -1.04951854525453
 1  21.48339259135914  1.92853950675068 -1.17050841414141
 1  20.00116402080208  1.39382119291929 -1.79563653265327
 1  21.06769274447445  1.36360446954695  2.57884750195019
 1  22.10055176147615  1.84208543824382  1.27383234953495
 1  20.70215994589459  2.78568865216522  1.51268170867087

