%nproc=4
%Mem=2GB
# td=(NStates=1) CAM-B3LYP/6-31G(d,p) 

TD

0 1
12 -7.07556812981298  0.64247299539954 -0.03033534613461
 6 -4.87539215721572 -1.92862404080408  0.49524605730573
 6 -4.78887881678168  2.82111055835584  1.11220758565857
 6 -9.45040977647765  3.14487998349835 -0.41207406710671
 6 -9.47117743144315 -1.74481999299930 -0.91954838393839
 7 -5.11676510111011  0.45906572467247  0.69279969826983
 6 -4.32551225732573 -0.72493231523152  0.83367139033903
 6 -2.84116312171217 -0.35208463416342  1.31742209640964
 6 -3.15225866426643  1.13888655695570  1.64818554925493
 6 -4.45966296119612  1.56041679047905  1.15185221512151
 6 -2.96979206130613  1.24824711281128  3.20749215811581
 6 -1.87603106410641 -0.47497275867587  0.07838179647965
 6 -0.50164758735874 -0.37766211341134  0.61929605890589
 6  0.55503664086409 -0.64508802170217 -0.50783616411641
 8  0.25277651775178 -1.03446885448545 -1.64568089978998
 8  1.90433224372437 -0.46656405280528 -0.07859464836484
 7 -7.11781222912291  2.61752734253425  0.30126882238224
 6 -6.08626790579058  3.36523749954996  0.76545007860786
 6 -6.50166741984198  4.84759904930493  0.77464815201520
 6 -7.77834054105411  4.84010464196420  0.40548894019402
 6 -8.17850212181218  3.54237343264326  0.03605615191519
 6 -5.53878183488349  5.83788625452545  1.12354711521152
 6 -8.66384418201820  6.02400343404340  0.22866985238524
 6 -8.56285017631763  7.17327344594459  0.88440469026903
 7 -9.00804307690769  0.72552541364136 -0.48925295899590
 6 -9.86349260896089  1.78277823092309 -0.62860918501850
 6 -11.17685678227823  1.41824016311631 -1.17125884538454
 6 -11.21172357625763  0.11796716081608 -1.29527824182418
 6 -9.91211689238924 -0.43741571587159 -0.90089510561056
 6 -12.22867169086909  2.47074764576458 -1.41174794959496
 6 -12.35666021232123 -0.79185659575958 -1.73645445394539
 6 -12.06528401680168 -1.01217362856286 -3.17928304690469
 7 -7.23305277357736 -1.38052766636664 -0.13196787378738
 6 -8.27496773657366 -2.21356652875287 -0.54907986318632
 6 -7.80161630723072 -3.60446871437144 -0.52740001730173
 6 -6.47235111921192 -3.56305064206421 -0.12982471437144
 6 -6.17161975837584 -2.14940322162216  0.07591039523952
 6 -8.61112858025803 -4.73251609400940 -0.86845532393239
 6 -5.33654812511251 -4.29725360886089  0.23347622022202
 8 -5.23992283018302 -5.53349783318332  0.24361139183918
 6 -4.24065764516452 -3.33959974977498  0.57148701400140
 6 -3.57998862976298 -3.67400262156216  1.91676204910491
 8 -3.89435103570357 -3.18870560676068  3.06832951405140
 8 -2.70027122082208 -4.69269399179918  1.71425000590059
 6 -2.18745933383338 -5.26013024212421  2.90068500400040
 6  2.83326583828383 -0.76201399599960 -1.14141534193419
 6  4.14527661666167 -0.55905408170817 -0.52142229122912
 6  5.19519300370037  0.14044030943094 -1.13901367406741
 6  5.14535295829583  1.00495314461446 -2.30193435873587
 6  6.46984131693169  0.22461431163116 -0.40287677287729
 6  7.67905544344434 -0.30050039693969 -1.08969592009201
 6  8.93262513511351 -0.24826995739574 -0.17555936873687
 6  10.28014863936394 -0.71002807450745 -0.88666963746375
 6  10.10989768996900 -2.27848878497850 -1.08138160316032
 6  11.51142401930193 -0.33089687048705 -0.01914104550455
 6  12.88357326502650 -0.43935798689869 -0.70596061896190
 6  13.97014648304831 -0.13793499629963  0.14867193469347
 6  15.31796792169217 -0.13084681378138 -0.55878411821182
 6  15.72055372427243 -1.58710634443444 -0.95665528322832
 6  16.35978008390839  0.46663102310231  0.37283179037904
 6  17.76770135953595  0.78090948934893 -0.16769258385839
 6  18.69588995849585  1.39753797079708  0.77812824582458
 6  20.17457612681268  1.46525685918592  0.30751551475148
 6  20.33781513531353  2.16007430463046 -1.07192818551855
 6  21.04564549534954  2.03983691999200  1.25787115051505
 1 -4.12399388388839  3.55881140254025  1.46288087498750
 1 -10.07436782948295  3.91217205220522 -0.74706009750975
 1 -10.24037732713271 -2.44943428422842 -1.11733838603860
 1 -2.60346680358036 -0.94348266216622  2.11724241544154
 1 -2.60389399459946  1.74586816941694  1.15460611101110
 1 -2.01910636813681  0.87524797769777  3.44117783128313
 1 -3.12759781978198  2.19326338383838  3.44131629702970
 1 -3.88484192689269  0.78766345034503  3.88730114291429
 1 -2.16397888278828 -1.43811377177718 -0.46547045624562
 1 -2.00959263176318  0.30384763516352 -0.49052909250925
 1 -0.25531904930493  0.79361397529753  0.89597999709971
 1 -0.30267806980698 -1.05370988618862  1.52414636983698
 1 -5.64784355975598  6.77048569266927  0.40878658785879
 1 -5.62511950135013  6.32088545164517  2.32891918901890
 1 -4.58432238823882  5.48217938433843  1.23941711731173
 1 -9.71340339283928  5.82275842394239 -0.39252948114811
 1 -9.28523973987399  8.00200093899390  0.81301092289229
 1 -7.60353981978198  7.33681008050805  1.57221560706071
 1 -12.10015412051205  3.04432475847585 -2.06316932163216
 1 -13.00673034223422  1.85074896609661 -1.94015520702070
 1 -12.50115184628463  3.05789444414441 -0.32242348634863
 1 -12.31829660806081 -1.70873031813181 -1.20075503040304
 1 -13.34825354425442 -0.30466720352035 -1.39284481198120
 1 -12.84551090369037 -1.66813149934993 -3.65304518901890
 1 -12.08852241644164 -0.11406594419442 -3.87278077377738
 1 -11.04220049934993 -1.57517238433843 -3.29158777877788
 1 -8.93484308730873 -4.68796953985399 -1.91805506960696
 1 -8.08790815561556 -5.68943894809481 -0.65656526952695
 1 -9.61030091499150 -4.71473649494949 -0.35443726632663
 1 -3.57469816571657 -3.47595084578458 -0.25294056555656
 1 -1.27538570507051 -4.61319775947595  3.28724163946395
 1 -2.83734334293429 -5.24409602720272  3.80154299319932
 1 -1.74439255075508 -6.35321459465947  2.61828578147815
 1  2.69314861896190 -1.66402823872387 -1.46136010101010
 1  2.61779925752575 -0.03896961736174 -2.00811396359636
 1  4.35859676527653 -1.16093830903090  0.44449766576658
 1  4.05727469096910  0.83054176457646 -2.66232460216022
 1  5.08791420312031  1.96808706760676 -1.98092456065607
 1  5.96176348394839  1.01452255975598 -3.12090082108211
 1  6.80129219211921  1.40353435343534 -0.39040639783978
 1  6.46504062346235 -0.31329936733673  0.45920563726373
 1  7.31339872457246 -1.44961419661966 -1.33472479607961
 1  7.81223365926593  0.23377658575858 -2.00559348294829
 1  8.92688474007401  0.67705559055906  0.28304593679368
 1  8.86616510521052 -0.63246875307531  0.91824968866887
 1  10.13765131653165 -0.21696915921592 -1.83916880638064
 1  8.99103408890889 -2.30997897439744 -1.50806673147315
 1  10.72338489418942 -2.65128191209121 -1.79157340124012
 1  10.29445233123312 -2.83451539353935 -0.02910234993499
 1  11.42378005890589  0.71576380658066  0.35301678917892
 1  11.52645569896990 -1.07407336863686  0.73222384398440
 1  12.89459277817782 -1.44446260746075 -1.23124079167917
 1  12.64975872837284  0.13931462246225 -1.68697205850585
 1  13.71357279397940  0.96322887888789  0.45883322632263
 1  14.33273602670267 -0.73287289198920  1.08481499799980
 1  15.27951123962396  0.49901938693869 -1.49469382738274
 1  15.79251669456946 -2.43323361546155 -0.03570502440244
 1  14.99639268996900 -1.87709008460846 -1.60795821092109
 1  16.59790942034203 -1.78161368626863 -1.52502397189719
 1  16.05053025372537  1.59854768846885  0.82710925522552
 1  16.36200064726473 -0.24895407050705  1.29749251045105
 1  18.07209814851485 -0.15458200560056 -0.69757309770977
 1  17.82393945844585  1.36119343824382 -1.12215579137914
 1  18.41196198879888  2.31615577327733  1.08470647594759
 1  18.69662682298230  0.76006018701870  1.76052605290529
 1  20.35286019871987  0.34076022422242  0.31486855085509
 1  19.87066117271727  3.15906946884688 -0.85805939933993
 1  21.44539879197920  2.23835048784878 -1.29784114741474
 1  19.94907881228123  1.73347515831583 -1.80018698769877
 1  21.08104407960796  1.37658576767677  2.22440205740574
 1  22.16424813111311  2.02248347804780  0.87165213151315
 1  20.78369809970997  3.03889397269727  1.28739918041804

