%nproc=4
%Mem=2GB
# td=(NStates=1) CAM-B3LYP/6-31G(d,p) 

TD

0 1
12 -7.14076464946495  0.55079382748275  0.09931761916192
 6 -4.85153977197720 -1.93074425282528  0.59356588928893
 6 -4.84651458035804  2.85371381868187  1.16110247514751
 6 -9.40779551505151  3.16493198869887 -0.53631649134913
 6 -9.45757607130713 -1.72944845584558 -0.79191562066207
 7 -5.04696812141214  0.37767758585859  0.76839725802580
 6 -4.33904361046105 -0.74811463346335  0.91836986018602
 6 -2.96914591999200 -0.44144357005701  1.21898225242524
 6 -3.07889132753275  1.11348401670167  1.70190092079208
 6 -4.40006700160016  1.53195394419442  1.18538556845685
 6 -3.06675175727573  1.34376666476648  3.23397480638064
 6 -2.03373683468347 -0.55872113351335 -0.01315735743574
 6 -0.55457287988799 -0.26392073927393  0.41553568286829
 6  0.44815595279528 -0.56777028992899 -0.69792517301730
 8  0.14647588768877 -1.07958336593659 -1.76395272697270
 8  1.72867467796780 -0.25395279167917 -0.32073886278628
 7 -7.16084653255326  2.57505309510951  0.27916661216122
 6 -6.09472875187519  3.28134911071107  0.80289382298230
 6 -6.43905115821582  4.67130141954195  0.82852353955396
 6 -7.72265497249725  4.83775440694069  0.28251664296430
 6 -8.12162643424342  3.50941013631363 -0.07145459915992
 6 -5.49556751345135  5.83403586948695  1.32260702120212
 6 -8.53679147674767  6.07659869356936 -0.00911392599260
 6 -8.30801469276928  7.17411352995300  0.76224247404740
 7 -9.12931520412041  0.67508036913691 -0.53437747144714
 6 -9.88267452715271  1.81210116321632 -0.66071239533953
 6 -11.19070816741674  1.41380972007201 -1.11658337783778
 6 -11.29771217511751  0.03708907300730 -1.18549726372637
 6 -9.97048272897290 -0.38128010231023 -0.85522053815382
 6 -12.25768459215922  2.47927849884988 -1.38308508330833
 6 -12.37711225752575 -0.82459987008701 -1.50726153465347
 6 -12.39404689308931 -1.20484289548955 -3.06433155175518
 7 -7.12935240354035 -1.41382099569957 -0.16374105110511
 6 -8.22772301210121 -2.25299047114711 -0.58404335953595
 6 -7.84463060866087 -3.65605387288729 -0.45081235853585
 6 -6.45026891099110 -3.60980531753175 -0.03814554645465
 6 -6.12137473387339 -2.23135141644164  0.11871467566757
 6 -8.72611007840784 -4.77353019541954 -0.97575605400540
 6 -5.21373584388439 -4.37422130563056  0.18719159175918
 8 -5.17798663656366 -5.60193467686769  0.26109314001400
 6 -4.17419099849985 -3.35664145394539  0.54454431973197
 6 -3.48633926482648 -3.67622284358436  1.90724109700970
 8 -3.62458405900590 -3.03050978717872  2.94677735883588
 8 -2.59350054375438 -4.69273399579958  1.76108468936894
 6 -2.10820140804080 -5.23485771487149  2.94484942044204
 6  2.69215172687269 -0.51416921152115 -1.28930013041304
 6  4.06760884988499 -0.35176335263526 -0.67341749074908
 6  5.16963044744474  0.36197246264626 -0.98924869756976
 6  5.09782820582058  1.31751440074007 -2.22799696499650
 6  6.40094442724272  0.39077092729273 -0.25428191339134
 6  7.68738627652765 -0.15728607550755 -1.10114706520652
 6  8.89019089168917 -0.21687681808181 -0.20852266506651
 6  10.16853747824782 -0.62153922562256 -0.98084905540554
 6  10.04891159135913 -2.15175611171117 -1.42231569656966
 6  11.41935481238124 -0.39083286408641 -0.10542967436744
 6  12.75880078777878 -0.53891794289429 -0.78861888478848
 6  13.97864733313331 -0.22019322212221  0.14571163866387
 6  15.38284440934093 -0.24717844694469 -0.44634287408741
 6  15.74267593649365 -1.73673130693069 -0.83400301800180
 6  16.38675278117812  0.40184454445445  0.49454396159616
 6  17.82208679807981  0.50365176357636 -0.08864467906791
 6  18.77873824332433  1.41946016301630  0.77492792579258
 6  20.18810747994799  1.41947228072807  0.37378214141414
 6  20.55799715351535  2.05670396759676 -0.98319931263126
 6  21.03482441324132  2.03256619291929  1.47901326472647
 1 -4.20324180868087  3.57597311871187  1.40737532443244
 1 -10.00740113281328  4.01078191319132 -0.47104249574958
 1 -10.27060034943494 -2.34413375417542 -0.82190884308431
 1 -2.64620107700770 -0.92677099099910  2.06676736793679
 1 -2.20646425162516  1.63458704130413  1.17357800820082
 1 -2.25440989848985  0.79782023492349  3.78728244174417
 1 -2.93673873387339  2.51157521502150  3.35527769316932
 1 -4.05587903060306  1.02269695369537  3.79421183398340
 1 -2.20057254215422 -1.58144810521052 -0.47684159335934
 1 -2.36367804030403  0.20195744614461 -0.65832587218722
 1 -0.33917743514351  0.89302391629163  0.58702910201020
 1 -0.18663646564656 -0.94955947114711  1.13443739893989
 1 -5.54039281468147  6.66491513561356  0.54989069826983
 1 -5.73520050945094  6.03725708880888  2.35344164126413
 1 -4.44236819281928  5.64714588098810  1.24409758535854
 1 -9.31107315981598  5.83842999109911 -0.72697292549255
 1 -8.75385660156016  8.17155789468947  0.53173279507951
 1 -7.53354282008201  7.19552595209521  1.65196358185819
 1 -12.11074517961796  3.37844817081708 -2.03632663736374
 1 -13.13916358555855  1.89946383758376 -1.80624181568157
 1 -12.80101183228323  3.21206986168617 -0.49212045604560
 1 -12.48122290069007 -1.57163660876088 -0.74631958685869
 1 -13.21001972087209 -0.20731746854685 -1.32778830633063
 1 -13.44118047064707 -1.71009569576958 -3.32384226872687
 1 -11.95288885308531 -0.27548208580858 -3.49990348604860
 1 -11.31234751405140 -1.83505837293729 -3.32953157315732
 1 -8.74489409240924 -4.72562330523052 -2.07741100520052
 1 -8.24666403120312 -5.80665066926693 -0.64378399139914
 1 -9.94794467936794 -4.58598361966197 -0.47389921252125
 1 -3.37571826772677 -3.49448269896990 -0.19592486398640
 1 -1.52398056455646 -4.33385982568257  3.42077499279928
 1 -2.94118372697270 -5.64954657225723  3.54518735763576
 1 -1.41173928542854 -5.86665593879388  2.68186213911391
 1  2.55900520462046 -1.46547838373837 -1.61542550755075
 1  2.57166464406441  0.16819109870987 -2.15397855005501
 1  4.07994890049005 -0.94366658185819  0.26275949194919
 1  4.14356331983198  1.64356306670667 -2.74516288598860
 1  5.65088049974998  2.13647390629063 -1.96612308050805
 1  5.64274158175818  0.70923203070307 -3.07983671467147
 1  6.70996305920592  1.24914891489149  0.19503214601460
 1  6.10646476587659 -0.46327436483648  0.63101281798180
 1  7.52635001970197 -1.19238847404741 -1.51940326392639
 1  7.69421185708571  0.51342455055506 -1.91579450305031
 1  9.06563861546154  0.77763564856486  0.35735336753675
 1  8.77052554125413 -0.82995850205021  0.69090695439544
 1  10.15396294769477  0.03774631233123 -1.76007089658966
 1  9.20105509100910 -2.46967494399440 -2.03047897269727
 1  11.09853240894089 -2.49396618051805 -1.78916316021602
 1  9.93159604560456 -2.72274421642164 -0.56861630133013
 1  11.55559324022402  0.62573480368037  0.21213270077008
 1  11.37066011941194 -1.03676963826383  0.91646226782678
 1  12.96778009690969 -1.63773193439344 -0.94156182378238
 1  13.08246199869987  0.08585927692769 -1.54742810411041
 1  13.84737617431743  0.91068362436244  0.57551489448945
 1  13.91864461756176 -0.90602020672067  0.98931544804480
 1  15.56844013251325  0.45426491149115 -1.38366272427243
 1  15.53807125002500 -2.33207349944994  0.11491003710371
 1  15.05629868056806 -2.20370274587459 -1.67834524962496
 1  16.78901853125313 -1.68718424332433 -1.19526099559956
 1  16.10857605830583  1.52803063676368  0.57258380268027
 1  16.39782422962296  0.11872269716972  1.43284604580458
 1  18.44715565426543 -0.59526607400740  0.00249690929093
 1  17.85038210271027  0.74122144104410 -1.26473004880488
 1  18.43280407300730  2.60323448114811  0.74440244554455
 1  18.74872203250325  0.90033421442144  1.82898289858986
 1  20.50098501120112  0.26417256545655  0.23078014201420
 1  20.09591369796980  2.94784834673467 -1.17429102250225
 1  21.55027928002800  2.06758341114111 -0.97516888018802
 1  20.30388429282928  1.63750556135614 -1.98732570157016
 1  21.22850882608261  1.46813492259226  2.33877349454945
 1  22.05596730303030  2.45765699539954  1.12017698399840
 1  20.49020875077508  3.19273935723572  1.72416285678568

