%nproc=4
%Mem=2GB
# td=(NStates=1) CAM-B3LYP/6-31G(d,p) 

TD

0 1
<<<<<<< HEAD
12 -7.15972654565457  0.65448419651965  0.14848253565357
 6 -4.86353097109711 -1.98146932533253  0.40001653435344
 6 -4.81856178507851  2.87726617391739  1.15043140804080
 6 -9.34498923442344  3.17391288678868 -0.47841070077008
 6 -9.49933024672467 -1.72057756875688 -0.86318274737474
 7 -5.08896232083208  0.45097491559156  0.83847426572657
 6 -4.31275098119812 -0.69386920892089  0.69078710191019
 6 -2.94859386478648 -0.44612403810381  1.25242559675968
 6 -2.95565900430043  1.02462513081308  1.69733046374637
 6 -4.32620961586159  1.50092084088409  1.13698072797280
 6 -2.94394947704770  1.18951123922392  3.13162457135714
 6 -1.99939340034003 -0.72655791719172  0.08740269856986
 6 -0.45306272887289 -0.58755310251025  0.44803893319332
 6  0.46431756895690 -0.71968548144815 -0.58633401390139
 8  0.14094533463346 -1.11619702730273 -1.68768510021002
 8  1.68115992649265 -0.57330472687269 -0.19495628452845
 7 -7.09811025892589  2.57584317411741  0.32359105460546
 6 -6.00819009800980  3.27458843464346  0.76529006260626
 6 -6.39662691579158  4.70316460586059  0.85216590379038
 6 -7.68145085208521  4.81668229972997  0.31118951025103
 6 -8.13321759335934  3.48709790509051  0.02535508180818
 6 -5.47060501720172  5.86515898179818  1.17246200670067
 6 -8.51508930653065  6.10181121482148  0.17465445084508
 6 -8.41545543684368  7.28304442304230  0.87162341214121
 7 -9.16116838943894  0.66185904700470 -0.48637267096710
 6 -9.85248150785078  1.82003195629563 -0.65339166326633
 6 -11.15664476107611  1.47388572767277 -1.19144086358636
 6 -11.19104150805081  0.15798116221622 -1.31233994799480
 6 -9.87612329302930 -0.43032500680068 -0.88524354045405
 6 -12.19774859855985  2.42902347334733 -1.52027880268027
 6 -12.29317386368637 -0.71041845194519 -1.82802361086109
 6 -12.30341783018302 -0.98542095329533 -3.45483060166017
 7 -7.22629209750975 -1.30808042164216 -0.16676135313531
 6 -8.31988222802280 -2.18303347544754 -0.50050500570057
 6 -7.88699484508451 -3.62955122262226 -0.40185746304630
 6 -6.57189107320732 -3.59688402540254 -0.02158389028903
 6 -6.15680827722772 -2.15638391969197  0.07667047124712
 6 -8.70324779217922 -4.79158200060006 -0.72639111751175
 6 -5.36741121142114 -4.34572845634563  0.19754262686269
 8 -5.12854169206921 -5.55126961036104  0.05438246894689
 6 -4.19513309270927 -3.34276006580658  0.48364823012301
 6 -3.71595222612261 -3.68010323162316  1.85505587848785
 8 -3.91418301890189 -3.06662339853985  2.86999968106811
 8 -2.96344753845385 -4.79988471087109  1.82452103300330
 6 -2.25143573147315 -5.14504873397340  3.09432436793679
 6  2.81653416511651 -0.84145193979398 -1.19873107350735
 6  4.10754284328433 -0.45012318861886 -0.50570071907191
 6  5.19039252365236  0.11003726912691 -0.84512428512851
 6  5.13059148214821  0.93964661396140 -2.04739890519052
 6  6.39434376717672  0.36190804100410 -0.06467295249525
 6  7.62907044494449 -0.26504685158516 -0.80643759425943
 6  8.98527039963996 -0.07930306070607 -0.03581539433943
 6  10.19784040854085 -0.68843591529153 -0.74738570907091
 6  10.06825352555255 -2.16887782388239 -1.08019148414841
 6  11.49232210911091 -0.28016179697970 -0.05235436683668
 6  12.86483139083908 -0.48283233433343 -0.77867789068907
 6  13.95307477587759 -0.01993319611961  0.04434150165017
 6  15.35859198409841 -0.10588431753175 -0.57805604540454
 6  15.73302497139714 -1.53657129092909 -0.90767038473847
 6  16.47955206110611  0.45658001800180  0.28814332153215
 6  17.85905049444944  0.69472087048705 -0.22336815141514
 6  18.84507487698770  1.44808302530253  0.63407384038404
 6  20.18899756895690  1.48828916241624  0.15146991019102
 6  20.34247560136014  2.34829312651265 -1.11627261996200
 6  21.23641457225723  1.93285622192219  1.24782014541454
 1 -3.97701918641864  3.63171869326933  1.30019460636064
 1 -9.86919731243124  4.06740757575758 -0.66835222672267
 1 -10.37331062046205 -2.35486482728273 -1.22255890809081
 1 -2.63927038393839 -0.91132944684468  2.10848153935394
 1 -2.34068767396740  1.64262784538454  1.27844849524952
 1 -2.14651910941094  0.76773722662266  3.43708742224222
 1 -2.83084814481448  2.18276233373337  3.52720488588859
 1 -3.65316875957596  0.61425610961096  3.38851126392639
 1 -1.97773025792579 -1.65173513391339 -0.28899280848085
 1 -2.09107077957796  0.18220547094709 -0.70564060366037
 1 -0.19615313271327  0.54077869176918  0.89249964906491
 1 -0.37739554155416 -1.43204771997200  1.23222717791779
 1 -5.87857663306331  6.79468811291129  0.71156686588659
 1 -5.42165915531553  6.18938230133013  2.02106840394039
 1 -4.48253220922092  5.64891605800580  0.81987516311631
 1 -9.32910496299630  6.04473062116212 -0.69456968516852
 1 -9.02071328722872  8.20318105700570  0.61654127592759
 1 -7.77720718651865  7.25250164966497  1.95387377287729
 1 -12.00712481758176  2.97640796679668 -2.32846585128513
 1 -13.24921459065907  2.01132502370237 -1.53803499499950
 1 -12.24032576367637  2.97550620532053 -0.58930017401740
 1 -12.41861664006401 -1.65394483958396 -1.40617557245725
 1 -13.16018473737374 -0.26196293309331 -1.50737626512651
 1 -13.14385073767377 -1.36155084128413 -3.83555343984398
 1 -12.57096066026603 -0.04884942254225 -3.82944644034403
 1 -11.44114039333934 -1.40796566366637 -3.69248786878688
 1 -9.08703830683068 -4.80474121702170 -1.79600286438644
 1 -8.05846521132113 -5.55866587078708 -0.59145875887589
 1 -9.63998388328833 -4.96259128042804  0.07062523992399
 1 -3.33222391829183 -3.57719096979698 -0.24454972647265
 1 -1.97456562306231 -4.20237667736774  3.62421533683368
 1 -2.98611822042204 -5.89141075867587  3.67170000890089
 1 -1.44588269976998 -5.65211448464847  2.71381533443344
 1  2.83828313241324 -1.76751858775878 -1.48651261626163
 1  2.56190366796680 -0.43290901130113 -2.15331848404840
 1  4.24868577417742 -0.91001321652165  0.47794101010101
 1  4.11531049454945  1.23876258665867 -2.39229759945995
 1  5.51673708540854  2.02719297819782 -2.07281374957496
 1  5.72987029462946  0.48175928342834 -2.78904763576358
 1  6.65201726462646  1.33134713471347  0.03067571037104
 1  6.25577969736974 -0.08690672807281  0.96504622132213
 1  7.44348173287329 -1.31190042524252 -1.23632495609561
 1  7.61477391329133  0.35618882698270 -1.54923784738474
 1  9.34487653925392  1.10654853985399  0.20291792399240
 1  8.90794928362836 -0.69704521072107  0.93945180888089
 1  10.25182273367337 -0.17268473077308 -1.70612550205020
 1  9.15450043554355 -2.39416739323932 -1.73049897469747
 1  10.95279783548355 -2.56692347624762 -1.66258050195019
 1  9.81521440744075 -2.65965790779078 -0.18291773147315
 1  11.63245092599260  0.95906813701370  0.25265675317532
 1  11.56494954835484 -0.90530649194919  0.88773939553955
 1  12.86283960286029 -1.56893505470547 -0.98063573117312
 1  13.00475422792279  0.28073876487649 -1.88539190049005
 1  13.69827126382638  1.04135669166917  0.31393873687369
 1  14.06754950805080 -0.54801440614061  1.04089060556056
 1  15.42837612611261  0.47845733073307 -1.49203356135614
 1  15.82110955385539 -2.18233852595259 -0.10768222212221
 1  14.98566161686169 -2.02023439903990 -1.55603301840184
 1  16.45953558295830 -1.66006153105311 -1.57499896939694
 1  16.10493569426943  1.59860769446945  0.52116866116612
 1  16.46678112531253  0.00215104000400  1.10805356655666
 1  18.14838577727773 -0.28923547094709 -0.45349869026903
 1  17.98022508700870  1.22274959385939 -1.32658623442344
 1  18.42850364296430  2.46368052575258  0.78939694499450
 1  19.03684084438444  1.08491267226723  1.81397139743974
 1  20.62470738343834  0.57529367756776 -0.04997793379338
 1  20.32204631123112  3.48420198209821 -0.67461105450545
 1  21.47162141424143  2.21850850365037 -1.39263062636264
 1  19.68802270667067  2.06931874267427 -2.03689065806581
 1  20.93830980618062  1.37330543964396  2.07799741694169
 1  22.29277098339834  1.82653388308831  1.00951591789179
 1  20.93041277117712  3.03420350365036  1.66242668316832
=======
12 -7.24075464846485  0.60841959005901  0.13608129552955
 6 -4.83444806280628 -1.89757093549355  0.50304683738374
 6 -4.86142607150715  2.84357280458046  1.18053441834183
 6 -9.43082781828183  3.02879837533753 -0.36907976767677
 6 -9.56168648234824 -1.79467497849785 -0.86269269836984
 7 -5.10434385898590  0.48151796989699  0.70231064936494
 6 -4.36524623072307 -0.71873169516952  0.83359138233823
 6 -2.80518952435244 -0.36408583428343  1.19817017121712
 6 -3.05825926432643  1.09198186648665  1.76070680138014
 6 -4.43491048594859  1.50680142894289  1.16244327422742
 6 -2.99196427852785  1.17329961806181  3.24641605050505
 6 -1.87431089208921 -0.59708496989699 -0.06250229192919
 6 -0.44264168676868 -0.36693104030403  0.45438956825683
 6  0.49933107030703 -0.57629114201420 -0.59063444394439
 8  0.28820006010601 -1.05724113171317 -1.73671000270027
 8  1.86294810531053 -0.44421181758176 -0.19416620552055
 7 -7.15309575747575  2.62287787758776  0.33503219871987
 6 -6.11281056005601  3.37428840464046  0.71969550315032
 6 -6.40043729682968  4.82395668506851  0.72451313851385
 6 -7.74368707570757  4.90605123662366  0.37303569486949
 6 -8.23419769136914  3.56360555585559  0.10387293359336
 6 -5.45530348704871  5.90878334423442  1.13567832833283
 6 -8.64052184978498  6.04452548624863  0.23759074447445
 6 -8.63573746504651  7.25025114371437  0.86640289008901
 7 -9.10773304590459  0.65185804690469 -0.51840587428743
 6 -9.86567282698270  1.77176712981298 -0.75497182128213
 6 -11.21411050765076  1.47979631873187 -1.16562828232823
 6 -11.23338574247425  0.08670403450345 -1.36341505550555
 6 -9.90633631433143 -0.44764673897390 -0.96856187228723
 6 -12.26517534123412  2.48954952595260 -1.63458023282328
 6 -12.39748429472947 -0.77203461356136 -1.67236804530453
 6 -12.37311479987999 -1.15459787098710 -3.19730484908491
 7 -7.27769723802380 -1.39811942554255 -0.15380005700570
 6 -8.29919015881588 -2.27720289238924 -0.52451740694069
 6 -7.87455360096010 -3.64345261276128 -0.44593187048705
 6 -6.42139602370237 -3.45366970397040 -0.16050778267827
 6 -6.23576617301730 -2.18107638893889 -0.03717091289129
 6 -8.72862032943294 -4.87672051445145 -0.75182366076608
 6 -5.28381285158516 -4.34155803930393  0.15241811441144
 8 -5.32404124202420 -5.54853933733373  0.25486251695170
 6 -4.12477605700570 -3.35935172497250  0.61499136443644
 6 -3.51884251515152 -3.69067428872887  1.94677505040504
 8 -3.79228082868287 -3.14768150435044  3.02614529562956
 8 -2.70107130083008 -4.75393011541154  1.82983156405641
 6 -2.26199678757876 -5.31570579967997  3.08504343984398
 6  2.93440595229523 -0.65223301790179 -1.20593179357936
 6  4.26146823582358 -0.36711488778878 -0.54457460646065
 6  5.22724620902090  0.46019228462846 -0.94915468816882
 6  5.14663308630863  1.39638228752875 -2.11887605290529
 6  6.45932026482648  0.52737458765877 -0.29262574777478
 6  7.65625316321632 -0.11485183208321 -0.99528647914791
 6  9.04101597419742 -0.11155628602860 -0.25370718351835
 6  10.24513513801380 -0.61694876657666 -0.92035300580058
 6  10.14218091829183 -2.04451538763876 -1.36654011901190
 6  11.39069194609461 -0.37092087288729  0.03487435603560
 6  12.77154206190619 -0.61225527662766 -0.55444546744674
 6  14.04408387678768 -0.31039224202420  0.27092415991599
 6  15.42052817771777 -0.28041177027703 -0.42311055085509
 6  15.89817148604861 -1.64119175297530 -0.89495911361136
 6  16.43017712361236  0.35615997599760  0.49469397659766
 6  17.78142273167317  0.56890828922892 -0.16754256885689
 6  18.87309767926793  1.21834005100510  0.80897133013301
 6  20.26322499169917  1.34910524402440  0.16196095929593
 6  20.27416877067707  2.12204050125013 -1.26234722742274
 6  21.07746867766777  2.07947088338834  1.23144850825082
 1 -4.04664614911491  3.57046256765677  1.41105569246925
 1 -10.19755014771477  3.77896873187319 -0.43703909540954
 1 -10.29314260366037 -2.43129247004700 -0.98188484068407
 1 -2.69926638353835 -1.06748506240624  2.00512120332033
 1 -2.09865347054705  1.62868645124513  1.14875552595260
 1 -2.05755021252125  0.85302575547555  3.77740145364536
 1 -3.26791185118512  2.10160421792179  3.72877504290429
 1 -3.89048249094909  0.66579126312631  3.48685109790979
 1 -1.87522000690069 -1.63680364076408 -0.41608551775178
 1 -1.94414608710871  0.13759100950095 -0.82682272187219
 1 -0.10936445384538  0.65147976187619  0.86185658475848
 1 -0.38893669566957 -1.18888340354035  1.14840879607961
 1 -5.51429020442044  6.95092373647365  0.42436814601460
 1 -5.90320731013101  6.08581194429443  2.23280957805781
 1 -4.41699565556556  5.55270643704370  0.94364754035404
 1 -9.41314336683668  6.03173932203220 -0.47868809700970
 1 -9.51870308620862  8.05300603950395  0.79436905870587
 1 -7.89992945874587  7.41410781028103  1.58306669216922
 1 -11.96081018611861  3.29173949994999 -2.64435744044404
 1 -13.28524819401940  1.96250014121412 -1.96326751825182
 1 -12.71090282138214  2.94867352205220 -0.64925616961696
 1 -12.24332911131113 -1.89114855995600 -1.11637659255926
 1 -13.32560127902790 -0.26661339813981 -1.70024555205520
 1 -13.29942629522952 -1.52071675787579 -3.58102798729873
 1 -12.17982154635464 -0.10716525412541 -3.70915441114111
 1 -11.61030731003100 -1.80510537763776 -3.54918353835384
 1 -8.73685328832883 -5.16449719261926 -1.96233949804981
 1 -8.11336070087009 -5.70416042024202 -0.30062967596760
 1 -9.94486437133713 -5.00938595989599 -0.53288511111111
 1 -3.26485718161816 -3.35151840254026  0.00759548804880
 1 -1.63534170067007 -4.50816725642564  3.48451136643664
 1 -3.06524613321332 -5.62443406100610  3.58488132703270
 1 -1.74916302780278 -6.19475874907491  2.77485143804380
 1  2.83716302040204 -1.66878871477148 -1.71921588658866
 1  2.98547602520252  0.03625790539054 -2.10588374057406
 1  4.47060796639664 -1.10067228242824  0.12259547554755
 1  4.13832279577958  1.34069277967797 -2.48653702340234
 1  5.34712012371237  2.38407866676668 -1.95681214941494
 1  5.61777908550855  1.03628473597360 -2.95325405640564
 1  6.81989405230523  1.65766976697670  0.07423006580658
 1  6.53287740714071 -0.13429146654666  0.77455717241724
 1  7.27417480218022 -1.11508074327433 -1.40065138873887
 1  7.98368080398040  0.46558976707671 -1.86300922452245
 1  9.11234328592859  0.93745163016302  0.22450008220822
 1  8.80466895559556 -0.61124663086309  0.80767863156316
 1  10.52136968836884 -0.13200066236624 -1.88004289378938
 1  9.08544352985298 -2.17114509100910 -1.88266419121912
 1  11.04369692539254 -2.37163394729473 -2.11113535743574
 1  9.81240412641264 -2.65893783578358 -0.55612505220522
 1  11.44701238213821  0.40321255145515  0.53966545404540
 1  11.16655970937094 -1.22917887918792  0.84873549514951
 1  12.90738405730573 -1.56245440664066 -0.82328999659966
 1  12.94416816931693  0.25883657465747 -1.41378473977398
 1  13.93603504020402  0.81297385338534  0.58566590959096
 1  14.07518027112711 -0.88691829652965  1.23279979647965
 1  15.32441573007301  0.11331081608161 -1.42253661166117
 1  15.90286772967297 -2.32919321142114 -0.08326978087809
 1  15.44330738143814 -2.10092246784678 -1.85339275437544
 1  16.88694832423242 -1.73568909380938 -1.38867033653365
 1  15.96017121782178  1.26255408910891  0.82775932023202
 1  16.46125057225722 -0.03790296539654  1.37174993619362
 1  18.20804174287429 -0.48809535693569 -0.61607494789479
 1  17.65400246474648  1.44152147104711 -0.94612818861886
 1  18.59471026362636  2.06145030273027  1.08786679197920
 1  18.94057121742174  0.58890307130713  1.82540254055406
 1  20.74662957565756  0.47090323852385  0.06551361536154
 1  19.96288039463946  3.10584414631463 -1.01612520592059
 1  21.26928118021802  2.18127478027803 -1.67195855915592
 1  19.77831173557356  1.59493130393039 -2.03376034503450
 1  20.81602757795779  1.92849095819582  2.37622723992399
 1  22.27255896219622  2.30585181488149  1.08241320762076
 1  20.64505423532353  3.18796888018802  0.94711515201520
>>>>>>> 8e03b5b5abfc0030b3aa597dc0de36371bfbd096

