%nproc=4
%Mem=2GB
# td=(NStates=1) CAM-B3LYP/6-31G(d,p) 

TD

0 1
12 -7.14566513951395  0.61956070417042  0.14304199159916
 6 -4.87160177817782 -1.96362754115412  0.50590712341234
 6 -4.69568949784979  2.78628707600760  1.10382674757476
 6 -9.31197593309331  3.11253674917492 -0.48327118681868
 6 -9.58872918661866 -1.73807931893189 -0.83394982408241
 7 -5.12883630823082  0.42821263936394  0.71977239553955
 6 -4.40632033813381 -0.68373819581958  0.76601462466247
 6 -2.92337134253425 -0.47109653535354  1.12202255645565
 6 -2.95696913531353  1.03152582088209  1.46159689038904
 6 -4.39362635753575  1.49765051385139  1.10146717661766
 6 -2.84687977007701  1.32866515461546  3.04470587948795
 6 -1.83922738373837 -0.70336559795980  0.08793275157516
 6 -0.51377880048005 -0.48220256745675  0.59879400870087
 6  0.53508464566457 -0.66747025992599 -0.45423080358036
 8  0.26048728882888 -1.04659006660666 -1.65004133583358
 8  1.87694950545054 -0.43626102250225 -0.08191498039804
 7 -7.06347679557956  2.65330091989199  0.22540123562356
 6 -5.99043832283228  3.36292726852685  0.63797733133313
 6 -6.33640089318932  4.69968425782578  0.68207889508951
 6 -7.63362606960696  4.84600523202320  0.28708710001000
 6 -8.04130840244025  3.50496969226923 -0.03713116681668
 6 -5.42730068676868  5.84185665156516  1.15520028052805
 6 -8.38337613521352  6.08927996169617  0.04344132953295
 6 -8.33589748104811  7.31449756835684  0.76056230603060
 7 -9.09440171277128  0.68565142624262 -0.48462249594960
 6 -9.86495275497550  1.82358231133113 -0.64165048914891
 6 -11.17019611621162  1.49760809990999 -1.14667638713871
 6 -11.28423082698270  0.14870023412341 -1.11953066706671
 6 -9.85810149084909 -0.38842081638164 -0.81338635473547
 6 -12.41438026172617  2.49569014001400 -1.38861563636364
 6 -12.41228577487749 -0.66806421652165 -1.48532934143414
 6 -12.50806829522952 -1.09564197539754 -2.99933505210521
 7 -7.26995646394639 -1.40171978557856 -0.16758143514351
 6 -8.37654789458946 -2.21195636773677 -0.55475043024302
 6 -7.93781992759276 -3.62531079857986 -0.48060533783378
 6 -6.55018890299030 -3.50267460446045 -0.20516224812481
 6 -6.19435203160316 -2.11734001530153  0.12408521272127
 6 -8.75013248064806 -4.83825666806681 -0.86662514091409
 6 -5.39856432673267 -4.35063894739474  0.02617549014901
 8 -5.22388122602260 -5.55530001340134  0.12637966866687
 6 -4.21710528992899 -3.34566035583558  0.45878574387439
 6 -3.47584821572157 -3.73088831013101  1.80586095899590
 8 -3.67008860946095 -3.25720245644564  2.87546022712271
 8 -2.67173836753675 -4.78747346974697  1.62808138903890
 6 -2.16328691659166 -5.29488371747175  2.90335527102710
 6  2.81164367606761 -0.71307910251025 -1.02086328672867
 6  4.09051114011401 -0.46356453275328 -0.46080622962296
 6  5.12764624902490  0.24060032543254 -0.82800257295730
 6  5.06913533653365  0.99829247854786 -2.05794996029603
 6  6.50028436123612  0.43020487068707 -0.18919540474047
 6  7.63640117801780 -0.21978232513251 -0.91395834633463
 6  9.07172904550455  0.00284515411541 -0.21331314411441
 6  10.18241886638664 -0.62237930963096 -0.83068403890389
 6  9.95986268646865 -2.16753768986899 -1.33732719771977
 6  11.41446432333233 -0.42850663146315 -0.05976510791079
 6  12.73252816051605 -0.54006805790579 -0.62513253615362
 6  13.97758722712271 -0.24419562236224  0.24707177467747
 6  15.38197432233223 -0.32125585468547 -0.45232347214721
 6  15.84769643854385 -1.71472910671067 -0.82890250795080
 6  16.37461156705671  0.40691505150515  0.40728523572357
 6  17.79927451685169  0.59166056445645 -0.23118893349335
 6  18.69363973347335  1.48512672967297  0.73826425942594
 6  20.15126379557956  1.60319065256526  0.28198296149615
 6  20.16823817761776  2.21140943814381 -1.11895288798880
 6  21.02593352415242  2.29268220452045  1.22851821522152
 1 -4.01175265976598  3.57510303170317  1.47713230013001
 1 -10.00415080778078  4.05582641764176 -0.73844923642364
 1 -10.23283657305731 -2.55577491829183 -0.95412206440644
 1 -2.70944740164016 -0.99112742664266  2.02131282248225
 1 -2.18901250645065  1.62234581718172  0.94468511891189
 1 -1.76995145264526  0.81812226512651  3.26918063156316
 1 -2.98392345234523  2.31505556305631  3.27739990539054
 1 -3.41286472917292  0.58646333033303  3.64304671747175
 1 -1.81293377827783 -1.77378733913391 -0.26166007520752
 1 -2.05424709720972  0.11121837223722 -0.78688872847285
 1 -0.38119163656366  0.59534414831483  0.99686008510851
 1 -0.21917971997200 -1.32219673487349  1.48318227342734
 1 -5.85130390579058  6.99253789788979  0.94440014921492
 1 -5.52374936433643  5.66680004310431  2.42941923902390
 1 -4.17152110811081  5.71676284268427  0.97774094969497
 1 -9.16316836933694  6.22955910401040 -0.78150837903790
 1 -9.07501871777178  8.10401114001400  0.33030265206521
 1 -7.73417288308831  7.45436183568357  1.65249363486349
 1 -11.93430753585359  2.99677000300030 -2.10060306500650
 1 -13.33784345354535  2.04053794499450 -1.48198939043904
 1 -12.57664939603960  3.22803145784578 -0.52305354935494
 1 -12.67500227862786 -1.57503694879488 -0.86359131403140
 1 -13.25265398429843  0.00791405460546 -1.08107363486349
 1 -13.33652000460046 -1.97946263246325 -3.19148903340334
 1 -12.73875743994400 -0.33297783538354 -3.72956645234523
 1 -11.45331161046105 -1.52699756685669 -3.21903052305231
 1 -9.29758936193620 -4.48080882378238 -1.97318058215822
 1 -8.08488785358536 -5.90732073627363 -0.69240885388539
 1 -9.58813869876988 -4.82719774107411 -0.20197201980198
 1 -3.59419011491149 -3.43702695339534 -0.38190346184618
 1 -1.59647781428143 -4.55549198889889  3.43387630293029
 1 -3.09602921152115 -5.62136375397540  3.51053389228923
 1 -1.39832794429443 -6.01787106030603  2.65151910481048
 1  2.76196550065006 -1.76328816471647 -1.51947591259126
 1  2.58619609720972 -0.22212793319332 -1.97424057625763
 1  4.18443934953495 -0.99883209840984  0.55755897189719
 1  4.04305326882688  1.32603131353135 -2.46658502820282
 1  5.57030244194419  2.21018127702770 -2.01480794899490
 1  5.56846415401540  0.74554566206621 -3.07545627662766
 1  6.49072113501350  1.57938193819382  0.06702934573457
 1  6.59508362776278 -0.01268930633063  0.84932464916492
 1  7.35797318201820 -1.39827906310631 -1.14672599619962
 1  7.49209164506451  0.15282849094909 -2.12409533313331
 1  9.35243729532953  1.04277216221622 -0.10454282208221
 1  8.83707219591959 -0.38887439363936  0.94753261696170
 1  10.40967851925192  0.00757329502950 -1.85092998249825
 1  9.05841082658266 -2.24919289578958 -1.75923184798480
 1  10.86329888558856 -2.41380816471647 -1.68994323822382
 1  9.84605749174917 -2.95095703770377 -0.34435387508751
 1  11.33488116901690  0.66111834203420  0.49429091659166
 1  11.30805385878588 -0.96499246054605  0.98820944254425
 1  12.83516683558356 -1.63363152435244 -0.99849751735174
 1  12.64195794829483  0.00168085908591 -1.62839620092009
 1  13.71320275697570  0.85933848984899  0.36984432743274
 1  13.92111486458646 -0.75920552525252  1.19487600410041
 1  15.49549283778378  0.14048353335334 -1.51792615061506
 1  16.00823826672667 -2.40562085418542  0.20818936503650
 1  15.04375742644264 -2.11815419101910 -1.52321973707371
 1  16.79875950535054 -1.72894841974197 -1.34335580508051
 1  15.94619982068207  1.28268610231023  0.58312485678568
 1  16.48930337753775  0.01403222812281  1.48044080528053
 1  18.37097803650365 -0.30853740114011 -0.51277461786179
 1  17.68927599209921  1.15978329722972 -1.08553212901290
 1  18.15031582418242  2.42634679237924  0.82881088638864
 1  18.62435959625963  0.94765894689469  1.87887788808881
 1  20.55907081978198  0.67308345654565 -0.04151708770877
 1  19.97231133773377  3.24018758065807 -1.15602919631963
 1  21.27348160026003  2.48035468826883 -1.32749411271127
 1  19.59842374677468  1.80033184398440 -1.79582655165517
 1  21.01852782798280  1.88245635473547  2.23250286748675
 1  22.02304401070107  2.27994922462246  1.27931289758976
 1  20.60196992689269  3.26033611691169  1.50758119861986

