%nproc=4
%Mem=2GB
# td=(NStates=1) CAM-B3LYP/6-31G(d,p) 

TD

0 1
12 -7.17666823982398  0.61130987908791  0.08325601300130
 6 -4.82207682568257 -1.92768394679468  0.44459099179918
 6 -4.76781671057106  2.77827627492749  1.22421878677868
 6 -9.45976071157116  3.00295579107911 -0.29726258595860
 6 -9.45087540124013 -1.73821933293329 -0.86694312341234
 7 -5.04135756035604  0.37100691879188  0.71465188348835
 6 -4.33743344944495 -0.67931775377538  0.76302432563256
 6 -2.94469347474747 -0.46472589828983  1.09689004320432
 6 -2.96643008140814  1.02144481278128  1.74053478417842
 6 -4.34679167406741  1.41572232103210  1.16428345824582
 6 -3.02061714381438  0.99450173827383  3.27949935883588
 6 -2.02266572757276 -0.54291955335534 -0.07367340904090
 6 -0.47894531713171 -0.36552089928993  0.49103323262326
 6  0.50052118931893 -0.50107362026203 -0.76192157265727
 8  0.18281952205221 -0.79246465406541 -1.94845117681768
 8  1.75778758925893 -0.29653705010501 -0.31579836873687
 7 -7.19306975487549  2.60036562636264  0.26972566806681
 6 -6.02708198719872  3.27260823662366  0.68421195479548
 6 -6.37017427052705  4.73691798119812  0.77218790599060
 6 -7.68979168616862  4.83857448894890  0.23191158245825
 6 -8.16578084968497  3.47435663096310 -0.00527798149815
 6 -5.39619757645765  5.78996146204620  1.11212597309731
 6 -8.52032983058306  6.05539657335734 -0.01175419001900
 6 -8.41769566086609  7.23467958655866  0.62139838963896
 7 -9.16180845344534  0.62874573567357 -0.44056809050905
 6 -9.89167542724272  1.77413736683668 -0.64342066616662
 6 -11.14347344394439  1.43033137223722 -1.06216793629363
 6 -11.16095849974998  0.12445780988099 -1.11769048304830
 6 -9.88411409210921 -0.44018599289929 -0.86222123822382
 6 -12.25324414811481  2.55742631363136 -1.22217899269927
 6 -12.39833437973797 -0.72776018611861 -1.52695350385038
 6 -12.41935942434244 -1.16392880408041 -3.08226334493449
 7 -7.15483495179518 -1.36651626522652 -0.18557323432343
 6 -8.23577381718172 -2.23438861096110 -0.43296825202520
 6 -7.87098324392439 -3.74888315581558 -0.41499877717772
 6 -6.51321520562056 -3.57225156215622 -0.03159489138914
 6 -6.14492708910891 -2.22200048134813  0.02612541674167
 6 -8.74787225462546 -4.86871971437144 -0.64757323572357
 6 -5.33109758005801 -4.38089197269727  0.23917679027903
 8 -5.19185802370237 -5.61373585698570  0.36156318701870
 6 -4.17838141754175 -3.38931472127213  0.55999586488649
 6 -3.47469810071007 -3.56640186148615  1.87621799469947
 8 -3.70036163676368 -3.02611934813481  2.86732941404140
 8 -2.67902909660966 -4.69500422282228  1.72330091099110
 6 -2.13374396229623 -5.18902313141314  2.83465840134013
 6  2.80922343404340 -0.37923571817182 -1.37833903430343
 6  4.10153224222422 -0.20470864716472 -0.73536368536854
 6  5.26323980838084  0.50616688208821 -1.15213498619862
 6  5.20174859785979  1.36769941924192 -2.40979514481448
 6  6.55376970977098  0.43594544474447 -0.31583806900690
 6  7.71046858475848 -0.26005635253525 -1.01719867036704
 6  8.94413628622862 -0.24147927832783 -0.06055786858686
 6  10.20036066056606 -0.68024509620962 -0.76119709020902
 6  10.03517021722172 -2.10082101820182 -1.14347781278128
 6  11.37827070397040 -0.41365514631463  0.24219508810881
 6  12.82567747544755 -0.44929898099810 -0.60033005590559
 6  13.90868033643364 -0.32059326212621  0.30069713721372
 6  15.32428855375538 -0.19855358445845 -0.43580181998200
 6  15.56177784668467 -1.66425405920592 -0.91084070177018
 6  16.32158626452645  0.40662502250225  0.43944845204520
 6  17.86522111151115  0.50612201060106 -0.05047086168617
 6  18.70543091259126  1.43065128212821  0.79632006500650
 6  20.16188485768577  1.41533186668667  0.24905966916692
 6  20.24196555035504  2.17994629182918 -1.03417441014101
 6  21.10118104890489  1.87766070237024  1.31905726912691
 1 -3.88069955445545  3.50651617301730  1.38025261216122
 1 -10.13762415511551  3.74422525752575 -0.51829722122212
 1 -10.13899718911891 -2.47056639743974 -1.23292994519452
 1 -2.37847430433043 -1.22492080598060  1.84780547174717
 1 -2.05516912211221  1.61926550915092  1.30670132053205
 1 -1.95166962446245  0.66085653855386  3.57796150965097
 1 -3.19503456345635  2.03952801030103  3.51180334573457
 1 -3.83746718941894  0.43421810581058  3.91734414721472
 1 -2.23435592049205 -1.59169913031303 -0.57177108630863
 1 -2.33139481198120  0.31654890529053 -0.83166320592059
 1 -0.17685120252025  0.44356897079708  1.08603900300030
 1 -0.30876867886789 -1.34619913511351  1.17591154635464
 1 -5.95256403180318  6.80974961906191  0.72373808300830
 1 -5.64583157255726  5.89648301140114  2.28244454155416
 1 -4.38877283328333  5.43090425682568  0.81795497109711
 1 -9.36085813831383  5.87018316641664 -0.74585481368137
 1 -8.92439365526553  8.05916665556556  0.36162578437844
 1 -7.73112257805781  7.37841424092409  1.37907629312931
 1 -12.17721182628263  3.20682100810081 -2.08929193389339
 1 -13.15006467566756  1.95212910411041 -1.44642583408341
 1 -12.22799453055306  3.20767942264226 -0.25656690069007
 1 -12.29041381978198 -1.61507095219522 -0.93307826272627
 1 -13.41881059996000 -0.17893463026303 -1.23843937143714
 1 -13.22169852245224 -1.74429911611161 -3.36080596509651
 1 -12.26851041524153 -0.16740127772777 -3.81750524622462
 1 -11.43265954525453 -1.79250411751175 -3.32612123212321
 1 -9.33172277527753 -4.94308505140514 -1.50510377447745
 1 -8.20124948974897 -5.79688969316932 -0.64385399839984
 1 -9.55195508040804 -4.84449947124712  0.13394157155716
 1 -3.56886758265827 -3.35571882258226 -0.33194846634663
 1 -1.41645981248125 -4.58897533723372  3.57455037033703
 1 -3.02655226382638 -5.53219483708371  3.46668950785079
 1 -1.58337644914491 -6.14048332153215  2.57191114401440
 1  2.70929023312331 -1.32819465536554 -2.08368233323332
 1  2.67614509210921  0.45372965256526 -2.21940509270927
 1  4.35245615121512 -0.67537975317532  0.08459167516752
 1  4.22047101060106  1.53668237863786 -2.92288065776578
 1  5.59179459115912  2.43876413531353 -2.10076654485449
 1  5.85706301390139  1.07943905140514 -3.24367309830983
 1  6.93887595049505  1.52835683568357 -0.18408576577658
 1  6.30255437483748  0.06479844244424  0.69065878257826
 1  7.52818020272027 -1.25553478867887 -1.48831015461546
 1  7.93333576947695  0.18845205330533 -1.95317824142414
 1  9.05722777437744  0.80067795279528  0.21566919911991
 1  8.71512000070007 -0.81332683888389  0.82076994069407
 1  10.42481003240324 -0.07467492979298 -1.64251914141414
 1  9.30116510201020 -2.36255423192319 -1.80732665746575
 1  10.89820237593759 -2.65018180208021 -1.59929417331733
 1  9.65923880988099 -2.74569651165116 -0.44201364106411
 1  11.29368704960496  0.69027125732573  0.57365885338534
 1  11.42458551195120 -1.37873383468347  0.86129675127513
 1  13.00433375227523 -1.47268542974297 -1.14197186478648
 1  12.80516426892689  0.15352604360436 -1.49150251155116
 1  13.95025646234624  0.65972852885289  0.68230557355736
 1  14.04476722982298 -1.05524512921292  1.33640015651565
 1  15.27335062356236  0.39588907390739 -1.23494785278528
 1  15.36316375927593 -2.29995028712871  0.12232077817782
 1  14.84917796849685 -1.88737111271127 -1.59577699279928
 1  16.64571420082008 -1.89709523442344 -1.29068053755376
 1  15.93433863456345  1.42941077477748  0.72250879517952
 1  16.40269471667166 -0.34023319841984  1.25391815301530
 1  18.23629456815681 -0.54384093149315 -0.31927526792679
 1  17.92399946444645  0.80654797369737 -1.08005158095810
 1  18.47455824842484  2.37846200390039  0.68585659095910
 1  18.78215537583759  0.95941012201220  1.80545054535454
 1  20.38400331303130  0.29935608380838 -0.05465840184018
 1  19.96870097669767  3.18894245614561 -0.57756134953495
 1  21.22083633573357  2.10258691149115 -1.51881324462446
 1  19.71359526392639  1.87508931973197 -1.96454342334233
 1  21.23522949814982  1.04762287138714  2.16585620282028
 1  22.13431513781378  2.29424065376538  1.07809277557756
 1  20.66538626852686  2.83346342964296  1.72765320582058

