%nproc=4
%Mem=2GB
# td=(NStates=1) CAM-B3LYP/6-31G(d,p) 

TD

0 1
12 -7.06718729172917  0.54484323242324  0.02304999239924
 6 -4.87192181018102 -1.95603678207821  0.57449398209821
 6 -4.77379730863086  2.87540598789879  1.07263362826283
 6 -9.36498123362336  3.04928042354235 -0.44644750445044
 6 -9.53240355405541 -1.73678918991899 -0.90369679877988
 7 -5.07198062266227  0.43147296539654  0.73469388768877
 6 -4.29469917601760 -0.78808863086309  0.85619364256426
 6 -2.84380338573857 -0.37504693039304  1.19870022422242
 6 -3.05197863626363  1.10702337063706  1.70040077077708
 6 -4.37916491139114  1.49422017081708  1.12824985488549
 6 -2.85164024612461  1.21980426852685  3.18376978587859
 6 -1.97534099509951 -0.54977023842384  0.06730068836884
 6 -0.48664608720872 -0.32832717991799  0.49738386768677
 6  0.54955609280928 -0.58529204210421 -0.58403378387839
 8  0.23786502660266 -1.18965437303730 -1.64031036273627
 8  1.78697050755076 -0.41671906830683 -0.14120090899090
 7 -7.00499094699470  2.57401299109911  0.30640933643364
 6 -5.96612589158916  3.40219119491949  0.75424895849585
 6 -6.36564381748175  4.69118340774077  0.76275696289629
 6 -7.68333104010401  4.73856448794879  0.29617800910091
 6 -8.03087735933593  3.38910810611061  0.08540108640864
 6 -5.31583954065407  5.90277274317432  0.85123988448845
 6 -8.47454525212521  5.97178821252125  0.00171715711571
 6 -8.29517340864087  7.06427254585459  0.69835608540854
 7 -9.03966623922392  0.67053991509151 -0.49136317001700
 6 -9.82363862356236  1.80733068616862 -0.57236356045605
 6 -11.18018711531153  1.45646398549855 -0.98728044754475
 6 -11.13875627952795  0.06757212131213 -1.16391510551055
 6 -9.84428010871087 -0.37442941724172 -0.84158917501750
 6 -12.33348217191719  2.43274384538454 -1.32182895769577
 6 -12.33610815711571 -0.76922433253325 -1.66144695319532
 6 -12.44023151155116 -0.90228263946395 -3.12768788738874
 7 -7.19037850615062 -1.44283389698970 -0.16480115711571
 6 -8.28097833763376 -2.23077824992499 -0.53614857005701
 6 -7.86128227382738 -3.61398966646665 -0.40412769006901
 6 -6.54098798289829 -3.52850718771877 -0.07253898579858
 6 -6.17083968036804 -2.23092137343734  0.09978278247825
 6 -8.55880334773477 -4.78332117451745 -0.93157163556356
 6 -5.36555102540254 -4.38376225972597  0.29280215281528
 8 -5.48427726562656 -5.61742622602260  0.19379641034103
 6 -4.23132671207121 -3.36093188298830  0.60217008230823
 6 -3.54577520842084 -3.76593181448145  1.98361873477348
 8 -3.66387798839884 -3.10925766196620  2.98595127622762
 8 -2.71073226692669 -4.79015373777378  1.71180976187619
 6 -2.03762435033503 -5.28885311441144  2.91287622312231
 6  2.81317382908291 -0.68719651425143 -1.11321252165217
 6  4.11212330133013 -0.40637881418142 -0.61462161116112
 6  5.08852233663366  0.39749601500150 -0.99306907960796
 6  4.99256767976798  1.25889853915392 -2.26947111241124
 6  6.33878821162116  0.46025787598760 -0.18057454265427
 6  7.51971950985098 -0.18744909180918 -0.98693564406441
 6  8.81975384798480 -0.04678980938094 -0.20369218201820
 6  10.13636426092609 -0.40117718941894 -1.05823679417942
 6  9.98566526672667 -1.92305324142414 -1.35438890389039
 6  11.28841171807181 -0.20037381818182 -0.16350548194819
 6  12.82467737543754 -0.45336938803880 -0.79801982488249
 6  13.89338880728073 -0.04770597339734  0.12260932843284
 6  15.30005613051305 -0.07944167326733 -0.46608484828483
 6  15.58370003890389 -1.62157979177918 -0.88916853455346
 6  16.37984209010901  0.47422178217822  0.39506401360136
 6  17.76253084248425  0.52155355375538 -0.21921773637364
 6  18.71092146164617  1.30968918591859  0.81900233323332
 6  20.18300696989699  1.35237557105711  0.43035779897990
 6  20.43330468426843  2.19276757395740 -0.85994698739874
 6  21.09479040984099  1.66180911721172  1.38985434883488
 1 -3.81406289078908  3.38694421582158  1.53560814771477
 1 -10.02253264596460  3.92889372437244 -0.88658404990499
 1 -10.36540983038304 -2.44121346214622 -1.00890754295430
 1 -2.47163362026203 -0.94556287018702  1.98177886908691
 1 -2.47142074727473  1.75143872647265  1.17093774417442
 1 -2.01771622912291  0.82249270217022  3.61861557505751
 1 -2.99299435943594  2.26642069956996  3.54659682508251
 1 -3.65318876157616  0.70400508450845  3.79927234003400
 1 -2.08766125102510 -1.65012497289729 -0.18379228842884
 1 -2.19409108160816  0.12642989338934 -0.83030306990699
 1 -0.39784330173017  0.66724133803380  0.99098949804980
 1 -0.23110091209121 -0.97058157335734  1.35596955215522
 1 -5.66238501390139  6.78940758485849  0.41541725092509
 1 -5.30241723112311  6.28600196329633  1.95470176727673
 1 -4.48117207320732  5.67049821622162  0.55141831743174
 1 -9.29974202670267  5.84858100620062 -0.66416664486449
 1 -9.03800501640164  7.89005974487449  0.54971459325933
 1 -7.52998246404641  7.32404880438044  1.33965235073507
 1 -11.87496160126013  3.36144647064706 -2.11674467916792
 1 -13.28988865806581  1.95431932313231 -1.81154234573457
 1 -12.78370010111011  3.10221887658766 -0.52694393839384
 1 -12.43067784618462 -1.60897034213421 -1.06282123702370
 1 -13.27023574247425 -0.16283302010201 -1.31206673417342
 1 -13.27447379998000 -1.48465315151515 -3.73130301480148
 1 -12.30229379357936 -0.05238977657766 -3.65900939663966
 1 -11.53016929622962 -1.53868873597360 -3.47770639063906
 1 -9.11371097409741 -4.54094483738374 -1.90759402350235
 1 -7.83139250405040 -5.52861286548655 -0.65993560656066
 1 -9.42083196809681 -4.91178619991999 -0.24750657325733
 1 -3.40595129102910 -3.64933818451845 -0.11784705620562
 1 -1.67672583908391 -4.55016145584558  3.51712462776278
 1 -2.58885849444945 -5.79137075467547  3.60572341124112
 1 -1.19807791929193 -5.92508178137814  2.74028798169817
 1  2.60127943204320 -1.74573640954095 -1.28738270327033
 1  2.74825230283028 -0.19456517691769 -2.22049520172017
 1  4.09803070867087 -0.96728894409441  0.31250446644664
 1  3.83545250875087  1.54677338773877 -2.46900527022702
 1  5.64668007970797  2.28467872677268 -2.05229169736974
 1  5.56072337993799  0.83609471697170 -3.09493822482248
 1  6.59777184008401  1.52234623462346 -0.14483184038404
 1  6.30865498489849 -0.24139217661766  0.59904962166217
 1  7.53300068476848 -1.37656689188919 -1.06343766736674
 1  7.79110154605460  0.27281048914891 -2.00078300190019
 1  8.87228928052805  0.92857074207421  0.36768440064006
 1  8.83549203790379 -0.64508001420142  0.55364322802280
 1  10.10497804920492  0.12091462916292 -1.97255214471447
 1  9.18109309480948 -1.89475745224522 -2.11554747954796
 1  10.97835039073907 -2.29722650655066 -1.82344658855886
 1  9.55952883888389 -2.53247518951895 -0.60425986568657
 1  11.03344102500250  0.86904913511351  0.30330181768177
 1  10.94442749614961 -0.89986594789479  0.77327794939494
 1  12.79014233313331 -1.54064222542254 -1.13339100670067
 1  12.63445719821982  0.16180687168717 -1.83726708800880
 1  13.95140657735774  1.09870242624262  0.56588393139314
 1  14.00544329742974 -0.61132073677368  1.07958447494749
 1  15.05224851335134  0.48988847384738 -1.32125648364836
 1  15.61406884978498 -2.21284157625763  0.03540208630863
 1  14.98641169186919 -1.85582795839584 -1.64643205830583
 1  16.53625325472547 -1.71874739963996 -1.32565403490349
 1  16.17340254095409  1.47719555325533  0.55866241054105
 1  16.55939038623862 -0.11766094119412  1.17521028222822
 1  18.17618855755575 -0.46947349474948 -0.20596393679368
 1  17.78492555705571  0.98504582348235 -1.17914148994899
 1  18.49653044564456  2.47555171287129  0.73699170447045
 1  18.73357051735174  0.84942912391239  1.92250225052505
 1  20.42636754945494  0.29360550875088  0.00673773777378
 1  20.15320942754276  3.12498606050605 -0.59947354075408
 1  21.54705895799580  2.25887254005400 -1.30106146944694
 1  19.73955786018602  1.80816262706271 -1.63000996999700
 1  20.95127110231023  0.96288439753975  2.18274789198920
 1  22.20103180948094  1.42242347204720  1.26803176947695
 1  21.05517524742475  2.84173425672567  1.59508994949495

