%nproc=4
%Mem=2GB
# td=(NStates=1) CAM-B3LYP/6-31G(d,p) 

TD

0 1
12 -7.16995756875688  0.56784553265327  0.08848653605361
 6 -4.86604122212221 -1.89117029542954  0.51935846854685
 6 -4.81645157405741  2.81903035033503  1.11789815471547
 6 -9.39904463996400  3.09768526402640 -0.34096695639564
 6 -9.55679599329933 -1.67482299329933 -0.78695512461246
 7 -5.16002942754275  0.46690650875088  0.68326874517452
 6 -4.38951865796580 -0.72135195719572  0.69720774397440
 6 -2.94198320372037 -0.44704413011301  1.20014036823682
 6 -3.07065050345034  1.03916658495850  1.51013174387439
 6 -4.39644663956396  1.57491824062406  1.02416944684468
 6 -2.97711279337934  1.28307059515952  3.14886629552955
 6 -1.96639010001000 -0.68655391679168  0.00315427372737
 6 -0.49988741134113 -0.32867721492149  0.52101623092309
 6  0.46834797199720 -0.64247776067607 -0.62972835333533
 8  0.21145238533853 -1.00669607720772 -1.80153648534854
 8  1.75342715321532 -0.38517591399140 -0.18235502440244
 7 -7.06865731363136  2.63542913271327  0.31529022452245
 6 -5.99737901690169  3.43003397919792  0.76005953955396
 6 -6.33499075217522  4.78041233063306  0.74941562876288
 6 -7.67535024202420  4.82969360086009  0.38007639893989
 6 -8.17006127772777  3.48311750705070  0.16080862716272
 6 -5.50274823152315  6.00880334623462  1.01729649014902
 6 -8.57441523912391  6.00533156685669  0.15852283768377
 6 -8.58216210751075  7.12547866646665  0.85375162496250
 7 -9.06370864346435  0.65466832793279 -0.54192822652265
 6 -9.86233249294929  1.76247620072007 -0.61882820692069
 6 -11.16165526212621  1.42870120922092 -1.09325104460446
 6 -11.26049845374537  0.09721508560856 -1.24596331033103
 6 -9.99157483818382 -0.38742071637164 -0.86293130923092
 6 -12.22185100880088  2.45171574257426 -1.31171794659466
 6 -12.33284783108311 -0.79689709980998 -1.65600640914091
 6 -12.42040952935294 -1.16610902210221 -3.20845596419642
 7 -7.17244671297130 -1.35658527212721 -0.17740241724172
 6 -8.30762100190019 -2.17152232433243 -0.52429738493849
 6 -7.95026117171717 -3.60543881138114 -0.41255853315332
 6 -6.61308519261926 -3.59747408440844 -0.16737846974697
 6 -6.23072566896690 -2.22705098639864  0.16461926612661
 6 -8.66649411681168 -4.86251909430943 -0.71140961936194
 6 -5.42896736703670 -4.40466434993499  0.20268314091409
 8 -5.17529636753675 -5.62958744214421  0.18236526722672
 6 -4.24851843124312 -3.36583237303730  0.54723458875888
 6 -3.61010164106411 -3.60093531483148  1.93608398129813
 8 -3.82189378997900 -3.10187692389239  2.94100678177818
 8 -2.56078727242724 -4.67437215961596  1.72066064696470
 6 -2.11333192109211 -5.18914314341434  3.01732666816682
 6  2.75357786948695 -0.56948474307431 -1.20608180858086
 6  4.11489357835784 -0.46206438273827 -0.61400154915492
 6  5.19533301770177  0.32019828522852 -0.97930770347035
 6  5.05052347534753  1.18086073537354 -2.19315348064806
 6  6.45197953075307  0.32925477567757 -0.29790627582758
 6  7.65160269816982 -0.27253760066007 -1.03728067856786
 6  9.03037491009101 -0.10049517991799 -0.25847766056606
 6  10.24425505000500 -0.60863793549355 -0.95583655415542
 6  10.11855855605561 -2.12560349644964 -1.44728819381938
 6  11.54052692959296 -0.41913569436944 -0.05128425982598
 6  12.86913182088209 -0.50260431153115 -0.81955197809781
 6  13.99465893429343 -0.21117232003200  0.23916098359836
 6  15.34274039893989 -0.18031176027603 -0.42763100290029
 6  15.77659932883288 -1.65724335813581 -0.93069268696870
 6  16.48416252215221  0.39237359735974  0.46255076227623
 6  17.93796838623862  0.49232063046305 -0.05301111571157
 6  18.84378474797480  1.35058327532753  0.93321375437544
 6  20.31553022222222  1.37358769226923  0.38065282848285
 6  20.38508986278628  2.27182547974797 -1.02865385808581
 6  21.09724065486549  2.07222015831583  1.34557992139214
 1 -3.96879836433643  3.55007052845285  1.59464405130513
 1 -10.07985837853785  3.92173300830083 -0.50147553905391
 1 -10.60578386778678 -2.46829617041704 -0.83480013221322
 1 -2.81034749164916 -1.07957627152715  2.03256394759476
 1 -2.28312191739174  1.55529911251125  1.06149680008001
 1 -2.21686614411441  0.78415886878688  3.72807652115212
 1 -2.94054911491149  2.26487054455446  3.23476564196420
 1 -3.78997243994399  0.89399408340834  3.80398281108111
 1 -2.17705018991899 -1.63297325772577 -0.41369527872787
 1 -2.15700737323732 -0.01364411401140 -0.83697373697370
 1 -0.21615513291329  0.58456307020702  0.91515191429143
 1 -0.00882868486849 -1.11800631583158  1.30170412561256
 1 -5.65094386978698  6.86977562166217  0.42752846204620
 1 -5.71364835423542  6.39400276337634  1.90274657175718
 1 -4.37028098409841  5.77363853025302  1.00496367196720
 1 -9.22523457595760  5.90369651775177 -0.68541877007701
 1 -9.05763697959796  7.93895463436344  0.39259888168817
 1 -7.89656912271227  7.26216261576158  1.65492387788779
 1 -11.72597670277028  3.15879620562056 -1.98195119981998
 1 -13.01572124132413  1.94527841904190 -1.70909210071007
 1 -12.66126785788579  3.25744439913991 -0.58056930093009
 1 -12.33638841724173 -1.78974841994199 -1.16962191709171
 1 -13.23090180908091 -0.13599033583358 -1.34828035553555
 1 -13.13458981158116 -1.93532821902190 -3.15888577307731
 1 -12.63467703190319 -0.38734327192719 -3.85439893559356
 1 -11.45771205050505 -1.50323519061906 -3.47833645364536
 1 -9.32292189518952 -4.71124186708671 -1.67337060116012
 1 -8.01867123192319 -5.66550655485549 -0.82663227622762
 1 -9.38109799469947 -5.05928094939494  0.23952212961296
 1 -3.57684838073807 -3.46915016571657 -0.22102737423742
 1 -1.39157732423242 -4.54209064876488  3.63495641094109
 1 -3.12785239383938 -5.37397901550155  3.54494733363336
 1 -1.67398551005101 -6.16998627182718  2.89043299619962
 1  2.73672297639764 -1.53728556445645 -1.42925689068907
 1  2.50775825342534  0.17962224182418 -2.00276342854285
 1  4.21189209480948 -1.04192640784078  0.32066528252825
 1  4.07076604010401  1.07835654605461 -2.68146651635164
 1  5.32234764646465  2.12260251915191 -2.00419688788879
 1  5.72631993959396  1.09442054955496 -3.08045677667767
 1  6.63524558745875  1.48645264526453  0.04162680548055
 1  6.39841396079608 -0.18861689908991  0.69624934163416
 1  7.36908429312931 -1.47072630783078 -1.05931725532553
 1  7.56139857575758  0.02749595769577 -2.12097502110211
 1  8.96179823142314  1.03850173517352 -0.07190955875588
 1  8.99943843254326 -0.67591309750975  0.73587145084508
 1  10.52417996939694 -0.06076353865387 -1.77988287778778
 1  9.30913589908991 -2.16558453495350 -2.23907983278328
 1  11.06378893459346 -2.29588637253725 -1.92375661956196
 1  9.73918680468047 -2.74320626262626 -0.64469390909091
 1  11.38743642454246  0.66606883708371  0.45670715821582
 1  11.43222627602760 -1.25782174347435  0.71864248584859
 1  13.05006832573257 -1.44303246444644 -1.42707037463746
 1  12.99226297879788  0.40986167716772 -1.58283164446445
 1  13.91827326402640  0.93635619161916  0.63955129812981
 1  13.81736448954896 -1.01573117781778  1.02911942844284
 1  15.34045733423342  0.41878136313631 -1.38201255925593
 1  15.86094353725372 -2.09880017211721  0.16394494059406
 1  14.86030908160816 -2.00822319791979 -1.56479389448945
 1  16.63385301470147 -1.78896442134213 -1.74504597409741
 1  16.08948414911491  1.36513434713471  0.61080762506251
 1  16.27433188038804 -0.13884305940594  1.48414117531753
 1  18.61213215191519 -0.33826037343734 -0.37756109650965
 1  17.85170223472347  1.20087740664066 -0.88857243304330
 1  18.41786257885789  2.26872102980298  1.01822982828283
 1  19.03750091039104  1.01963614461446  2.00726072637264
 1  20.49661457415742  0.32569871807181  0.15019208320832
 1  19.67449155575557  3.27819138103810 -0.65835942934293
 1  21.38915316741674  2.68584523732373 -1.17368873217322
 1  20.01163506790679  1.56438824962496 -1.64523149214921
 1  21.29203517871787  1.50645875497550  2.28579819701970
 1  22.25738744504450  2.01952318201820  1.01784675097510
 1  20.97110684058406  3.02354243754375  1.38950939143914

