%nproc=4
%Mem=3GB
# td=(NStates=1) iop(3/107=0140000000,3/108=0140000000) CAM-B3LYP/6-31G(d,p) 

TD

0 1
12 -7.16642133383338  0.65304368786879  0.13721009100910
 6 -4.85922473897390 -2.02684991559156  0.40817622002200
 6 -4.82512854345435  2.83891260916092  1.23678378357836
 6 -9.39492625712571  3.13068062106211 -0.44136661196120
 6 -9.44644074207421 -1.67591935763576 -0.94401120602060
 7 -5.18473550475048  0.37837392799280  0.74339216321632
 6 -4.40373262056206 -0.73751489468947  0.81508940364036
 6 -2.84648086868687 -0.42850124812481  1.28680434953495
 6 -3.10366359325933  1.00540924252425  1.77261354065407
 6 -4.43948418311831  1.44931958305831  1.24837923182318
 6 -2.95487166796680  1.16359917921792  3.26973228782878
 6 -1.98607433713371 -0.56681267046705  0.07126093639364
 6 -0.58322403160316 -0.50426367436744  0.65814919721972
 6  0.53034495769577 -0.64770139203920 -0.49263905400540
 8  0.16782699949995 -0.92870664836484 -1.65137253035304
 8  1.70068866726673 -0.33147308570857 -0.04044943254325
 7 -7.05425306870687  2.68546175607561  0.24160508460846
 6 -6.01237138093809  3.39314308170817  0.73446932303230
 6 -6.36795170357036  4.80375723932393  0.84636289498950
 6 -7.65641042634263  4.90469227442744  0.37148327472747
 6 -8.08671819931993  3.50113705250525  0.03851184978498
 6 -5.43808584248425  5.94328380208021  1.19330948614861
 6 -8.43387339533953  6.07896816641664  0.20284089658966
 6 -8.32938134813481  7.34523367306731  0.77064112341234
 7 -9.08347738883888  0.70247724212421 -0.52966954085409
 6 -9.83051053735374  1.81965528982898 -0.77231004450445
 6 -11.19016296899690  1.45047449194919 -1.20475533523352
 6 -11.11842132933293  0.15185273107311 -1.32813284158416
 6 -9.90255785938594 -0.35567576097610 -0.99145134643464
 6 -12.21581251895190  2.44719996139614 -1.64915436813681
 6 -12.32407620052005 -0.66643276707671 -1.77847717831783
 6 -12.23728563746375 -1.09738993129313 -3.18123877507751
 7 -7.19485244764476 -1.40840567626763 -0.18725140024002
 6 -8.19108343464347 -2.22644118961896 -0.57596917681768
 6 -7.87480952075208 -3.68565911731173 -0.44739503930393
 6 -6.48711650215022 -3.63155613771377 -0.11552363406341
 6 -6.13983771547155 -2.23566152195220 -0.00124828942894
 6 -8.63041538103810 -4.80590668906891 -0.83346672977298
 6 -5.33660912381238 -4.34663822722272  0.24594956905691
 8 -5.29653064536454 -5.65434229122912  0.22728867746775
 6 -4.25573007560756 -3.37960540794079  0.59183750535054
 6 -3.53619779657966 -3.72149009170917  1.93101907040704
 8 -3.86157894129413 -3.22507986588659  2.94805816401640
 8 -2.76072142494249 -4.74363298179818  1.71507054455446
 6 -2.18523748074808 -5.36590179607961  2.90485788618862
 6  2.75438175857586 -0.62391067996800 -1.02244576177618
 6  4.22573345854585 -0.45216048394839 -0.49069163196320
 6  5.14777026832683  0.42853938193819 -0.88449132613261
 6  5.11515524112411  1.28815649094909 -2.08438257325733
 6  6.48386466516652  0.46791740774077 -0.23310383478348
 6  7.69211066366637 -0.08031657965797 -0.99037936663666
 6  8.97105481708171 -0.18605042114211 -0.15042114451445
 6  10.22468792939294 -0.64685634883488 -0.81869758975898
 6  10.07958123472347 -2.12680055995600 -1.38085505150515
 6  11.45477014081408 -0.46327121822182  0.10294233173317
 6  12.74832256775678 -0.56552658615862 -0.63356086118612
 6  14.00071134293429 -0.17701341564156  0.12082849444944
 6  15.33879987098710 -0.30087917151715 -0.60114576707671
 6  15.61350762176218 -1.78915730403040 -0.83553537983798
 6  16.34468146084609  0.36392290959096  0.30774550925093
 6  17.78437602530253  0.46041977157716 -0.26879340634063
 6  18.71538195679568  1.45199327782778  0.57902115881588
 6  20.18545134953495  1.52145157765777  0.20056676267627
 6  20.33838668446845  2.15483278837884 -1.14210890679068
 6  21.03637870487049  2.10657235713571  1.29000294029403
 1 -4.06508687218722  3.43635688708871  1.70937703350335
 1 -10.05990811411141  4.03775605010501 -0.72965749194919
 1 -10.13045746984699 -2.49397493259326 -1.07249506890689
 1 -2.68185547274728 -1.01033123582358  2.07263375407541
 1 -2.28356182248225  1.45600766186619  1.32782643164316
 1 -2.08076116251625  0.74913401980198  3.60595093249325
 1 -3.00918802790279  2.23373259605961  3.45196321852185
 1 -3.78829162966297  0.73505866016602  3.99040072527253
 1 -2.12095721472147 -1.52710338113811 -0.68975698279828
 1 -2.26082245124512  0.43818143794379 -0.57187392199220
 1 -0.50739616831683  0.48695828312831  1.08845270827083
 1 -0.35942436273627 -1.30338110471047  1.21195465376538
 1 -5.63759793749375  6.85798331033103  0.68456828812881
 1 -5.56365783708371  6.03442632403240  2.30190220272027
 1 -4.46403124772477  5.84907917591759  1.07377811041104
 1 -9.24876513631363  6.11775515751575 -0.52149350205021
 1 -9.05732479617962  8.17363708470847  0.48570834653465
 1 -7.58072600470047  7.65289212561256  1.56148510881088
 1 -11.57968844184418  3.13629277637764 -2.32097792929293
 1 -13.29076637433743  2.29171791419142 -2.19296502470247
 1 -12.28945997869787  2.93897123122312 -0.70024046354635
 1 -12.43352531743174 -1.64123504630463 -1.41015451635164
 1 -13.27064936403641 -0.15297800830083 -1.80238599299930
 1 -13.06386158535854 -1.60337399949995 -3.30535149324932
 1 -12.13982438813881 -0.37757622892289 -3.83731270967097
 1 -11.50452529192919 -1.94582560976098 -3.33994227242724
 1 -9.21068568716872 -4.52293879467947 -1.72568863186319
 1 -8.15751013621362 -5.77055300860086 -0.89684964006401
 1 -9.43201738073807 -4.85431387978798 -0.11328359705971
 1 -3.50581810031003 -3.73894049964996 -0.17389512761276
 1 -1.41969535713571 -4.72826503990399  3.36664838243824
 1 -2.87206364366437 -5.83476300120012  3.54801583928393
 1 -1.69145966646665 -6.16931771657166  2.39753311441144
 1  2.32464051885189 -1.69846646944694 -1.34269571827183
 1  2.92488893019302 -0.04287620282028 -1.87332839033903
 1  4.23666415311531 -1.36086450025003  0.26121752195220
 1  4.04245955745574  1.68854439713971 -2.63126361206121
 1  5.51103803600360  2.21697212111211 -1.95816325472547
 1  5.66360592909291  0.96375756665667 -2.99860611751175
 1  6.76500468436844  1.50415039563956  0.11291090499050
 1  6.39540741284128 -0.02180951765177  0.59378557405741
 1  7.44096621942194 -0.94028470147015 -1.39458421562156
 1  7.88194075257526  0.60847995099510 -1.76352717561756
 1  9.21669771407141  0.88788828632863  0.12747517561756
 1  8.86894001480148 -0.74609296199620  0.84940106350635
 1  10.49196382818282  0.08424457225723 -1.72327748574857
 1  9.32235184428443 -2.23371165466547 -2.01947032893289
 1  10.91565070567057 -2.37129052835283 -1.82189754785479
 1  10.16482867996800 -2.59909402410241 -0.32755014871487
 1  11.44854649624962  0.55645207860786  0.41983975477548
 1  11.53793138863886 -1.10441173877388  1.03911023112311
 1  12.89195714821482 -1.51126854615462 -1.03100537203720
 1  12.80027585748575  0.01677661366137 -1.49575390909091
 1  13.77848926922692  0.80852621592159  0.44331916061606
 1  14.02105041564156 -0.69466584548455  0.96417879187919
 1  15.28832923432343  0.26357975497550 -1.54554582338234
 1  15.65445924272427 -2.46273561476148  0.11834369886989
 1  14.99454109850985 -2.19226374637464 -1.61401277477748
 1  16.65725400500050 -1.77268816581658 -1.41588810211021
 1  15.87476074957496  1.46720505420542  0.22049796609661
 1  16.21179525732573 -0.16738302310231  1.30001849654966
 1  18.42990972867287 -0.50898741274127 -0.12041223682368
 1  17.69425673527353  0.66616551065106 -1.21676742034203
 1  18.23351240814081  2.54034530253025  0.57914986178618
 1  18.66942290479048  0.81015585508551  1.68830207570757
 1  20.55013484578458  0.44298529612961  0.15003089528953
 1  19.78471529002901  3.20700147664766 -1.33688587328733
 1  21.38989279007901  2.19385052715272 -1.55258323952395
 1  20.06774517211721  1.57328761896190 -2.03477186158616
 1  21.20287414091409  1.35324096499650  2.11749541834183
 1  22.05644353715372  2.31738220892089  1.05131178477848
 1  20.67146722522252  3.01121723892389  1.63138027472747

