%nproc=4
%Mem=2GB
# td=(NStates=1) CAM-B3LYP/6-31G(d,p) 

TD

0 1
12 -7.04490506350635  0.62681142924292  0.00346803420342
 6 -4.86768138613861 -1.91134231263126  0.54759129182918
 6 -4.87741767066707  2.80007845514551  1.20857722262226
 6 -9.46907164266427  3.04265976147615 -0.41384424412441
 6 -9.56145645934594 -1.76329184018402 -0.74989141824182
 7 -5.01933535813581  0.44467428552855  0.64325474377438
 6 -4.37183688978898 -0.67615743774377  0.82722074527453
 6 -2.89636864226423 -0.45325475117512  1.24692504670467
 6 -3.02390582898290  1.12635530383038  1.62922365306531
 6 -4.44834182908291  1.57149789858986  1.05146217611761
 6 -2.95018010011001  1.43311559965997  3.19400080898090
 6 -1.97795125612561 -0.50874613601360  0.06054001230123
 6 -0.48416583918392 -0.34323867106711  0.53148727802780
 6  0.51569270647065 -0.50935444834483 -0.51975735623562
 8  0.28819005910591 -0.85645105270527 -1.72061839353935
 8  1.80369217971797 -0.35682307870787 -0.11205799469947
 7 -7.07663811171117  2.60407599739974  0.19605830133013
 6 -6.09114839383938  3.40350132593259  0.72688622222222
 6 -6.44661191429143  4.80343463286329  0.89900058725873
 6 -7.71548425542554  4.85056568806881  0.38199659095910
 6 -8.19000327192719  3.46014520982098  0.00455300160016
 6 -5.47822577927793  5.90540300620062  1.28069282978298
 6 -8.55873367096710  5.89441047474747  0.17208419381938
 6 -8.52301619291929  7.17682380098010  0.75564181398140
 7 -9.12872514511451  0.62791565266527 -0.57218125182518
 6 -9.86393265296530  1.78151810491049 -0.57553387748775
 6 -11.21457055365537  1.41576991609161 -1.11754347384738
 6 -11.26103850775077  0.12986835093509 -1.32793150715071
 6 -9.92919860056006 -0.34171614591459 -0.91381639773977
 6 -12.36641546524652  2.50534110511051 -1.36314308910891
 6 -12.41456600290029 -0.70835824592459 -1.79934074257426
 6 -12.28277576597660 -1.28818122932293 -3.22786790539054
 7 -7.21837130543054 -1.40784039763976 -0.31313599059906
 6 -8.32810305010501 -2.30847601970197 -0.54467942314231
 6 -7.81122726832683 -3.66325459295930 -0.46733401070107
 6 -6.45132901700170 -3.52870720772077 -0.12605433733373
 6 -6.17262985938594 -2.14275255655566  0.06100890509051
 6 -8.60437790519052 -4.84057690009001 -0.73240171857186
 6 -5.22009647994799 -4.30280416391639  0.18541141374137
 8 -5.10839967786779 -5.53579806320632  0.18408543924392
 6 -4.17188076747675 -3.30472626242624  0.60687055235524
 6 -3.54502513341334 -3.76217143844384  1.95422579547955
 8 -3.67060866146615 -3.09311604780478  2.94702738383838
 8 -2.65255644934493 -4.73531825422542  1.76312489338934
 6 -2.25213580148015 -5.34086831593159  2.95025996149615
 6  2.78384089578958 -0.69470726532653 -1.22199339973997
 6  4.15056714571457 -0.46324450075007 -0.53081323032303
 6  5.07798128252825  0.36839310471047 -0.95194496719672
 6  5.18741716471647  1.13795644494449 -2.24531869716972
 6  6.37910224302430  0.49096094629463 -0.16313279847985
 6  7.58366590449045 -0.25190553745375 -0.98195514601460
 6  8.91210308290829 -0.09382451285128 -0.12339415221522
 6  10.18893951845184 -0.59159623132313 -0.91779274977498
 6  10.00061676187619 -2.12426336243624 -1.30607407240724
 6  11.43851672857286 -0.31077485828583 -0.06248537993799
 6  12.80629553725372 -0.58209226032603 -0.77551757465747
 6  13.97457692609261 -0.21611281408141  0.14559162666267
 6  15.35357148204820 -0.31693542264226 -0.53905214501450
 6  15.78362003090309 -1.73336096989699 -0.83317293499350
 6  16.42363646954696  0.29134349434943  0.39181368856886
 6  17.84539912931293  0.62190358875888 -0.15187100170017
 6  18.73747411691169  1.33038125512551  0.85902633563356
 6  20.31377004620462  1.46048638213821  0.25667043024302
 6  20.29879123292329  2.11467976517652 -1.07514850755076
 6  21.14575550635064  2.08143107940794  1.27248261166117
 1 -4.27186867136714  3.63724924632463  1.80585517241724
 1 -10.08352874557456  3.93074390939094 -0.65824121562156
 1 -10.28235152455246 -2.42389172997300 -1.10405705790579
 1 -2.41576803370337 -0.89021733563356  2.18154884608461
 1 -2.26591019621962  1.76947052965297  1.17054770517052
 1 -1.84059851735173  1.43176362926293  3.61261497499750
 1 -3.29035409540954  2.52368642614262  3.52942510791079
 1 -3.56192963566357  0.70879556355636  3.86870928372837
 1 -1.98312079697970 -1.56327628802880 -0.16500040924092
 1 -2.43237490999100  0.30045729612961 -0.62012205180518
 1 -0.47326084348435  0.83430804470447  0.86260665976598
 1 -0.34249205120512 -0.94730924612461  1.41282523772377
 1 -5.72734150955096  6.87332597669767  0.73475918511851
 1 -5.43634062346235  5.91538490159016  2.46407270437044
 1 -4.63149710571057  5.48146931333133  1.15774895049505
 1 -9.38325037753775  5.57376352445245 -0.42993322152215
 1 -9.25790700660066  8.04171491039104  0.47560718251825
 1 -7.76191565736574  7.59551595109511  1.51961034653465
 1 -12.01812591769177  3.08167849384939 -2.21376438113811
 1 -13.38369803900390  2.19359325052505 -1.34230542204220
 1 -12.26002773387339  2.94830348504850 -0.33772501650165
 1 -12.74607938633864 -1.55608505360536 -1.00887584248425
 1 -13.34002272117212 -0.25378211501150 -1.70084561206121
 1 -13.12436878947895 -1.75677036323632 -3.78424830933093
 1 -11.81395495969597 -0.54049858745875 -3.85216871257126
 1 -11.31470775007501 -1.83470833793379 -3.16692531253125
 1 -9.26517612061206 -4.95308605150515 -1.66825008910891
 1 -7.88793815861586 -5.80014001820182 -1.05699531253125
 1 -9.17058694359436 -5.09125414671467  0.18677685508551
 1 -3.31047174307431 -3.32994624532453 -0.23938921042104
 1 -1.51452961946195 -4.70296673637364  3.53173608890889
 1 -3.21846145474547 -5.59685130273027  3.56660949984999
 1 -1.71897000850085 -6.26152542574257  2.63136708960896
 1  2.61632093619362 -1.76105794169417 -1.44199816481648
 1  2.76343382098210 -0.14947066746675 -1.92804595679568
 1  4.01997290289029 -0.90756297149715  0.45182839883988
 1  4.09280824432443  1.25204391479148 -2.57834620432043
 1  5.53369878157816  2.10925118401840 -2.10802727092709
 1  5.90358766636664  0.57067817531753 -3.06841557255726
 1  6.79046110901090  1.47742174217422 -0.04253161036104
 1  6.24776889628963 -0.03973201060106  0.73781349804980
 1  7.23797118181818 -1.36518575377538 -1.21485280888089
 1  7.79609204510451  0.12396560466047 -2.07132005560556
 1  9.19341139273927  0.81118900390039  0.52564019621962
 1  8.86818530723072 -1.01252675887589  0.79180704440444
 1  10.07589514091409  0.13463600130013 -1.84264915441544
 1  9.14280926642664 -2.28397637413741 -1.94601052585259
 1  11.00435299099910 -2.28072485638564 -1.77841208510851
 1  9.90831371737174 -2.39592153415341 -0.26519595929593
 1  11.55115279617962  0.66951918211821  0.25736722422242
 1  11.43662671607161 -1.03589955125513  0.93580420202020
 1  12.59602292119212 -1.60192835403540 -1.08523619121912
 1  12.87095084758476 -0.05439474847485 -1.81315467676768
 1  13.70127156385639  0.74770732673267  0.06931427442744
 1  13.98106085918592 -0.96545615031503  0.96003251975198
 1  15.40179346784678  0.21890137513751 -1.39257361536154
 1  15.69424686758676 -2.60944123622362 -0.07822927682768
 1  15.08095114581458 -1.99196157175718 -1.48509592469247
 1  16.82759238863887 -1.59213473837384 -1.26390786028603
 1  15.77441264196420  1.00572840654065  0.99964650895090
 1  16.42998744594459 -0.34409358445845  1.14096685788579
 1  18.38279921862186 -0.28453500090009 -0.41555489588959
 1  17.58126519101910  1.28312563146315 -1.03168674447445
 1  18.21542233483348  2.26909106680668  0.85482348764876
 1  18.97573473377338  0.74845902690269  1.80546054635464
 1  20.63896880958096  0.31365751395140 -0.01075401140114
 1  19.91294540114011  3.18504206610661 -1.00040363376338
 1  21.23136738883888  2.39605625842584 -1.46356772007201
 1  19.82747665206521  1.60882269306931 -2.08138510751075
 1  21.02726870207021  1.74270237933793  2.21724134133413
 1  22.23497520382038  1.80945217491749  0.90831579787979
 1  21.04484421432143  3.14610469376938  1.46812725322532

