%nproc=4
%Mem=2GB
# td=(NStates=1) CAM-B3LYP/6-31G(d,p) 

TD

0 1
12 -7.17518809180918  0.57820656875688 -0.03354566716672
 6 -4.82122674067407 -1.97257843624362  0.37232376507651
 6 -4.75499542844284  2.89856830413041  1.16677304220422
 6 -9.35209994549455  3.04981047654765 -0.30629348904890
 6 -9.51605191889189 -1.78503401440144 -0.79161559065907
 7 -5.10077350195020  0.45569538763876  0.61241165946595
 6 -4.33494320042004 -0.71004082608261  0.76651467466747
 6 -2.98823782918292 -0.37280670637064  1.27701805600560
 6 -3.03152659105911  1.15101777007701  1.61323205390539
 6 -4.43288028292829  1.51189193799380  1.12520955085509
 6 -2.85102018411841  1.38818110621062  3.16541795069507
 6 -1.89899336033603 -0.60572583398340  0.13878783708371
 6 -0.51395881848185 -0.36139048624862  0.60056418571857
 6  0.42073321052105 -0.65594910781078 -0.55432081258126
 8  0.16132737283728 -1.03531893949395 -1.65511184288429
 8  1.70423223372337 -0.38512590899090 -0.16164295319532
 7 -7.06148659655966  2.60720631043104  0.30028872437244
 6 -6.03979325832583  3.31154213001300  0.76001953555356
 6 -6.30341759485949  4.75933022242224  0.83360404760476
 6 -7.55488819581958  4.80131076257626  0.36298468976898
 6 -8.13388766036604  3.59119831513151  0.12041458775878
 6 -5.37020497719772  5.97928039393939  1.16230099059906
 6 -8.46170396799680  6.02606364006401  0.04083106850685
 6 -8.33321721302130  7.25531164976498  0.65033128292829
 7 -9.14822709530953  0.64170703180318 -0.48330236393639
 6 -9.80412667236724  1.84876482958296 -0.62258858295830
 6 -11.18278737533753  1.50575891499150 -0.97902962246225
 6 -11.20356276017602  0.09898526262626 -1.20020873487349
 6 -9.97162284298430 -0.39923189748975 -0.85319033513351
 6 -12.26628545224522  2.48241881288129 -1.33852062686269
 6 -12.33269781608161 -0.79024643474347 -1.77607841634163
 6 -12.29666715511551 -0.99714212541254 -3.22344746334633
 7 -7.18652812111211 -1.46503611721172 -0.25446012301230
 6 -8.32381262106211 -2.31337650975098 -0.46113106830683
 6 -7.88242438803880 -3.68077634513451 -0.51141841914191
 6 -6.52609649374938 -3.62125646264626 -0.13291502340234
 6 -6.19313190959096 -2.22663094439444 -0.07000419621962
 6 -8.59787725512551 -4.95398824122412 -0.80509898829883
 6 -5.37133160346035 -4.41147503100310  0.21233410601060
 8 -5.20862970087009 -5.62917740114011  0.29531656235624
 6 -4.15522910231023 -3.37629341914191  0.51327119241924
 6 -3.59938056895690 -3.70561578287829  1.83160353325333
 8 -3.93026462706271 -3.32095883208321  2.89489217031703
 8 -2.66803799749975 -4.68143286568657  1.60749933083308
 6 -2.07111769966997 -5.19342357145715  2.82682761826183
 6  2.76482899459946 -0.66496429102910 -1.12471367176718
 6  4.03481557055706 -0.22558073437344 -0.42575272427243
 6  5.18603208760876  0.44330059545955 -1.01728150085008
 6  5.05038346134613  1.07384003330333 -2.29723388868887
 6  6.46797112991299  0.63822567276728 -0.19486597179718
 6  7.64289182708271 -0.22813316021602 -0.87979492999300
 6  8.87162903550355 -0.25859098949895 -0.02964477727773
 6  10.15706633113311 -0.64294136583658 -0.75038600910091
 6  10.08453515371537 -2.14858579467947 -1.22236570157016
 6  11.46203908080808 -0.38880266106611  0.16589745834583
 6  12.79918482618262 -0.51539559065907 -0.68141816471647
 6  13.95237470587059 -0.13664486728673  0.24121118861886
 6  15.33538966386639 -0.22673640274027 -0.39395763556356
 6  15.71946361526153 -1.71336897069707 -0.85117473517352
 6  16.42740684658466  0.43238759875988  0.46160066726673
 6  17.81709629902990  0.68337973637364 -0.26987280188019
 6  18.69796016551655  1.38469668666867  0.62878331133113
 6  20.19582825202520  1.37424775827583  0.10294505770577
 6  20.19044039783978  2.29809810701070 -1.15092608530853
 6  21.09702063286329  1.93972690899090  1.18412377577758
 1 -3.91669315381538  3.39404492589259  1.48540312721272
 1 -10.11034142684268  3.61719255425543 -0.68995438693869
 1 -10.29724301370137 -2.47676701750175 -1.22423907610761
 1 -2.77753421032103 -1.15582389628963  2.03520421162116
 1 -2.12522612781278  1.82375595819582  1.13366401680168
 1 -2.03580803830383  0.87125757865787  3.69395310881088
 1 -2.66149120912091  2.59019307680768  3.45254742014201
 1 -3.85381882458246  1.15979066306631  3.81925433823382
 1 -1.79101158605861 -1.71365132553255 -0.18871278047805
 1 -2.49605127762776 -0.09868261786179 -0.71662170177018
 1 -0.30183370077008  0.62345695959596  0.96324672377238
 1 -0.36891469346935 -1.04598911411141  1.28939289448945
 1 -5.79520829622962  6.84197284138414  0.92145785498550
 1 -5.50815780518052  5.97887125022502  2.27270356745675
 1 -4.32756671267127  5.46084725112511  0.67999117471747
 1 -9.11629368186819  5.90472662076208 -0.71208143634363
 1 -8.96751796769677  8.04273501240124  0.30427004880488
 1 -7.65220468626863  7.52080848034804  1.41173955945595
 1 -11.73121722682268  3.19108943494349 -2.02400540524052
 1 -13.12426209540954  1.85480937213721 -1.74411560306031
 1 -12.65601733283328  3.06807546224622 -0.50838208220822
 1 -12.38259303770377 -1.76092553765376 -1.41689664456446
 1 -13.31555027392739 -0.33467020382038 -1.57178270577058
 1 -13.06881323392339 -1.66093077927793 -3.52886277077708
 1 -12.35202876707671 -0.08555309290929 -3.81351484718472
 1 -11.25853213251325 -1.29002386948695 -3.32316093609361
 1 -9.05784538753876 -5.04117486038604 -1.83556682078208
 1 -7.88192755755575 -5.70551055525553 -0.64126373937394
 1 -9.38892877777778 -5.03558858015802 -0.03140496309631
 1 -3.41280197609761 -3.49879313001300 -0.30953622512251
 1 -1.33380154665467 -4.57411385108511  3.36344926022602
 1 -2.83604321292129 -5.15414703230323  3.66334917381738
 1 -1.57192530403040 -6.08057733093309  2.38024197709771
 1  2.79079838393839 -1.71014285018502 -1.36811077607761
 1  2.62432991059106 -0.16893261366137 -2.15016816901690
 1  4.04228513411341 -0.52485470067007  0.59865308130813
 1  4.10497946144614  0.84001271167117 -3.00065843554355
 1  5.16674208590859  2.29855011391139 -1.93625009320932
 1  6.06414372197220  0.69360046754675 -2.96163489448945
 1  6.75927799069907  1.84539853985399 -0.21329868706871
 1  6.33953807320732  0.33727569016902  0.78871858855886
 1  7.30781816651665 -1.21730096529653 -1.18565988958896
 1  8.01297373327333  0.23421662976298 -1.71097402100210
 1  9.05174722632263  0.62607049204921  0.34120175237524
 1  8.80931942064207 -0.74519002520252  0.93899176287629
 1  10.08652620402040 -0.04329179147915 -1.68951384088409
 1  9.02600758625863 -2.36023399989999 -1.62323824862486
 1  10.85572812851285 -2.57561434533453 -1.93956820072007
 1  10.18808169416942 -2.61420336233623 -0.22643208290829
 1  11.44341202210221  0.63455568576858  0.76690817831783
 1  11.36330938433844 -1.02741870317032  1.04891551315131
 1  12.94307762666267 -1.58490665186519 -1.04898256585659
 1  12.62985673817382 -0.17839714871487 -1.65328869016902
 1  13.75819725642564  0.72712526852685  0.76526386938694
 1  14.08034078717872 -1.12461206590659  1.07943445994599
 1  15.38465175367537  0.32347183218322 -1.32565692369237
 1  15.80875831873187 -2.56344663676368 -0.04269572347235
 1  14.94733778447845 -2.13813618921892 -1.56836425152515
 1  16.64290391979198 -1.61313683858386 -1.48306977647765
 1  15.77735293599360  1.39383721742174  0.92852939723972
 1  16.76163061026103 -0.14799397449745  1.36516927812781
 1  18.30908184688469 -0.18459500690069 -0.62720606100610
 1  17.50269733423342  1.36093341224122 -1.09780335613561
 1  18.09534032663266  2.39382354005400  0.84221222652265
 1  18.57817497779778  0.66584076507651  1.53431343164316
 1  20.53645855855586  0.29072522072207 -0.19109204520452
 1  19.89218332493249  3.34004756665667 -0.86388998239824
 1  21.28078233033303  2.51101775457546 -1.40743210651065
 1  19.53625753015302  1.89374118491849 -1.86038300730073
 1  21.23276925212521  1.43121123022302  2.09874949214921
 1  22.24059576587658  1.98889011871187  0.90447541384138
 1  20.66784651455146  2.89048913221322  1.41017145764576

