%nproc=4
%Mem=2GB
# td=(NStates=1) CAM-B3LYP/6-31G(d,p) 

TD

0 1
12 -7.12024259725973  0.68015676377638  0.15103279067907
 6 -4.88248286628663 -1.85136631503150  0.48843537623762
 6 -4.80353028192819  2.85132357965797  1.06759312421242
 6 -9.42998773427343  3.08685418091809 -0.43162602230223
 6 -9.63769408310831 -1.75471098209821 -0.75914234333433
 7 -5.11483490809081  0.39952977107711  0.78615903420342
 6 -4.29997970407041 -0.70140996299630  0.84896291949195
 6 -2.91020002540254 -0.36687611331133  1.20955130933093
 6 -2.94081752015201  1.04745741404140  1.56407713841384
 6 -4.39647664256426  1.51379212801280  1.14841187108711
 6 -2.96513159525953  1.19014130223022  3.14854626352635
 6 -1.98837229822982 -0.65883114451445  0.00242420072007
 6 -0.41854927752775 -0.54169851705171  0.37821195049505
 6  0.46692782998300 -0.87996150905091 -0.70657603810381
 8  0.16705794589459 -1.26098150575058 -1.83469980168017
 8  1.79115092559256 -0.64758215461546 -0.31647843674367
 7 -7.08159860776078  2.62740833063306  0.27541623712371
 6 -6.06613589258926  3.37734871067107  0.78930246384638
 6 -6.36466371947195  4.83228751815181  0.75226591379138
 6 -7.71666437343734  4.88249888138814  0.31132952425242
 6 -8.14999927152715  3.44400359565957 -0.01513896759676
 6 -5.36980493719372  5.87918038393839  1.10723548404840
 6 -8.64322211981198  5.97090812451245  0.08199518491849
 6 -8.51755564686469  7.14945106370637  0.86651290109011
 7 -9.15711798439844  0.69115197629763 -0.51107514121412
 6 -9.85043130283028  1.83801375447545 -0.68411473557356
 6 -11.21778087468747  1.51543988308831 -1.03645536503650
 6 -11.27829023292329  0.12845820992099 -1.20136885088509
 6 -9.87708338903890 -0.41386336063606 -0.79714473057306
 6 -12.29176800050005  2.44087465846585 -1.37980475527553
 6 -12.39870441674167 -0.83222063216322 -1.68791960046005
 6 -12.27022451085108 -1.01311372257226 -3.24603972257226
 7 -7.30526999529953 -1.38999861346135 -0.10765544254425
 6 -8.31710194999500 -2.20719589168917 -0.51529648484848
 6 -7.84716086168617 -3.54524279177918 -0.43862113941394
 6 -6.58840272437244 -3.50556489348935  0.00827909600960
 6 -6.19201179757976 -2.11931021232123  0.13335613981398
 6 -8.64886235363536 -4.81008385078508 -0.78549702810281
 6 -5.37520199049905 -4.34529841334133  0.32749562216222
 8 -5.20344918281828 -5.59120360376038  0.27607463816382
 6 -4.20837441684168 -3.24939072887289  0.60288015331533
 6 -3.61353198409841 -3.63509873117312  1.99971034393439
 8 -3.67202880348035 -3.06688342454245  3.02340502160216
 8 -2.75105629932993 -4.79280400280028  1.69745832673267
 6 -2.19975056295630 -5.32301653075308  2.85824075957596
 6  2.85223773547355 -0.87814560916092 -1.26129733013301
 6  4.18344043304330 -0.49928810511051 -0.56115626462646
 6  5.10744422882288  0.28392465786579 -1.09551932463246
 6  5.05636405940594  0.98295094439444 -2.36494065936594
 6  6.41419575237524  0.41854370457046 -0.23579006420642
 6  7.60657819571957 -0.12309265616562 -1.05072202270227
 6  8.87586945954595 -0.06199132953295 -0.21532334513451
 6  10.23459408390839 -0.33534060576058 -0.97835880638064
 6  10.26751345154515 -1.76492742884288 -1.43449691469147
 6  11.51811468836884 -0.08878265906591 -0.10476960836084
 6  12.84507941564156 -0.34970902200220 -0.68407843074307
 6  14.03930339873987  0.02255105230523  0.14581164866487
 6  15.39791591649165 -0.14629835893589 -0.47666590639064
 6  15.63395506440644 -1.59987762156216 -0.83255287298730
 6  16.42721682758276  0.42175653565357  0.48093260046005
 6  17.76440102950295  0.70509190759076 -0.20505632023202
 6  18.85558592809281  1.25914413141314  0.85860629362936
 6  20.22389105830583  1.24667500100010  0.36809157235724
 6  20.44179553335334  2.02005030223022 -0.92036302900290
 6  21.15423635443544  1.80356329262926  1.43100846424642
 1 -4.22697418191819  3.59992551395140  1.48541312821282
 1 -10.15987638033803  3.96243707870787 -0.53639903140314
 1 -10.20201349074907 -2.54055339613961 -0.88940559275928
 1 -2.63428988588859 -1.02314062796280  2.02726341754175
 1 -2.22564616981698  1.85393897649765  1.13740439083908
 1 -2.21120557805781  0.79795024792479  3.68590230373037
 1 -3.15743080308031  2.14208826632663  3.52810497589759
 1 -3.95803924662466  0.59133381738174  3.58388080088009
 1 -2.09088157305731 -1.66748670907091 -0.26504041324132
 1 -2.10155182768277  0.11373862426243 -0.77204724432443
 1  0.15855233783378  0.35139975387539  0.88146854595460
 1 -0.24866266826683 -1.24172868806881  1.39905386058606
 1 -5.78404718011801  6.88973761786179  0.65216092529253
 1 -5.51512850225023  5.99241260436044  2.14501079817982
 1 -4.31712566856686  5.44906607300730  0.76583975957596
 1 -9.36599865236524  5.66146229432943 -0.46118634683468
 1 -9.15457667356736  8.18434917381738  0.76888651045104
 1 -7.70356982278228  7.40795719521952  1.37747613311331
 1 -12.07205131023102  3.19053937993799 -2.19733273797380
 1 -13.29173884308431  2.04490838203820 -1.54485567706771
 1 -12.45305703680368  2.98409706440644 -0.50443168716872
 1 -12.44985976437644 -1.70154960006001 -1.20951590649065
 1 -13.32805152405241 -0.27965470227023 -1.69308483598360
 1 -13.17667402000200 -1.68483316951695 -3.49965985048505
 1 -12.04310787498750  0.06268173057306 -3.93894739043904
 1 -11.42571885118512 -1.64033890099010 -3.39449806980698
 1 -9.25639524252425 -4.81855259815982 -1.66393965806581
 1 -7.91290065486549 -5.50482048624863 -0.76270588358836
 1 -9.40317020192019 -4.95530055135514 -0.08891071367137
 1 -3.55074577047705 -3.30339359005901 -0.20560583208321
 1 -1.34391255775578 -4.79989642934293  3.37618053335334
 1 -2.88868847744774 -5.45346696429643  3.71199403830383
 1 -1.74909302080208 -6.23198247144714  2.68686263916392
 1  2.64621392549255 -1.82265410131013 -1.60823478847885
 1  2.89607708530853 -0.30986670707071 -2.09627277947795
 1  4.46779768536854 -1.15422763796380  0.21977519351935
 1  4.07587655115512  1.33980269066907 -2.83185155485549
 1  5.40522593429343  1.93709396829683 -2.22830929912991
 1  5.78582589018902  0.67068817631763 -3.12203093409341
 1  6.65945800870087  1.40478447844785  0.13234587738774
 1  6.33894801420142 -0.09716775417542  0.79698941564156
 1  7.38060544524452 -1.01231046624663 -1.30651197479748
 1  7.71670410631063  0.61827503560356 -1.92561548514851
 1  8.91042309390939  1.04530241524152  0.25068270047005
 1  8.90808929762976 -0.82142764896490  0.69123698739874
 1  10.29896744814481  0.42939547724772 -1.59210409990999
 1  9.24457944344434 -2.12873084958496 -1.95803172797280
 1  11.12671522722272 -1.87431421532153 -2.04299854375438
 1  10.35177806380638 -2.57608955095510 -0.55819525922592
 1  11.41102878377838  0.98240047024702  0.30846233373337
 1  11.37691074447445 -0.62878884018402  0.65360598219822
 1  13.05433875277528 -1.37789595079508 -1.05998366596660
 1  12.90383413591359  0.30602129312931 -1.66172953425343
 1  13.85090652735274  0.98959151515152  0.57948529152915
 1  13.94798755185519 -0.49071867656766  0.91166768326833
 1  15.47652094059406  0.40776026102610 -1.37949230723072
 1  15.40213765666567 -2.27549784188419  0.09780832693269
 1  14.95402845354536 -1.96188856445645 -1.62170958605861
 1  16.73735336473647 -1.58127365226523 -1.15953742324232
 1  16.21083628432843  1.52320015371537  0.86304284858486
 1  16.44959940714071 -0.44997417251725  1.35404816601660
 1  18.06885782448245 -0.36117266466647 -0.68253159355936
 1  17.58895596009601  1.52048936783678 -0.87021059685969
 1  18.68986977957796  2.26124028172817  1.05747375267527
 1  18.87617477777778  0.52909709070907  1.80514051435143
 1  20.39146405910591  0.07672382058206  0.30987805180518
 1  20.20208431503150  3.16538009990999 -0.69183277667767
 1  21.47156140824082  1.78282493529353 -1.34748611191119
 1  19.70191409580958  1.56791860266027 -1.67496446544654
 1  20.85752172737274  1.29666777587759  2.42559217641764
 1  22.27359906620662  1.68021925162516  1.23390835713571
 1  21.00381011091109  2.99411949524952  1.67648808930893

