%nproc=4
%Mem=2GB
# td=(NStates=1) CAM-B3LYP/6-31G(d,p) 

TD

0 1
12 -7.14965553855385  0.54554330243024  0.05954364176418
 6 -4.85668028602860 -1.97411859025903  0.46992352505251
 6 -4.73403333223322  2.82268071537154  1.16574293919392
 6 -9.33125786128613  3.09396489198920 -0.40281314101410
 6 -9.54637495119512 -1.72840835183518 -0.99759618871887
 7 -5.14644806940694  0.38080789888989  0.73054347264726
 6 -4.34978468456846 -0.69532935493549  0.84396241944194
 6 -2.89393839923992 -0.46141556725673  1.24775512971297
 6 -3.02507594599460  1.08124079237924  1.62698342904290
 6 -4.38091508640864  1.50588133693369  1.08176520642064
 6 -2.89547462956296  1.35664795289529  3.08030943984398
 6 -1.86495995699570 -0.67748300970097  0.09329328762876
 6 -0.47623504610461 -0.43463781098110  0.50083421272127
 6  0.50341147834783 -0.60568408130813 -0.66697207770777
 8  0.24620586068607 -1.00926633423342 -1.84830116181618
 8  1.74141595209521 -0.49477687408741 -0.18087487638764
 7 -7.08021846974697  2.60526611641164  0.30043873937394
 6 -5.99518879787979  3.35198617441744  0.71032456605661
 6 -6.31127838093809  4.77532182158216  0.65482616981698
 6 -7.68318102510251  4.92823345484548  0.32349074037404
 6 -8.11918619021902  3.46357555285529 -0.04258171187119
 6 -5.51017897459746  5.90782324822482  1.13703846434644
 6 -8.51164896249625  6.01996303000300  0.07315430083008
 6 -8.29794368566857  7.14822094069407  0.85709195899590
 7 -9.15735800840084  0.65302816391639 -0.38492252595260
 6 -9.90689694939494  1.82281223432343 -0.57157348144814
 6 -11.19268836543654  1.50092843194319 -1.08519023852385
 6 -11.26206861076108  0.11825718981898 -1.20487920192019
 6 -9.89680536123612 -0.32131410571057 -0.83386840294029
 6 -12.21956077977798  2.49125969696970 -1.45666244104410
 6 -12.45985053135314 -0.68183559365937 -1.67352816131613
 6 -12.40182767116712 -1.06253866506651 -3.18844396299630
 7 -7.25299476777678 -1.40486009960996 -0.16963164016402
 6 -8.33579381918192 -2.20393556565657 -0.65585054025403
 6 -7.87893403900390 -3.62403067056706 -0.54450172747275
 6 -6.59943382748275 -3.55542987998800 -0.06713844574457
 6 -6.19617221362136 -2.15819410071007  0.02899570377038
 6 -8.61129859725973 -4.74028687108711 -0.90834931333133
 6 -5.46506097639764 -4.41839572307231  0.30147301990199
 8 -5.33864270217022 -5.64136862026203  0.22819985068507
 6 -4.25848942834283 -3.30687647744774  0.64341420672067
 6 -3.58617924882488 -3.80307552885289  1.90101047394739
 8 -3.79971157175718 -3.32946968316832  3.01210389148915
 8 -2.77461865556556 -4.80283500590059  1.75418399929993
 6 -2.26297688558856 -5.38144237333733  3.01470640614061
 6  2.81463397509751 -0.72591038563856 -1.18981018141814
 6  4.14311640064006 -0.42527070337034 -0.45336548554855
 6  5.10403388778878  0.30508677407741 -1.00846061876188
 6  5.08736715971597  1.15320797009701 -2.24236840214021
 6  6.45296962976298  0.33042489268927 -0.16127261246125
 6  7.69344688258826 -0.05771611851185 -0.94453140364036
 6  8.99862173477348 -0.10842597299730 -0.06647846064606
 6  10.18432905740574 -0.47938501020102 -0.83385435593559
 6  10.16334303450345 -1.93687462356236 -1.24845831083108
 6  11.43980685758576 -0.28988276907691  0.09256012461246
 6  12.76589149684968 -0.49099315041504 -0.62168219111911
 6  13.95573504190419 -0.12372357515752  0.32486955445545
 6  15.42102822772277 -0.23333706280628 -0.33264150395040
 6  15.65786745564556 -1.70186782058206 -0.65484510221022
 6  16.43618772467247  0.45988034803480  0.52154666186619
 6  17.84689927932793  0.60908230663066 -0.20177599219922
 6  18.84118448794879  1.45300351735174  0.70578101110111
 6  20.23855252445244  1.50697103060306  0.02578734193419
 6  20.29077043084309  2.26858515571557 -1.22448344104410
 6  21.31343227402740  1.86047898419842  1.02987835123512
 1 -4.07438892339234  3.53557907930793  1.60283487038704
 1 -10.01762215491549  3.97710854585458 -0.54209960146015
 1 -10.40213350275027 -2.50337967876788 -1.30338699089909
 1 -2.74624108100810 -1.02894120802080  2.09045973717372
 1 -2.26972057725773  1.74221780438044  0.92137278767877
 1 -1.91531598909891  1.37198765166517  3.37659137263726
 1 -3.24734979497950  2.43237729522952  3.33874604000400
 1 -3.68491193389339  0.59056374037404  3.65604801760176
 1 -1.99343182808281 -1.77150711111111 -0.40616452565257
 1 -2.21884355685568  0.11363861426143 -0.69848988858886
 1 -0.27960147754775  0.56099071297130  0.84974537363736
 1 -0.28949675167517 -1.11615613081308  1.22401635683568
 1 -5.74404317971797  6.86436508060806  0.56992270147015
 1 -5.54484147354735  5.94744810791079  2.27327362446245
 1 -4.56585054105410  5.65632679907991  0.75034821042104
 1 -9.44246629912991  5.83061921002100 -0.73130335853585
 1 -8.84218543444344  8.04296503540354  0.83785340714071
 1 -7.46830629642964  7.34321072057206  1.70882926842684
 1 -11.87676178127813  3.17970829682968 -2.18498150285028
 1 -13.25958562776278  2.03012690389039 -1.77338853035304
 1 -12.43990572167217  3.13922257695770 -0.55992723672367
 1 -12.50910568896890 -1.56188563366337 -1.09881483638364
 1 -13.44841356025603 -0.17260399719972 -1.66343187068707
 1 -13.24946129872987 -1.80037472367237 -3.39130901540154
 1 -12.56925048924893 -0.07598213581358 -3.57195069076908
 1 -11.40872715201520 -1.53903877097710 -3.61265988598860
 1 -8.92980258325833 -4.96103684658466 -1.91990525462546
 1 -8.05308467326733 -5.53316332053205 -0.25211482448245
 1 -9.66734661956196 -4.65136015731573 -0.36000782338234
 1 -3.43423411931193 -3.49063231393139 -0.28802407390739
 1 -1.87101526802680 -4.65569200890089  3.52988590389039
 1 -3.15378498709871 -5.74211582918292  3.52628546744674
 1 -1.60302841434143 -6.22033130633063  2.58873282618262
 1  2.68346765086509 -1.88182001790179 -1.46745071007101
 1  2.66864434203420 -0.11155687608761 -2.14310746294629
 1  4.42333323892389 -0.84637685288529  0.45803901990199
 1  4.19010797429743  0.99918862926293 -2.92523089278928
 1  5.40072548424842  2.29027928682868 -1.81375784398440
 1  5.97097440504050  0.90200130763076 -2.97345607660766
 1  6.53334539743974  1.41686568656866  0.11706434923492
 1  6.46720083948395 -0.27048508590859  0.66416613331333
 1  7.50567795249525 -1.09403863906391 -1.34734605820582
 1  7.97920035593559  0.47117032513251 -1.88373129672967
 1  8.86909896149615  0.94362224722472  0.44746237843784
 1  8.87551604030403 -0.73178868506851  0.81809967366737
 1  10.21241879327933  0.16065860356036 -1.71648653815382
 1  9.44882986848685 -2.03219119561956 -1.85078100290029
 1  11.14066662236224 -2.27320410431043 -1.83061730563056
 1  10.16970985698570 -2.72426436843684 -0.53519295899590
 1  11.49604728562856  0.74443667386739  0.31311279877988
 1  11.23476653005301 -0.71777773907391  0.98361898349835
 1  12.91000431933193 -1.60891905310531 -0.99165683328333
 1  12.93739749224923  0.19735042604260 -1.48804216551655
 1  13.81128256495650  0.97979053505351  0.49996733973397
 1  13.86441919501950 -0.66978658335834  1.22172868936894
 1  15.38179146764676  0.36069555455546 -1.28620297829783
 1  15.75752319521952 -2.46803709580958  0.16886543264326
 1  14.90772382308231 -2.05005738133813 -1.49590700580058
 1  16.76907653705371 -2.13576910181018 -1.04243571307131
 1  16.11613681438144  1.41077891159116  0.84750129442944
 1  16.61960640784078 -0.14479365446545  1.49252201340134
 1  18.38311925062506 -0.28454500190019 -0.39765310571057
 1  17.79509657415742  1.26200351925193 -1.15362893869387
 1  18.68990978357836  2.54413857155716  1.05371337663766
 1  18.85897305760576  0.94982916391639  1.60622062236224
 1  20.30463537623762  0.29672582078208 -0.19140207620762
 1  19.90815492209221  3.19247280918092 -1.01185477887789
 1  21.19883413551355  2.27909456225623 -1.52738410171017
 1  19.79577348174818  1.88059987078708 -2.04533150215021
 1  21.48530450565056  1.11882999209921  1.91569118631863
 1  22.34098580488049  1.75374660436044  0.69673463976398
 1  21.18205793569357  2.89059914321432  1.46592703320332

