%nproc=4
%Mem=2GB
# td=(NStates=1) CAM-B3LYP/6-31G(d,p) 

TD

0 1
12 -7.14694526752675  0.61847059515952  0.13853154055406
 6 -4.87914253225323 -2.01569274767477  0.53115964866487
 6 -4.71477140604060  2.79389783708371  1.22728909380938
 6 -9.36375111061106  3.12163765926593 -0.33928678837884
 6 -9.57525783948395 -1.64767027802780 -0.96080250935093
 7 -5.06427985258526  0.38606842494249  0.74301471977198
 6 -4.34645435153515 -0.73300312231223  0.77836585978598
 6 -2.89615862126213 -0.43920334603460  1.08473882808281
 6 -2.96024946334633  1.04904757305731  1.60328105880588
 6 -4.33568056295629  1.41879262806281  1.05352238213821
 6 -2.88494357645765  1.22327461556156  3.09353076197620
 6 -1.92562602360236 -0.78884414581458 -0.01306734843484
 6 -0.42743016561656 -0.43615796299630  0.39174330363036
 6  0.55185632283228 -0.71429494239424 -0.75644102460246
 8  0.28528976907691 -1.09550495809581 -1.84123045474547
 8  1.80382219271927 -0.41192858925893 -0.33958074697470
 7 -7.02651309920992  2.60308589838984  0.19179787528753
 6 -5.97701698069807  3.31475245104510  0.80889442304230
 6 -6.38177543064306  4.70825511491149  0.81552223942394
 6 -7.63209591659166  4.85752638413841  0.43351174247425
 6 -8.07237150875088  3.40994018931893  0.03537608390839
 6 -5.48765672237224  5.80052251815182  1.08223298379838
 6 -8.47774557215721  6.11326235993599  0.09377636303630
 6 -8.41815570687069  7.13702982158216  0.81819806960696
 7 -9.15065733833383  0.75145800690069 -0.49987402110211
 6 -9.91409766946695  1.92428238133813 -0.61372769686969
 6 -11.19430852745274  1.48345668476848 -1.21553327282728
 6 -11.26692909680968  0.15504086818682 -1.24799351335134
 6 -9.91392707340734 -0.28448042234223 -0.89584460056006
 6 -12.31058988268827  2.50698126912691 -1.38925570037004
 6 -12.35374992129213 -0.79827723782378 -1.69151996049605
 6 -12.36179366776678 -1.17822023322332 -3.14518963756376
 7 -7.19344881318132 -1.37263687728773 -0.24073875087509
 6 -8.33999423922392 -2.23790896299630 -0.58612356755676
 6 -7.98332447804780 -3.61233950145014 -0.43265054235424
 6 -6.55241912601260 -3.53695803280328  0.00181844994499
 6 -6.16455905230523 -2.19464774607461  0.01650445464546
 6 -8.82055952335234 -4.77813065546555 -0.64520299869987
 6 -5.44812928322832 -4.38617250075007  0.22479535213521
 8 -5.27308614651465 -5.62845732913291  0.33288031873187
 6 -4.28565214461446 -3.46737252705271  0.56054591989199
 6 -3.66957758865887 -3.76260148144815  1.90632100500050
 8 -3.82461406200620 -3.24718145434543  2.98691137223722
 8 -2.82066326002600 -4.80265498789879  1.92400098099810
 6 -2.30129071697170 -5.17841207030703  3.17034196969697
 6  2.86694920662066 -0.67556535113511 -1.15839704010401
 6  4.04104619361936 -0.30860903720372 -0.50494064306431
 6  5.11053453785378  0.50895716111611 -0.94653442614261
 6  5.15846426942694  1.15966861616162 -2.22732689798980
 6  6.50604493729373  0.44163601380138 -0.18690517571757
 6  7.64020155805581 -0.02022236913691 -0.97604455495550
 6  9.01931380398040 -0.06481161156116 -0.28864067686769
 6  10.23254387888789 -0.52570964266427 -1.04410538103810
 6  10.16717341754175 -1.93320425652565 -1.58385185018502
 6  11.43782665956596 -0.33390717151715 -0.16754588598860
 6  12.91482639033903 -0.52729678077808 -0.77158718161816
 6  14.00200966936694 -0.05925712851285  0.11958902640264
 6  15.43718984388439 -0.19102283138314 -0.45180342014201
 6  15.66235790469047 -1.62597023082308 -0.74956457415742
 6  16.43042714861486  0.53291765176518  0.54626913411341
 6  17.80669525892589  0.41216261466147 -0.09787560216022
 6  18.84701507100710  1.27207542454245  0.72764319731973
 6  20.20407907710771  1.34702503600360  0.34461922512251
 6  20.36460781458146  2.22935123232323 -0.92390338303830
 6  21.00265119591959  2.06632956925693  1.42032739613961
 1 -4.01302278677868  3.48844436583658  1.46590117701770
 1 -9.98778917161716  3.94854568956896 -0.45018040954095
 1 -10.41317460686069 -2.32275161596160 -1.15099175137514
 1 -2.41758821572157 -1.08845715961596  1.94359505070507
 1 -2.25944955015502  1.69697327992799  1.05989664006401
 1 -1.98147260476048  0.77349780268027  3.68376208970897
 1 -2.69651471147115  2.39020307780778  3.37604977037704
 1 -3.76140958365837  0.84958964296430  3.65942835563556
 1 -1.95870835573557 -1.87013697409741 -0.39746365556556
 1 -2.17494916741674 -0.18803155275528 -0.78978901850185
 1 -0.41804532193219  0.55361997589759  0.93744414351435
 1 -0.24087188918892 -0.99494400960096  1.14144810001000
 1 -5.72383115851585  6.49622826692669  0.30595630483048
 1 -5.41635862526253  6.30266362946295  2.27104340144014
 1 -4.38482243824383  5.49604077047705  1.09513268886889
 1 -9.31175322782278  5.98023417151715 -0.71956218441844
 1 -9.02934415031503  8.10738147704770  0.58964858665867
 1 -7.81399086488649  7.28552495199520  1.89048743424342
 1 -12.20397450255026  3.46247657365737 -2.10395340004000
 1 -13.33282295149515  2.27170106130613 -1.52012320382038
 1 -12.35112684378438  3.07260591529153 -0.33068431243124
 1 -12.38718349674967 -1.60038948404840 -0.89784473937394
 1 -13.25800451935194 -0.47435417221722 -1.70395592309231
 1 -13.28027438003800 -1.72821750795080 -3.35890577507751
 1 -12.47794135833583 -0.18821335893589 -3.62476597229723
 1 -11.57199347864787 -1.90008487558756 -3.62413103310331
 1 -8.94639424242424 -4.85109585248525 -1.74741800590059
 1 -8.33718308310831 -5.76952695689569 -0.28491810481048
 1 -9.89497938283828 -4.94163918521852 -0.20394221682168
 1 -3.60619131503150 -3.50774402510251 -0.22158743024302
 1 -1.64419258575858 -4.25791223092309  3.54300721602160
 1 -2.92737234583458 -5.21445306290629  3.98878171707171
 1 -1.69313742524252 -6.18495776897690  3.03415736863686
 1  2.88698800290029 -1.76934877077708 -1.63480744574457
 1  2.89425690329033 -0.10093581398140 -2.07864101630163
 1  4.02278318391839 -0.74634684988499  0.48285150115012
 1  4.28514747824782  1.18101681208121 -2.75937430713071
 1  5.31237664936494  2.18842910181018 -2.04534100230023
 1  5.76165347294729  0.79232033953395 -3.10512924392439
 1  6.63429549244924  1.59467346734673  0.01390403320332
 1  6.26898101750175 -0.22323036043604  0.68020773747375
 1  7.44906229092909 -1.08754798999900 -1.19505082868287
 1  7.53224566046605  0.63135634373437 -1.80546346994699
 1  9.17330938253825  0.88049593459346 -0.03361572937294
 1  8.84391287998800 -0.60144565076508  0.64403226692669
 1  10.34084163556355  0.08200073777378 -1.82794768426843
 1  9.30293527902790 -2.11670964746475 -2.34254017881788
 1  10.97415997169717 -1.96481326522652 -2.19203344724473
 1  10.09219210521052 -2.74700664266427 -0.75707514721472
 1  11.54384206510651  0.66619885008501  0.36828831633163
 1  11.46876993039304 -1.10159612091209  0.51820244184418
 1  12.99180249914991 -1.64532269346935 -1.11402907050705
 1  12.91610536303630  0.06855754675468 -1.71034439573957
 1  13.91389282598260  0.87217977397740  0.31436877987799
 1  14.00934368746875 -0.49484908960896  1.16305282178218
 1  15.31011429992999  0.32976246124612 -1.44440879887989
 1  15.29249669256926 -2.24296458855886  0.16740528662866
 1  14.95102815351535 -1.80175255085509 -1.57882529762976
 1  16.74349397879788 -1.82001752665267 -0.96320779027903
 1  15.98900410111011  1.54491232493249  0.54243078737874
 1  16.29004345154515 -0.03970314541454  1.51291405260526
 1  18.13801474017402 -0.60141668906891 -0.12054539493949
 1  17.86919398389839  0.84796211511151 -1.14394797059706
 1  18.55490628322832  2.25056921462146  1.01334934023402
 1  18.94209136943694  0.70317449844985  1.68498849914991
 1  20.35562047474748  0.30623677187719  0.00747781178118
 1  19.76673077967797  3.10310387228723 -0.88577217061706
 1  21.39053330543054  2.53791044384438 -1.17457882118212
 1  20.04641854625463  1.35888769956996 -1.78303527252725
 1  21.12466844204420  1.52500060916092  2.49747936513651
 1  22.01787349364936  2.08901013071307  1.25558052435244
 1  20.61607133703371  3.05891597489749  1.70515095559556

