%nproc=4
%Mem=2GB
# td=(NStates=1) CAM-B3LYP/6-31G(d,p) 

TD

0 1
12 -7.15463603660366  0.58692744084408  0.10590827822782
 6 -4.82180679867987 -1.91996317471747  0.48502503520352
 6 -4.89900982988299  2.80948939623962  1.10624698959896
 6 -9.49440417591759  3.10442593809381 -0.42054491419142
 6 -9.49636995069507 -1.76885239623962 -0.83385981508151
 7 -5.12721614621462  0.47655747384738  0.74673509180918
 6 -4.36492619871987 -0.68386820882088  0.74045206840684
 6 -2.83437244264426 -0.33361278697870  1.03837419161916
 6 -3.00187362576258  1.14509717801780  1.46944767546755
 6 -4.43169016391639  1.53788453725373  1.12837986788679
 6 -2.89771485358536  1.30606289438944  3.04884629352935
 6 -1.91685514651465 -0.52657791919192 -0.10474651635164
 6 -0.40191761436144 -0.35747009420942  0.45363949324932
 6  0.54761589878988 -0.62327584048405 -0.63178855935594
 8  0.32318355845585 -0.92873828142814 -1.84748107980798
 8  1.89769157965797 -0.35748314471447 -0.24947173607361
 7 -7.09578002590259  2.62971856165617  0.32758145364536
 6 -6.11208048704871  3.37898887468747  0.71787532113211
 6 -6.48081533463346  4.75535982538254  0.64348503570357
 6 -7.74407711471147  4.83921455295530  0.25112350365037
 6 -8.18374264586459  3.47726692199220  0.01359390569057
 6 -5.59848780548055  5.96502896879688  1.12525728622862
 6 -8.60463826142614  5.93528456215622  0.11749873527353
 6 -8.57990188148815  7.04557067566757  0.85901215101510
 7 -9.11083335593559  0.63946680778078 -0.48795282898290
 6 -9.94156041574157  1.84401435453545 -0.63121944604460
 6 -11.22432152875287  1.43085142424242 -1.02144386388639
 6 -11.31583398729873  0.06840220432043 -1.14210292429243
 6 -9.92028770947095 -0.37721969626963 -0.73918893499350
 6 -12.36405522922292  2.33127369836984 -1.24581135593559
 6 -12.42637718401840 -0.82139955005501 -1.71482229072907
 6 -12.34265175357536 -1.19711212241224 -3.20518563716372
 7 -7.15079454775478 -1.40025963956396 -0.13608828582858
 6 -8.24631487128713 -2.23982915501550 -0.48003295849585
 6 -7.75347149274927 -3.58295656315632 -0.43449072637264
 6 -6.40400428452845 -3.53283762076208 -0.13357508940894
 6 -6.16695929232923 -2.13597187848785  0.16204900910091
 6 -8.58972644004400 -4.84198704110411 -0.76692517091709
 6 -5.30776524682468 -4.32136602010201  0.13399627222722
 8 -5.05217405530553 -5.57186166956696  0.18452548324832
 6 -4.15554913431343 -3.35230101990199  0.54013387868787
 6 -3.58328895979598 -3.63620884218422  1.83397377027703
 8 -3.77917951855186 -3.06506324252425  2.94454713581358
 8 -2.73546474017402 -4.78936365876588  1.84040262116212
 6 -2.25922651055106 -5.24277850695070  3.06532146764676
 6  2.80587309900990 -0.67917571217122 -1.23125432583258
 6  4.15559764876488 -0.38748692499250 -0.62975312431243
 6  5.15461894629463  0.38575484088409 -0.92242201490149
 6  5.11513993699370  1.44231688098810 -2.04593875917592
 6  6.43781811461146  0.36900875107511 -0.10578706390639
 6  7.62741027892789  0.02212186528653 -0.98816576707671
 6  8.87019889248925 -0.00806593699370 -0.07085889868987
 6  10.09832045654565 -0.48176524822482 -0.75446641714171
 6  10.10749744994499 -1.90251118721872 -1.37070053505351
 6  11.40077295419542 -0.31443522432243  0.13979484808481
 6  12.70131503920392 -0.54097814891489 -0.58773879677968
 6  13.94868433683368 -0.31452265506551  0.33340040754075
 6  15.33332945784579 -0.33675740484048 -0.37772601240124
 6  15.69816148504850 -1.80063769756976 -0.84252387008701
 6  16.41864597049705  0.33861822182218  0.58606311351135
 6  17.85824041344134  0.47548894729473 -0.10511632623262
 6  18.87809817931793  1.13992220922092  0.73061349434944
 6  20.30533920312031  1.26386672017202  0.08208297149715
 6  20.30147150095010  2.23346164336434 -1.19317030973097
 6  21.32926385718572  1.85154809110911  1.17734309770977
 1 -4.14188567306731  3.46846236763676  1.54208879577958
 1 -10.06129652235223  3.97449828482848 -0.64479987148715
 1 -10.15245853525352 -2.43538287908791 -1.48285493769377
 1 -2.43822027892789 -1.02384069796980  1.87898859005901
 1 -2.05878948414841  1.64750833343334  1.01101175157516
 1 -2.03016747424742  0.94288474137414  3.45135884938494
 1 -2.98771383138314  2.28158221572157  3.41033319871987
 1 -3.88050149284928  1.00348503250325  3.46240865366537
 1 -1.90397288218822 -1.58084804520452 -0.54815872507251
 1 -2.17319899239924  0.20222747314731 -0.93818385798580
 1 -0.27376089348935  0.72419703360336  0.77695809490949
 1 -0.29052685468547 -0.95598011321132  1.43486744194419
 1 -6.07752652805281  7.14174281838184  0.86292200140014
 1 -5.59461645104510  5.77659102220222  2.24179047614761
 1 -4.69822377837784  5.76459762616262  0.78805198079808
 1 -9.38151020352035  6.03019916801680 -0.77442767096710
 1 -9.21094231013101  7.80066080498050  0.68484810661066
 1 -7.86348581438144  7.50784718421842  1.76233461896190
 1 -12.13290739583958  2.81417174317432 -2.32750575527553
 1 -13.25207487668767  1.65843973517352 -1.47940913241324
 1 -12.57644937603760  2.95429408410841 -0.46816806080608
 1 -12.37026180458046 -1.93889333443344 -1.20630558545855
 1 -13.39247796669667 -0.43256999379938 -1.49500502800280
 1 -13.30933728632863 -1.85641032723272 -3.43545342984298
 1 -12.38213177737774 -0.23666820442044 -3.84301779747975
 1 -11.38576485578558 -1.63377824492449 -3.41549016901690
 1 -9.11567117011701 -4.84835557845784 -1.70824408850885
 1 -8.06763612841284 -5.77175717991799 -0.89267888088809
 1 -9.40855073997400 -4.99388440974097 -0.10817263986399
 1 -3.25262595849585 -3.42604585528553 -0.18864413591359
 1 -1.70472863936394 -4.58243468316832  3.49150206550655
 1 -2.93223283188319 -5.97472909050905  3.56936977587759
 1 -1.67877598909891 -6.08643791699170  2.92077603050305
 1  2.75032433653365 -1.71950378627863 -1.60876484148415
 1  2.66723420102010 -0.05384110451045 -2.42644579677968
 1  4.53745465106511 -1.34539675487549 -0.01270805480548
 1  4.16367533103310  1.66352506290629 -2.48938730843084
 1  5.35918132983298  2.46697695659566 -1.61843831203120
 1  5.78911621922192  1.44432554005401 -2.87861659265927
 1  6.52382444534453  1.38474247424742  0.44945758855886
 1  6.28304242364236 -0.51045908330833  0.69990970767077
 1  7.48277566226623 -0.95418465366537 -1.36842816641664
 1  7.74900733663366  0.81178438653865 -1.85010793439344
 1  9.19780183178318  1.00635852085209  0.60007763996400
 1  8.79808829752975 -0.68847435363536  0.95871373507351
 1  10.23054060546055  0.13910644834483 -1.55210009950995
 1  9.25941092659266 -1.84888286478648 -2.10225615041504
 1  10.91243379907991 -2.09458624252425 -2.02657690159016
 1  9.86045893189319 -2.68363030503050 -0.71280071977198
 1  11.40929861076108  0.66957918811881  0.42656414391439
 1  11.29270232363236 -0.83153911521152  1.02771339293929
 1  12.70028334723472 -1.40518868006801 -1.08889655725573
 1  12.91226497899790  0.09136982798280 -1.49194255555556
 1  13.72927436413641  0.75259781578158  0.72289963296330
 1  13.85820857395740 -1.25798540324032  1.09202571907191
 1  15.35509879837984  0.37727721272127 -1.20887524552455
 1  15.54972241514151 -2.45629592169217 -0.02916437033703
 1  15.07164021472147 -2.07658003360336 -1.70315773087309
 1  16.65997562696270 -1.83332885778578 -1.30708217771777
 1  16.20749595029503  1.38564639833983  0.62629917421742
 1  16.36604105130513 -0.29106828192819  1.52664542574257
 1  18.36624756345635 -0.56731327872787 -0.70886422682268
 1  17.67340440494050  1.13997131603160 -0.97655123092309
 1  18.63901469406941  2.05637979567957  1.17838584388439
 1  18.83554071437144  0.68505268626863  1.56897689798980
 1  20.56007091979198  0.15007115531553 -0.38160109610961
 1  19.89272337893789  3.32908647054705 -1.01979557295730
 1  21.34004825692569  2.39016566936694 -1.59309067236724
 1  19.80935483988399  1.69967177797780 -2.04969193819382
 1  21.31709768496850  1.09187729682968  1.88588820602060
 1  22.36041774807481  1.87154838453845  0.85623058935894
 1  21.08028775867587  2.75295537883788  1.64800524102410

