%nproc=4
%Mem=3GB
# td=(NStates=1) iop(3/107=0140000000,3/108=0140000000) CAM-B3LYP/6-31G(d,p) 

TD

0 1
12 -7.15470016171617  0.64119250275027  0.17433380338034
 6 -4.86862567906791 -1.95129235983598  0.44007941034103
 6 -4.76637266786679  2.82571128902890  1.05502560776078
 6 -9.37924468896890  3.07937549054905 -0.30880335563556
 6 -9.53631972997300 -1.70376214191419 -0.96243304820482
 7 -5.09131616281628  0.36962305290529  0.70586841084108
 6 -4.38007025432543 -0.71448259145915  0.72603049774978
 6 -2.89681590219022 -0.48164656265627  1.26368203730373
 6 -3.10240346724673  1.05319402100210  1.62128840814081
 6 -4.42105233993399  1.48986363746375  1.07698209210921
 6 -3.01175735653565  1.11837465676568  3.12311762636264
 6 -1.98484421412141 -0.58836482568257  0.04369818011801
 6 -0.50354606380638 -0.45903915191519  0.44947833013301
 6  0.43425534873487 -0.66620324222422 -0.68688847894789
 8  0.20802101890189 -1.03198697639764 -1.82114950805081
 8  1.77169576797680 -0.63196313471347 -0.20516590419042
 7 -7.08214585798580  2.61826503640364  0.33743466756676
 6 -6.10934107790779  3.39376314371437  0.75016089218922
 6 -6.33529843824382  4.76074293789379  0.79704796349635
 6 -7.65285007030703  4.87458926412641  0.26996312271227
 6 -8.12948247574757  3.48204514331433  0.10784878347835
 6 -5.33442547644765  5.80273974767477  1.15416557175718
 6 -8.43868387638764  6.13753402300230  0.16251686418642
 6 -8.23356176617662  7.30376952665267  0.69328338763876
 7 -9.11006004710471  0.79165616001600 -0.42071864576458
 6 -9.93511099739974  1.82525584988499 -0.60689350285028
 6 -11.20047400010001  1.45636508100810 -1.07443230293029
 6 -11.24601408860886  0.14835238103810 -1.17729775807581
 6 -9.90211781538154 -0.38627882128213 -0.89742194349435
 6 -12.27120805850585  2.57702294369437 -1.32786223892389
 6 -12.37371116401640 -0.74370049384938 -1.71999132973297
 6 -12.13177508640864 -1.20158035033503 -3.08586923812381
 7 -7.24843780618062 -1.40470530623062 -0.05426810191019
 6 -8.29838416471647 -2.23399194469447 -0.46292787268727
 6 -7.89917195699570 -3.70482103350335 -0.46635693549355
 6 -6.61768955945595 -3.54477745984599 -0.11247332903290
 6 -6.13392712441244 -2.19290724652465  0.14657649304930
 6 -8.66077841734174 -4.79901600000000 -0.76788017111711
 6 -5.33021848474847 -4.35690925432543  0.21218619271927
 8 -5.19363035533553 -5.58921577857786  0.18549449804980
 6 -4.16799130173017 -3.39394684208421  0.50807912951295
 6 -3.48711288808881 -3.64608255095510  1.81197716621662
 8 -3.72435521892189 -3.08187554545455  2.91198455665567
 8 -2.74690004280428 -4.68239685818582  1.73636267376738
 6 -2.22426138313831 -5.16808201410141  2.95425282568257
 6  2.75201152155216 -0.75456374527453 -1.18791230843084
 6  4.14494537973797 -0.50119538743874 -0.56558912171217
 6  5.08709420072007  0.26932346034603 -1.03289616661666
 6  4.88936266186619  1.26343401870187 -2.23781791679168
 6  6.39554583328333  0.39877049304931 -0.32513303770377
 6  7.62222367496750 -0.16025457345735 -1.05295562426243
 6  8.89615732733273  0.03997218111811 -0.26409251165117
 6  10.13750921152115 -0.55577724092409 -1.00448616861686
 6  9.95585886248625 -2.16231411131113 -1.30660762676268
 6  11.41484614841484 -0.23632852395240 -0.00706866936694
 6  12.81579931543154 -0.42097213071307 -0.66245375047505
 6  14.00185145694569 -0.15585129942994  0.17586399799980
 6  15.39728571957196 -0.20027911151115 -0.42091774427443
 6  15.69261553255326 -1.60768915721572 -0.91297312361236
 6  16.40405739843984  0.35941245854585  0.48720345504550
 6  17.84093168086809  0.51300503010301 -0.13213974097410
 6  18.76087650625063  1.27494557305731  0.77592084878488
 6  20.35194799919992  1.37680711321132  0.29291599759976
 6  20.46793963976398  2.35113241834183 -0.93849854575458
 6  21.22052711971197  1.84850655055506  1.43002694269427
 1 -4.13153351685169  3.53715696709671  1.49891598739874
 1 -10.22358448174817  3.85974824932493 -0.56600112631263
 1 -10.23006743084308 -2.59879541464146 -1.11829964936494
 1 -2.80690797799780 -1.12442264496450  1.95392188288829
 1 -2.37224069036904  1.75496755785579  1.40235388438844
 1 -2.01045413181318  0.77024613101310  3.44417475487549
 1 -2.85685279437944  2.25923514631463  3.11830985318532
 1 -3.95204800530053  0.58771392569257  3.59388107330733
 1 -2.17244236323632 -1.54306497729773 -0.41862987008701
 1 -2.25261163016302 -0.01708408860886 -0.70936767136714
 1 -0.29135456415642  0.52017160446045  1.04772863586359
 1 -0.22399081938194 -1.29562032863286  1.19626308460846
 1 -5.52349652735274  6.79503701570157  0.41946177747775
 1 -5.57668914021402  6.08916179757976  2.17624963746375
 1 -4.27985282988299  5.57478174617462  1.06677741034103
 1 -9.42712297209721  5.91292467446745 -0.52295364806481
 1 -9.05621468516852  7.97941766276628  0.69302907860786
 1 -7.25090302240224  7.44809164556456  1.21315027532753
 1 -12.20879135213521  3.33299244634463 -2.25284111561156
 1 -13.23282057975798  2.00916965936594 -1.40946667486749
 1 -12.33656468916892  3.33973130723072 -0.49694013351335
 1 -12.63389535443544 -1.68601952475248 -1.27734123502350
 1 -13.26731903100310  0.04003129262926 -1.70452620702070
 1 -12.86336153535354 -1.90670433253325 -3.53345430353035
 1 -12.16018642434243 -0.19198767006701 -3.77888686708671
 1 -11.13810865026503 -1.65154618181818 -3.26610488868887
 1 -9.20998561716172 -4.53586008680868 -1.67094315731573
 1 -8.08076246144615 -5.73313926722672 -0.84659461456146
 1 -9.51729590859086 -4.99020746914691 -0.06830909960996
 1 -3.36867438593859 -3.39453605920592 -0.32516025412541
 1 -1.49464285188519 -4.46583879727973  3.23823554115412
 1 -2.99401583888389 -5.34109363426343  3.88825986368637
 1 -1.82626314681468 -6.28215900070007  2.74860822192219
 1  2.86989504430443 -1.64280090289029 -1.57128857755776
 1  2.61840828212821 -0.11717363256326 -2.07766882438244
 1  4.33626411311131 -0.92702111591159  0.18297969816982
 1  3.88553386488649  1.17240278297830 -2.59174966066607
 1  5.09191612381238  2.45785620952095 -1.79912735113511
 1  5.72664223272327  1.33352454335434 -2.96158241514151
 1  6.81654983888389  1.42182216281628  0.03636325022502
 1  6.39605747784779 -0.29968730543054  0.52867906340634
 1  7.38931105390539 -1.33269394239424 -1.19121387858786
 1  7.68102066056606  0.39389849284928 -1.91519234213421
 1  8.86106215051505  1.14562405990599 -0.08601617351735
 1  8.77023014381438 -0.38526687938794  0.77702382578258
 1  10.41951658345835 -0.13574742694269 -2.03167832583258
 1  9.17466707580758 -2.37896618011801 -1.88045642754275
 1  10.89062820342034 -2.50200359965997 -1.72246760486049
 1  9.91628382548255 -2.88012212691269 -0.28413580728073
 1  11.37764940654065  0.75670210361036  0.51384915571557
 1  11.37932552805281 -0.86733803140314  0.78829514961496
 1  12.67098505100510 -1.46871429072907 -1.03364563606361
 1  12.91601743164316  0.14340927692769 -1.70845517921792
 1  14.11647306760676  0.71767713101310  0.57279210791079
 1  14.02678098869887 -0.97104348324832  1.00174254825483
 1  15.31529193059306  0.51700509750975 -1.21376264506451
 1  15.87242103890389 -2.58773811501150 -0.30114825032503
 1  14.91590323472347 -2.09347386738674 -1.67689906340634
 1  16.60123840344034 -1.51596249324932 -1.64524103740374
 1  15.76475974947495  1.30171850555056  0.85292120842084
 1  16.45388946674667 -0.20479676447645  1.50703919861986
 1  18.33472020972097 -0.47863437743774 -0.38054825042504
 1  17.73734104370437  1.09406830093009 -1.22729847344734
 1  18.44910396729673  2.35380664866487  0.94018596539654
 1  18.91725768826883  0.73931877137714  1.70392363786379
 1  20.57225705800580  0.40838183578358 -0.22187629542954
 1  20.07653447194719  3.32921369786979 -0.61257344204420
 1  21.41770557135714  2.29896103820382 -1.30946892809281
 1  19.46267466506651  1.80663095329533 -1.53315169956996
 1  21.10580443394339  1.47822346324632  2.37398106690669
 1  22.25786367916792  1.96681715241524  1.12045869946995
 1  20.85528560706071  2.90339645684568  1.75031216791679

