%nproc=4
%Mem=2GB
# td=(NStates=1) CAM-B3LYP/6-31G(d,p) 

TD

0 1
12 -7.09793036603660  0.66107485558556  0.13334102150215
 6 -4.84215883388339 -1.87289846824682  0.49383591629163
 6 -4.81335126402640  2.77319576687669  1.13122948784878
 6 -9.44223895939594  3.08937443294329 -0.28749160886089
 6 -9.44679499319932 -1.72744825582558 -0.84923135223522
 7 -5.06311973657366  0.40821063916392  0.72605302360236
 6 -4.34704441054105 -0.66090591259126  0.81810983418342
 6 -2.95623462886289 -0.38147757345735  1.23423377757776
 6 -2.94331777017702  1.11769443774377  1.68827955865587
 6 -4.35929292419242  1.50871161996200  1.08734576447645
 6 -2.85467054915492  1.42216450455046  3.15576698559856
 6 -1.96151961296130 -0.68548380978098  0.04155811411141
 6 -0.46360378297830 -0.52683703090309  0.40902503180318
 6  0.37735887308731 -0.72399591249125 -0.72445782628263
 8  0.11621286138614 -1.03079848744875 -1.85988231993199
 8  1.67297910841084 -0.51044844124412 -0.31174796369637
 7 -7.11364181208121  2.60971656145615  0.23997269276928
 6 -6.06945622462246  3.34468544434443  0.73616715031503
 6 -6.36153340644064  4.80415470487049  0.72346303350335
 6 -7.74374708170817  4.83334396589659  0.38010640194019
 6 -8.17845211681168  3.47577677297730  0.08034058035804
 6 -5.55559351605161  5.99923238913891  1.15870063056306
 6 -8.63419121672167  5.91558259195920  0.32294928032803
 6 -8.54422831413141  7.21872799139914  0.78858510831083
 7 -8.96516878947895  0.71135399649965 -0.63190722442244
 6 -9.83768002770277  1.83659361246125 -0.54853117721772
 6 -11.18229732633263  1.41506984608461 -1.08016973647365
 6 -11.24033643754376 -0.00920555645565 -1.33504221822182
 6 -9.76126180688069 -0.41252322662266 -0.94090910701070
 6 -12.22623144684468  2.48805937693769 -1.27983475827583
 6 -12.31149569586959 -0.73427083718372 -1.82365317381738
 6 -12.18275576397640 -1.21473388458846 -3.27219233783378
 7 -7.23082255055506 -1.32757237083708 -0.08359303630363
 6 -8.21222146194619 -2.18525369746975 -0.51978693389339
 6 -7.84560070567057 -3.59625789328933 -0.46692396969697
 6 -6.42165604970497 -3.55553989098910 -0.17486921882188
 6 -6.16154875127513 -2.18356663796380  0.04897770197020
 6 -8.55892335973597 -4.82948579097910 -0.71316979537954
 6 -5.25779024932493 -4.35390927442744  0.26402927552755
 8 -5.06778561646165 -5.51304578797880  0.25263229392939
 6 -4.08347192659266 -3.34726051585158  0.63396326162616
 6 -3.47206783768377 -3.70362558385839  1.99996036893689
 8 -3.69914151475148 -3.06572330853085  2.97219990109011
 8 -2.58145933963396 -4.73331805420542  1.84535311621162
 6 -1.97510809870987 -5.20353458255826  3.10538547404740
 6  2.74413692539254 -0.67285508010801 -1.28238943934393
 6  4.06744883388339 -0.37142531883188 -0.54594474347435
 6  5.05033851825182  0.38154441984198 -1.04818459115912
 6  4.92745116811681  1.19387203650365 -2.30140430573057
 6  6.41924625742574  0.39814166436644 -0.29737622282228
 6  7.68354589248925 -0.02595294219422 -1.15543249374937
 6  8.90897276987699 -0.29868499889989 -0.24656646944694
 6  10.19029965446545 -0.51156822852285 -1.02634360486049
 6  10.08410511071107 -2.02303323942394 -1.51334479947995
 6  11.38468134503450 -0.31728550935093 -0.05604473587359
 6  12.72214712241224 -0.33535758685869 -0.82783280618062
 6  13.89577904630463 -0.07930913371337  0.15862292979298
 6  15.34950107500750 -0.25258898799880 -0.40182842264226
 6  15.60983265216522 -1.72688032183218 -0.79036865456546
 6  16.31255536143614  0.42720708070807  0.46445095229523
 6  17.81799638903890  0.41744314271427 -0.06633244784478
 6  18.69416978647865  1.25422363936394  0.84422485548555
 6  20.08970763996400  1.32904323782378  0.37680244344434
 6  20.24008536233623  2.16407470467047 -0.90479147184718
 6  21.14996592739274  1.88127106340634  1.39374473787379
 1 -4.26391787628763  3.53003852525253  1.78604319121912
 1 -10.13711410411041  3.96540737573757 -0.53720911241124
 1 -10.36425971537154 -2.45447478827883 -0.95640229242924
 1 -2.63683013991399 -1.08047636153615  2.21231192239224
 1 -2.12152575777578  1.53402698529853  1.24181483188319
 1 -1.84464892239224  1.14234468736874  3.48188190169017
 1 -3.00351541154115  2.48262231973197  3.18997116251625
 1 -3.69857330003000  0.96060074407441  3.72438485128513
 1 -2.06714919981998 -1.57093705410541 -0.48590249944995
 1 -2.35002667516752  0.11149840024002 -0.66405644524452
 1 -0.29489300670067  0.43651826572657  0.98906930603060
 1 -0.17521532353235 -1.43324783998400  1.01945590079008
 1 -5.71892066746675  6.79905854995499  0.19616532573257
 1 -5.80118710811081  6.33950731383138  2.14157045414542
 1 -4.50674463046305  5.54885605200520  1.23460663626363
 1 -9.38028008050805  5.75550169826983 -0.53031325952595
 1 -9.28403961986199  7.96620735963596  0.50585020682068
 1 -7.56493595939594  7.66907330683068  1.41751013651365
 1 -11.86666077117712  3.05964629062906 -2.01018402310231
 1 -13.23417308650865  2.17768165936594 -1.48223941544154
 1 -12.34809654075408  3.28358701340134 -0.53059430343034
 1 -12.33957873627363 -1.57964740984098 -1.09607456235624
 1 -13.11452017091709  0.08500176337634 -1.79436496399640
 1 -13.02587894049405 -1.65988067426743 -3.52218210271027
 1 -12.25968953315332 -0.18539307690769 -3.86550004570457
 1 -11.27472375167517 -1.75863073017302 -3.29128774877488
 1 -8.85726532953295 -4.84351509440944 -1.60785404950495
 1 -8.09133849864986 -5.78424842904290 -0.41828144114411
 1 -9.62499238413841 -4.94288931023102 -0.06839866246625
 1 -3.22930362626263 -3.61067431813181 -0.15053032453245
 1 -1.53455162166217 -4.35533197289729  3.78152106740674
 1 -3.00225983458346 -5.80423204080408  3.62143498239824
 1 -1.16826493799380 -5.99080835403540  2.95905985888589
 1  2.73289259335934 -1.80695253115312 -1.58706267126713
 1  2.43070054765477 -0.09505522592259 -2.18403155535553
 1  4.34954586018602 -1.33321553675368  0.16016923292329
 1  3.90860982448245  1.56151486188619 -2.28912728242824
 1  5.54278969066907  2.20966122502250 -2.06315278347835
 1  5.29702701030103  0.61052215971597 -3.08761749274928
 1  6.77779984288429  1.27578157815782  0.10573321612161
 1  6.31616573597360 -0.24531256865687  0.72438215491549
 1  7.34951233593359 -1.24860409560956 -1.40048137173717
 1  7.91596403230323  0.60725393349335 -2.04156708030803
 1  9.05208726032603  0.59463734873487  0.44840247244724
 1  8.61772026072607 -1.06712221842184  0.44131199489949
 1  10.35521307270727  0.04527706540654 -1.92159704920492
 1  9.16368135363536 -2.14635261176118 -2.16745267006701
 1  10.94953750945094 -2.47118390229023 -2.09445368926893
 1  9.61851473747375 -2.85154709670967 -0.81864130383038
 1  11.03580126102610  0.83140537073707  0.31914340184018
 1  11.28508156155616 -1.23501946324633  0.82295291689169
 1  12.95664898379838 -1.34476263746375 -1.38264593219322
 1  12.53787754025402  0.56971766276628 -1.47669103040304
 1  13.77913935063506  0.95035759175918  0.64568191119112
 1  13.91624437753775 -0.84714431913191  0.99410592709271
 1  15.58685197369737  0.29330881588159 -1.44810916891689
 1  15.56424386728673 -2.40779107120712 -0.04079553345334
 1  15.23300635133513 -2.15106748234823 -1.75728314341434
 1  16.85853548294829 -1.77024254915492 -0.99862133163316
 1  16.02742794349435  1.64801263496350  0.75326187048705
 1  16.12309675687569  0.02301312621262  1.61319408060806
 1  18.10123106180618 -0.68800534793479 -0.12166550695070
 1  17.88689575407541  0.75197251615161 -1.10469404520452
 1  18.41868266086609  2.31880603830383  0.97268527382738
 1  18.38275543584358  0.75461964296430  1.87851785208521
 1  20.57734264696470  0.29773592179218  0.05009207320732
 1  19.86639074567456  3.24273783568357 -0.68265185858586
 1  21.20175442754276  2.39387604040404 -1.34700606390639
 1  19.58117202160216  1.73622543334333 -1.83707067606761
 1  21.18586456165617  1.45864397349735  2.50575019221922
 1  22.06647835413541  1.93067429712971  1.10143510981098
 1  20.99770950085009  3.05105518881888  1.66013645414541

