%nproc=4
%Mem=2GB
# td=(NStates=1) CAM-B3LYP/6-31G(d,p) 

TD

0 1
12 -7.13053362636264  0.62300104820482  0.08792648004800
 6 -4.87339195719572 -2.03957513591359  0.61948848154815
 6 -4.83644357325733  2.79047749504951  1.13762012691269
 6 -9.37885262076208  3.11119661516152 -0.48940179987999
 6 -9.49042935663566 -1.72484799579958 -0.84305073417342
 7 -5.08119154375438  0.43804362246225  0.60620103840384
 6 -4.34480418651865 -0.70661048304830  0.80647867106711
 6 -2.93450245564556 -0.41464088978898  1.15644599879988
 6 -3.02936637503750  1.06904957325733  1.63037376807681
 6 -4.40165716061606  1.54961571037104  1.05682271217122
 6 -3.18417349944995  1.03511579967997  3.27788919781978
 6 -1.92645610661066 -0.57834309570957  0.07518147644765
 6 -0.50561798439844 -0.28703305050505  0.43904803410341
 6  0.49785092229223 -0.73749726262626 -0.67133251375137
 8  0.27506874697470 -1.09854526212621 -1.72983931563156
 8  1.75554736523652 -0.40256765316532 -0.20017680658066
 7 -7.15881632953295  2.56339192899290  0.38981767726773
 6 -6.03498277727773  3.30633160896090  0.80432396599660
 6 -6.37502475557556  4.66172046144614  0.76889757695770
 6 -7.64967767476748  4.87241787328733  0.36317470877088
 6 -8.07972224382438  3.44217341264126  0.04043658995900
 6 -5.42344030073007  5.78473093899390  1.22063682418242
 6 -8.44991278887889  6.13165419911991  0.17879486488649
 6 -8.26526041734173  7.25465158375838  0.85346159595960
 7 -9.10015228782878  0.64602746384638 -0.65449948364836
 6 -9.77265352505250  1.84447440054005 -0.78256458055806
 6 -11.16114521112111  1.47190552965297 -1.19466118561856
 6 -11.32188459235924  0.13615897999800 -1.20305901990199
 6 -9.92492817351735 -0.34522649694969 -0.88751376747675
 6 -12.17278610231023  2.53917448844884 -1.48764553935394
 6 -12.39525407170717 -0.73101051115112 -1.69672048054805
 6 -12.48220570897090 -1.16184859605961 -3.18492361096110
 7 -7.14358382668267 -1.42074168776878 -0.18666334333433
 6 -8.27467770757076 -2.18821399349935 -0.46536149134913
 6 -7.89769591519152 -3.64195246274627 -0.39268654595460
 6 -6.51067495159516 -3.62510684768477  0.03892216031603
 6 -6.19796239263926 -2.29599788108811  0.17030983518352
 6 -8.67755522292229 -4.72580542294229 -0.91851032943294
 6 -5.32481695199520 -4.43729761326133  0.22772564516452
 8 -5.22454129202920 -5.57853233663366  0.24941197189719
 6 -4.30212379177918 -3.37489327912791  0.63864372967297
 6 -3.65559619051905 -3.69507472877288  1.95014538743874
 8 -3.80888248884889 -3.08759549574958  3.02911559265927
 8 -2.79091028472847 -4.77577229962996  1.86410499139914
 6 -2.16984757265727 -5.30595482458246  3.08692362786279
 6  2.80316282798280 -0.64724251885189 -1.22759395979598
 6  4.11665375437544 -0.41244942124212 -0.50765091409141
 6  5.23120660506051  0.28571483688369 -1.05287506020602
 6  5.21943036603660  1.07877052635264 -2.45504967026703
 6  6.49878421122112  0.51454330453045 -0.22174866006601
 6  7.66822436033603 -0.08683903080308 -0.98791574207421
 6  8.96522839543954  0.07996286588659 -0.18071988478848
 6  10.21561218571857 -0.48300537223722 -0.95707667816782
 6  10.05067176737674 -1.94562549864986 -1.29673313831383
 6  11.48276115301530 -0.14245802660266 -0.09293842524252
 6  12.82788769646965 -0.53328737983798 -0.76083610651065
 6  13.94952442084208 -0.09603080588059  0.10637770527053
 6  15.37728385328533 -0.19373310241024 -0.50895913571357
 6  15.62251392029203 -1.63153078687869 -1.05671528922892
 6  16.43994810071007  0.26893125312531  0.52264677187719
 6  17.90253484288429  0.47650904930493 -0.03952976757676
 6  18.75082545204521  1.27391560856086  0.82651308430843
 6  20.21532020122012  1.37986832033203  0.31676643984398
 6  20.30339169296930  2.14188248544855 -1.09373036573657
 6  20.99584051485149  2.05881881818182  1.32436780018002
 1 -4.14111559605961  3.53631915331533  1.36358094499450
 1 -10.09816020872087  4.02739357435743 -0.44746013751375
 1 -10.28839212861286 -2.52687202800280 -1.17892454465447
 1 -2.82560901780178 -1.11797011091109  2.21689238043804
 1 -2.18357196239624  1.68910249284929  1.25772642304230
 1 -2.18452290979098  0.65233568646865  3.59692340584058
 1 -3.47852291229123  2.05816987448745  3.72314447984798
 1 -3.78021146384638  0.36584126812681  3.55851826462646
 1 -1.99388187308731 -1.66263622402240 -0.44277818701870
 1 -2.07849952245224 -0.02299504910491 -0.99123916351635
 1 -0.36699021642164  0.73129774367437  0.75032543164316
 1 -0.40763856585659 -0.79994450965097  1.46276023122312
 1 -5.73118189358936  6.71914055815582  0.63012872207221
 1 -5.36264325372537  5.87704106720672  2.34305060216022
 1 -4.32151610761076  5.56832799919992  0.77746092169217
 1 -9.21391344384439  6.07892404050405 -0.45224545274527
 1 -8.83971518741874  8.11379211811181  0.57035665746575
 1 -7.71938140394039  7.39847624712471  1.69973835933593
 1 -11.85908001310131  3.16083640964096 -2.37373037773777
 1 -13.09197886708671  2.16642053325333 -1.85723691519152
 1 -12.73059479057906  3.25752440714071 -0.83807505150515
 1 -12.44361914031403 -1.73479292439244 -1.32225718061806
 1 -13.43915263416342 -0.21794853165317 -1.45888141564156
 1 -13.49675602820282 -1.51758644484448 -3.41860174467447
 1 -12.26148971317132 -0.15617015461546 -3.92049554525453
 1 -11.62715899519952 -2.03463833093309 -3.39924854485449
 1 -8.85976557955796 -4.79210995389539 -2.05087835193519
 1 -8.07984734953495 -5.64007401160116 -0.89489910291029
 1 -9.86555644054405 -4.86566158745875 -0.58052987558756
 1 -3.43988468436844 -3.57047029772977 -0.09802507400740
 1 -1.47743591009101 -4.37072351205121  3.46862977827783
 1 -2.88272788138814 -5.45359697729773  3.82768560746075
 1 -1.51596970847085 -6.16696596979698  2.79006295919592
 1  2.50649995409541 -1.70838267416742 -1.64104806980698
 1  2.79909738733873  0.09138341794179 -2.10419357155716
 1  4.18120902650265 -0.96645886108611  0.28044126012601
 1  4.37923688718872  0.74111282168217 -3.29488785848585
 1  4.98498391009101  2.32255251415141 -2.03657012521252
 1  6.41458876647665  1.07483859135914 -2.85304403540354
 1  6.56923898679868  1.48184218421842 -0.09348670587059
 1  6.56513063246325  0.03229519211921  0.77248696539654
 1  7.54037142184218 -1.10126936213621 -1.12845416901690
 1  7.73767620352035  0.40644385248525 -1.95342826642664
 1  9.18452050365036  1.03107099209921  0.11213884608461
 1  8.88715720442044 -0.46836234243424  0.86172403610361
 1  10.41045859725973  0.02700523822382 -1.72470736023602
 1  9.44882986848685 -2.23315129162916 -2.17734365916592
 1  10.86326888258826 -2.34002078597860 -1.84695893979398
 1  9.73816670267027 -2.36005794779478 -0.13028246794679
 1  11.62095977687769  0.91059328952895 -0.01672018451845
 1  11.61462451585159 -0.65800176147615  0.86637725932593
 1  13.22304562346235 -1.79216737793779 -0.80337800540054
 1  12.93387714021402 -0.10751006000600 -1.69649301060106
 1  13.82930436713671  1.07658021402140  0.38949629262926
 1  13.97920067316732 -0.67877748244825  0.94924144064406
 1  15.50823411191119  0.61882136713671 -1.27333169116912
 1  15.90599804270427 -2.43109340144014 -0.28953040694069
 1  14.75775882658266 -1.96724910051005 -1.60768818391839
 1  16.74291392079208 -1.48152367726773 -1.58421989148915
 1  16.18613381408141  1.30912874657466  1.06724326862686
 1  16.41456590379038 -0.57064623972397  1.34359712091209
 1  18.20334127282728 -0.45137168456846 -0.13241658205821
 1  17.73635069956996  0.89673699259926 -1.05775935173517
 1  18.35726651925193  2.30767492519252  1.22312031733173
 1  18.72418957925793  0.36086026702670  1.74649464976498
 1  20.89038395109511  0.37379352755276  0.08142520652065
 1  20.05535964256426  3.29318288018802 -0.87034062746275
 1  21.47886213831383  2.17013366616662 -1.48903026632663
 1  19.56704060846085  1.96824863566357 -1.85851282028203
 1  20.93554953015301  1.51306941604160  2.36036565376538
 1  22.20418212451245  2.17294852455246  1.15998096439644
 1  20.57520725062506  2.98036812011201  1.69260970147015

