%nproc=4
%Mem=2GB
# td=(NStates=1) CAM-B3LYP/6-31G(d,p) 

TD

0 1
12 -7.18307888088809  0.61215996409641  0.04937262466247
 6 -4.82305692369237 -1.90260143854385  0.46001253395340
 6 -4.65115504440444  2.79784823212321  1.06409277417742
 6 -9.35880061556156  3.24742023752375 -0.40250311001100
 6 -9.53865417911791 -1.74033954495450 -0.74259068816882
 7 -5.09521294589459  0.42840265836584  0.62951336963696
 6 -4.36261596769677 -0.67343716571657  0.67147517071707
 6 -2.91394039943994 -0.39360878657866  1.03997435163516
 6 -2.95495893429343  1.14407707600760  1.46863759445945
 6 -4.30304729962996  1.47186793559356  1.02749977987799
 6 -2.86048113021302  1.30586287438744  3.04545595449545
 6 -2.02290575157516 -0.62644790619062 -0.06818285998600
 6 -0.48630605320532 -0.41307565476548  0.33588771807181
 6  0.49209034623462 -0.69384289718972 -0.64332971347135
 8  0.16165740584058 -1.07694310191019 -1.85156148784878
 8  1.71329313981398 -0.51601899829983 -0.17607439633963
 7 -7.03436388428843  2.62045763556356  0.29562825832583
 6 -5.94382366136614  3.28650962676268  0.78294182778278
 6 -6.31819907300730  4.72075636503650  0.84173486068607
 6 -7.57293000000000  4.76682731423142  0.33021141244124
 6 -8.06832110371037  3.55878507380738 -0.03874132783278
 6 -5.42109006570657  5.88656112201220  1.31877663816382
 6 -8.33798159575957  6.07202823652365  0.17578456385639
 6 -8.45649954125413  7.23178929752975  0.81113736353635
 7 -9.17006927952795  0.67424028512851 -0.47368140184018
 6 -9.83775003470347  1.84968492159216 -0.63469979407941
 6 -11.13381247784778  1.44742308140814 -1.06423814331433
 6 -11.19994239813981  0.10902626672667 -1.22139085308531
 6 -9.88952463316332 -0.41721369566957 -0.74543956005601
 6 -12.31003982768277  2.49392996399640 -1.19710648544855
 6 -12.43671821812181 -0.73131054115412 -1.64776558505851
 6 -12.38987647604761 -1.09157156835684 -3.08104322292229
 7 -7.20319978827883 -1.43472308590859 -0.16472114911491
 6 -8.25986622642264 -2.23517868996900 -0.47129208440844
 6 -7.89375552115211 -3.59912818031803 -0.50928820612061
 6 -6.51141502560256 -3.54802913991399 -0.00311204310431
 6 -6.24173677007701 -2.18126640794079  0.16335914011401
 6 -8.66206367376738 -4.85633847624762 -0.61845032343234
 6 -5.33377784808481 -4.36917080058006  0.36445931853185
 8 -5.27438627652765 -5.58695317871787  0.22315934663466
 6 -4.14311789118912 -3.28668445824582  0.49431929722972
 6 -3.49825045594559 -3.61095631693169  1.77602797569757
 8 -3.79507110771077 -3.14375111131113  2.88514119521952
 8 -2.66097729142914 -4.58371309370937  1.62143072397240
 6 -2.10024061196120 -5.14799902900290  2.88196313181318
 6  2.78883139483948 -0.78939673427343 -1.26452765316532
 6  4.04445653465346 -0.60382855915592 -0.61859200820082
 6  5.12735622002200  0.10511677707771 -1.03151292399240
 6  5.08936735973597  1.04920757005701 -2.24064823012301
 6  6.43506783958396  0.18909075927593 -0.19178566376638
 6  7.64682222012201 -0.29480982788279 -1.04662161266127
 6  8.98430030263026 -0.14389952035204 -0.25674748754875
 6  10.30372099659966 -0.63066013771377 -0.91135210571057
 6  10.14848154835484 -2.12441337743774 -1.33321678667867
 6  11.45873875077508 -0.29596337713771 -0.00226935833583
 6  12.86816172387239 -0.49349340044004 -0.65818584148415
 6  13.97406687508751 -0.19812101490149  0.24346141364136
 6  15.27487361226123 -0.33403713281328 -0.41645988578858
 6  15.84039570847085 -1.70180781458146 -0.82852246994699
 6  16.40684479037904  0.46186054605461  0.43694820202020
 6  17.79182377177718  0.52417381578158 -0.10849666426643
 6  18.57569793929393  1.45449366636664  0.80454088708871
 6  20.10559922912291  1.55653598709871  0.36418118131813
 6  20.19484083788379  2.29908820602060 -1.00767175987599
 6  20.88027895869587  2.29631256755676  1.43836920032003
 1 -4.02313379787979  3.58919444084408  1.43318790569057
 1 -9.89597999069907  4.02869370437044 -0.70876626812681
 1 -10.25245853525352 -2.47201654245425 -0.91140779297930
 1 -2.73200965786579 -1.13215152905291  1.92623331453145
 1 -2.11108471367137  1.79117269986999  1.14075472587259
 1 -1.92376683418342  1.09978043094309  3.53096681018102
 1 -2.77908296829683  2.36816087358736  3.45861802720272
 1 -3.76333977667767  0.91461614561456  3.43037545034503
 1 -1.96842932783278 -1.61586154655466 -0.25843975317532
 1 -2.14479615211521  0.12354960536054 -0.96862690229023
 1 -0.39862337973797  0.56552116601660  0.82862326142614
 1 -0.45358316031603 -1.00879539473947  1.21851580678068
 1 -5.82235101050105  6.92325096919692  0.90537624682468
 1 -5.42907989738974  5.87092045514551  2.38094439153915
 1 -4.29505346134613  5.84155532193219  0.92797597319732
 1 -9.22340439293929  5.93972012011201 -0.49805003320332
 1 -9.35303651955195  7.80677141604160  0.42644226602660
 1 -7.87239670547055  7.64336073557356  1.68295668116812
 1 -12.05504961006101  3.36406673267327 -1.81645465016502
 1 -13.25847551675168  1.97359125032503 -1.31187237873787
 1 -12.26656838793879  3.17037569226923 -0.27563880788079
 1 -12.35476025442544 -1.59803924902490 -1.04762971787179
 1 -13.36402512141214 -0.18285502230223 -1.27493302080208
 1 -13.26230258285829 -1.63034772097210 -3.48948883338334
 1 -12.50827439163916 -0.00250478807881 -3.54407790349035
 1 -11.55197147644765 -1.80626549364936 -3.29044766476648
 1 -9.13168277127713 -4.96602734563456 -1.65711897599760
 1 -7.79854921972197 -5.48534853905391 -0.68932854585459
 1 -9.46217610251025 -4.84458948024803  0.18877705510551
 1 -3.48552924882488 -3.42976622732273 -0.25137040854085
 1 -1.40529869636964 -4.53397983768377  3.28931184648465
 1 -3.05661527012701 -5.16939855745575  3.45007784668467
 1 -1.54325243674367 -6.13484275747575  2.60491444434443
 1  2.43768307240724 -1.76843867976798 -1.76471043604360
 1  2.61981945954595 -0.13703942434243 -2.07546069826983
 1  4.30996190179018 -1.06525874107411  0.38779199519952
 1  4.00848981248125  1.21421013141314 -2.76473484318432
 1  5.56676208790879  1.99972023092309 -2.07231369956996
 1  5.74483179077908  0.58933004050405 -3.17153588458846
 1  6.65266732963296  1.24958895889589  0.00803344614461
 1  6.42575669506951 -0.40345838323832  0.58643836053605
 1  7.56918430313031 -1.20229946514651 -1.43661498509851
 1  7.95716815271527  0.21050425852585 -2.03919684328433
 1  8.99981203280328  0.92911079607961  0.05239287148715
 1  8.72807129582958 -0.64936044224422  0.71501936563656
 1  10.26498404980498 -0.10075753805380 -1.76828171767177
 1  9.28032301780178 -2.28766674317432 -2.05559148394839
 1  11.02628518421842 -2.46452323622362 -2.01689593349335
 1  9.85547843384339 -2.54462640464046 -0.31593103280328
 1  11.39487716861686  0.80099232943294  0.36919840734073
 1  11.53525657905791 -1.03657961926193  0.87567818941894
 1  13.08491181008101 -1.52848100930093 -1.10062773037304
 1  12.78656240874087  0.15277596859686 -1.64112747404740
 1  13.90504194089409  0.77490004600460  0.65590293329333
 1  13.80266301940194 -0.99100870557056  1.16314283078308
 1  15.11463475197520  0.20783026802680 -1.37826218421842
 1  15.83989143204320 -2.46475676777678 -0.04226568046805
 1  15.17906095679568 -2.13492586818682 -1.55588300340034
 1  16.84589421882188 -1.66696222112211 -1.22709417891789
 1  15.85809100980098  1.44942277597760  0.53601014531453
 1  16.36577102430243 -0.09498867396740  1.51043380458046
 1  18.23564450315031 -0.57594414181418 -0.10530387078708
 1  17.84785184968497  0.92563988288829 -1.10339391519152
 1  18.30025081768177  2.44832899059906  0.86321432673267
 1  18.41641880218022  1.20214439543954  1.91528152845284
 1  20.45048996169617  0.56098224642464  0.53854091809181
 1  19.72420652725273  3.25237879977998 -0.96648024142414
 1  21.29512376447645  2.44897154995500 -1.21760312361236
 1  19.77917182158216  1.70975278607861 -1.83851082008201
 1  20.61309728492849  1.91800991009101  2.40457007420742
 1  21.88469017531753  2.49273050275027  1.12381734803480
 1  20.47514724462446  3.35208529182918  1.61169160966097

