%nproc=4
%Mem=3GB
# td=(NStates=1) iop(3/107=0140000000,3/108=0140000000) CAM-B3LYP/6-31G(d,p) 

TD

0 1
12 -7.19384407610761  0.66975535903590  0.12484885488549
 6 -4.95318413491349 -1.96165339593959  0.45043044544454
 6 -4.90965699629963  2.82627134503450  1.24756486168617
 6 -9.50628739323932  3.15826337933793 -0.45219769506951
 6 -9.50363646164617 -1.70592235793579 -0.87559436433643
 7 -5.17268429962996  0.40932702330233  0.75043286728673
 6 -4.41411365866587 -0.75697684088409  0.68141603630363
 6 -2.93944016461646 -0.30321871987199  1.07019268836884
 6 -2.99716294319432  1.05135383698370  1.69025530483048
 6 -4.48502873757376  1.43125777687769  1.24658905280528
 6 -2.94527070787079  1.04416723602360  3.24613992859286
 6 -1.94883061276128 -0.52598858805881 -0.12569875957596
 6 -0.48332404160416 -0.29547279527953  0.40096347864786
 6  0.56885880908091 -0.66064268616862 -0.64432422252225
 8  0.36719693649365 -1.01028480618062 -1.72807020012001
 8  1.75972457085709 -0.47657759615962 -0.10904629222922
 7 -7.18031567496750  2.53579678957896  0.36918784288429
 6 -6.05754589838984  3.36842060946095  0.82913878997900
 6 -6.38528343674367  4.76282314591459  0.79735799449945
 6 -7.73054784008401  4.83296510171017  0.34171029742974
 6 -8.12113164066407  3.49201614041404  0.05992399099910
 6 -5.46398843274327  5.81865133883388  1.20934108930893
 6 -8.44109411741174  6.06097636723672  0.05527614011401
 6 -8.37287569756976  7.27228637833783  0.80559461876188
 7 -9.15539458055806  0.71146814121412 -0.68527510141014
 6 -9.94019150545054  1.85193851815182 -0.77586039953995
 6 -11.32616656935694  1.44975441994199 -1.12664752445245
 6 -11.27575706290629  0.17610515631563 -1.40150017831783
 6 -9.91942954655465 -0.31939213261326 -0.96546874817482
 6 -12.38539947764776  2.41163640504050 -1.33288274097410
 6 -12.44642843574357 -0.76479260306031 -1.73072240284028
 6 -12.35185709460946 -1.37354754705471 -3.08785943714371
 7 -7.27946090849085 -1.40718555425543 -0.10179285438544
 6 -8.29754408070807 -2.25795434093409 -0.44207578747875
 6 -7.93022506230623 -3.60830138153815 -0.40721102090209
 6 -6.57168495899590 -3.58469145124512  0.02562048034803
 6 -6.26980071177118 -2.13627158295830  0.07060889628963
 6 -8.69866220572057 -4.84757085548555 -0.61469485258526
 6 -5.41547701060106 -4.40240380378038  0.21886686078608
 8 -5.24677566986699 -5.63643050005000  0.15658160676068
 6 -4.22215671827183 -3.34210165756576  0.52770109170917
 6 -3.61033521032103 -3.69165710841084  1.82772874137414
 8 -3.70702348574858 -3.07218457635764  2.87740109830983
 8 -2.76645199799980 -4.71123974247425  1.69640867836784
 6 -2.20082903990399 -5.25429063496350  3.00582798319832
 6  2.85830215061506 -0.68721701060106 -1.10790430763076
 6  4.21767265246525 -0.29894516241624 -0.50114267706771
 6  5.19060455175518  0.49546607460746 -1.02000487748775
 6  5.11579530513051  1.31443911921192 -2.14670880588059
 6  6.53113939263926  0.53090370637064 -0.29929045344534
 6  7.66828828142814 -0.04351289928993 -1.02843317201720
 6  8.92738044964496 -0.00399221532153 -0.02370847324732
 6  10.21229669026903 -0.47174883808381 -0.83577929792979
 6  10.15716899349935 -1.95370325022502 -1.43242020802080
 6  11.40082474627463 -0.35289018011801  0.01641367886789
 6  12.88046578207821 -0.57919795329533 -0.73135064016402
 6  14.03628490029003 -0.28210392469247  0.15558196979698
 6  15.42895888688869 -0.15855493909391 -0.53085873837384
 6  15.82593886488649 -1.52874126242624 -1.04158598489849
 6  16.50719771247125  0.46792330963096  0.39534426912691
 6  17.95180276797680  0.52706643624362 -0.18626515351535
 6  18.86816723532353  1.22369044754475  0.74692794949495
 6  20.35707851225122  1.22752218471847  0.31594830083008
 6  20.46728957475748  1.88700600570057 -0.99896459235924
 6  21.15211027802780  1.87990969086909  1.42351629162916
 1 -4.03515387888789  3.37561081248125  1.71540763656366
 1 -10.31245336863686  3.90580285478548 -0.57679220542054
 1 -10.24147857195720 -2.47808334343434 -1.23283110251025
 1 -2.63833112031203 -1.03515371807181  1.78947543824382
 1 -2.36730019631963  1.82896495759576  1.15578922792279
 1 -1.70423350975098  1.00197930433043  3.30714105150515
 1 -3.37974508360836  2.14092331513151  3.47638566076608
 1 -3.69437223772377  0.46523167746775  3.87556924212421
 1 -1.95208032703270 -1.49213988478848 -0.48772677977798
 1 -2.20064643364336  0.14076169596960 -1.06156289088909
 1 -0.35605103380338  0.73053264056406  0.95257912091209
 1 -0.37262568286829 -1.20055082168217  1.06724018231823
 1 -5.55503968166817  6.57620513251325  0.52144197549755
 1 -5.32999447074707  6.21188406980698  2.19729174167417
 1 -4.39012385698570  5.48541280928093  0.86571730433043
 1 -9.28653891369137  6.18880226222622 -0.74915626832683
 1 -8.92758182188219  8.11911163216322  0.38472824852485
 1 -7.73057098919892  7.51472830923092  1.69151811211121
 1 -12.33068354135414  2.98678782588259 -2.37647347884788
 1 -13.56546384408441  1.94222296469647 -1.18272400060006
 1 -12.23908494119412  3.31514884898490 -0.45375581508151
 1 -12.33678564346435 -1.58207913071307 -1.23330683158316
 1 -13.31325362446245 -0.13426613711371 -1.43009876427643
 1 -13.22550774997500 -1.87207086918692 -3.42971392949295
 1 -12.12614302000200 -0.36622509380938 -3.83684266266627
 1 -11.42415725512551 -1.93622464966497 -3.01185946414641
 1 -9.09957457605760 -4.83795029582958 -1.72941900490049
 1 -8.03215760096010 -5.48541449474948 -0.43004295939594
 1 -9.60157433643364 -5.00259870827083  0.03434116541654
 1 -3.64601211971197 -3.54310091569157 -0.32963070117012
 1 -1.54646803440344 -4.39142135553555  3.38663038063806
 1 -3.03164960226023 -5.62994251915192  3.63070410811081
 1 -1.53543406390639 -5.97395818061806  2.55780914201420
 1  3.01635969076908 -1.70346696949695 -1.41985343404340
 1  2.58311475277528 -0.21015293049305 -2.10482153965397
 1  4.49013950065006 -0.76920533433343  0.49167056725673
 1  4.06129144064406  1.19534507720772 -2.51305179087909
 1  5.17110404260426  2.42451287518752 -2.07116455485549
 1  5.75832540104011  1.04274546544655 -2.83164942184218
 1  6.78785696959696  1.46958693929393 -0.09832021812181
 1  6.27808568066807 -0.04722205890589  0.60319651515152
 1  7.27003912671267 -1.16488716171617 -1.36328108530853
 1  7.85454801330133  0.67204630763076 -1.77611843474347
 1  9.13257930223022  1.02543204070407  0.17485991409141
 1  8.74724784558456 -0.65562391509151  0.93034915831583
 1  10.24835946774678  0.12827897569757 -1.73786894489449
 1  9.35156476557656 -1.98190647414742 -2.07406578847885
 1  11.15595473607361 -2.37443084238424 -1.95347070517052
 1  10.01303350045005 -2.76482059675968 -0.47558495219522
 1  11.37404904650465  0.65218165156516  0.27441521232123
 1  11.39330692619262 -1.12350364796480  0.90572689278928
 1  13.07188514101410 -1.67058447774777 -0.97742001350135
 1  12.95708153805380  0.03831876787679 -1.55502983668367
 1  13.58722014231423  0.71657702100210  0.60266509520952
 1  14.28803711431143 -0.97767414631463  0.91373374737474
 1  15.43472387378738  0.60976437343734 -1.31624289308931
 1  16.18438223502350 -2.39474881608161 -0.16627476297630
 1  15.06925857025703 -1.82019653965397 -1.66570794429443
 1  16.68290657025702 -1.72446334333433 -1.78053456675668
 1  16.21982525602560  1.39410774447445  0.85141105740574
 1  16.48871294909491 -0.11085737053705  1.30723921862186
 1  18.51573831153116 -0.42566908090809 -0.29109930553055
 1  17.77021433103310  1.24675356945695 -1.05908165176518
 1  18.43467252415241  2.26806807480748  0.65792773957396
 1  18.69096505900590  0.75182002150215  1.88679192469247
 1  20.56586641894189  0.21696269386939  0.23038893109311
 1  19.84596141464147  2.91776255275528 -0.93570575527553
 1  21.61816561736174  2.39533067516752 -1.37672565376538
 1  20.15170356795680  1.06083637383738 -1.81191957635764
 1  21.03167702120212  1.16794243514351  2.18873254205420
 1  22.09500739353935  2.25407587828783  1.12019867346735
 1  20.47637771627163  2.59286540374037  1.79387652435244

