%nproc=4
%Mem=2GB
# td=(NStates=1) CAM-B3LYP/6-31G(d,p) 

TD

0 1
<<<<<<< HEAD
12 -7.10773134613461  0.61392014011401  0.12232992039204
 6 -4.86482110011001 -1.91612279067907  0.59295582828283
 6 -4.91900182908291  2.82252069936994  1.14506087098710
 6 -9.45859059455946  3.12590808630863 -0.36262912261226
 6 -9.51972228592859 -1.72871838283828 -0.94212064116412
 7 -5.19768319291929  0.39681950005001  0.75309572787279
 6 -4.35505521162116 -0.63201302330233  0.85120314351435
 6 -2.92015102050205 -0.38439786548655  1.32818317251725
 6 -3.10637407580758  1.07091976027603  1.74040477117712
 6 -4.46057305220522  1.53029377817782  1.17505453535354
 6 -2.93915899799980  1.38016030413041  3.20902231113111
 6 -1.97355081608161 -0.60131539293929  0.15822978127813
 6 -0.53122054465447 -0.49056340354035  0.67963209250925
 6  0.45592672987299 -0.57456096899690 -0.44836021652165
 8  0.13637487758776 -0.97063247084708 -1.62047837953795
 8  1.75720753125313 -0.47585498189819 -0.14271106000600
 7 -7.17065751365137  2.59041463126313  0.31716041154115
 6 -6.13529280828083  3.40090106590659  0.77112064566457
 6 -6.53290054315432  4.79338362776278  0.84396508370837
 6 -7.79061176817682  4.86616724822482  0.42872126342634
 6 -8.23057732933293  3.48971816711671  0.07210975727573
 6 -5.48385634233423  5.91499396529653  1.07859261976198
 6 -8.60118791639164  5.99727076077608  0.02095908130813
 6 -8.69226311761176  7.13603972257226  0.77285353515352
 7 -9.17955022762276  0.61552441354135 -0.49069310301030
 6 -9.88863512321232  1.75115506860686 -0.66289261336134
 6 -11.25797489408941  1.48893723282328 -1.16322804230423
 6 -11.27435983988399  0.08981434553455 -1.31994070807081
 6 -9.94944062476248 -0.43866584088409 -0.88588360446045
 6 -12.27775659935994  2.52506307730773 -1.33185996079608
 6 -12.45471001730173 -0.80173758385839 -1.73125393389339
 6 -12.35783327172717 -1.06173858505851 -3.21858697729773
 7 -7.27056652495250 -1.43221283488349 -0.26025070207021
 6 -8.29733997379738 -2.29579475157516 -0.60334528972897
 6 -7.80608675427543 -3.61833010051005 -0.54539181648165
 6 -6.50091397549755 -3.60951528852885 -0.10085181708171
 6 -6.21963455985599 -2.18681696299630  0.01770457465747
 6 -8.58271573897390 -4.86098894129413 -0.81372985138514
 6 -5.26670114041404 -4.33732761626163  0.21568444104410
 8 -5.07591642954295 -5.54784926832683  0.41898892959296
 6 -4.23579715911591 -3.29110490029003  0.55484534983498
 6 -3.57245787668767 -3.70458567986799  1.85062543544354
 8 -3.68052965356536 -3.18700543674367  2.99284196529653
 8 -2.73522471617162 -4.70226494889489  1.64991357225723
 6 -2.04543513141314 -5.11899612871287  2.85917085258526
 6  2.79866237793779 -0.68825662026203 -1.13906510691069
 6  4.07389947894789 -0.37877605390539 -0.59513966296630
 6  5.16965044944494  0.31729799519952 -1.06557633033303
 6  5.03829225222522  1.07742039133913 -2.37429159445945
 6  6.45893022582258  0.39231108130813 -0.26574305950595
 6  7.70726826472647 -0.17940828772877 -1.08818576907691
 6  8.97251912451245 -0.16492162256226 -0.11490330313031
 6  10.25108573307331 -0.57958503020302 -0.92443341384138
 6  10.27115381558156 -1.98276921302130 -1.43444690969097
 6  11.46268914581458 -0.20669445024502 -0.12114124552455
 6  12.86045095279528 -0.47173122422242 -0.77166718961896
 6  14.03970343874387 -0.19084028682868  0.21992906040604
 6  15.48587471237124 -0.22487621672167 -0.46791503130313
 6  15.74896656555656 -1.63915154895490 -0.94773439113911
 6  16.50498460436044  0.31371573157316  0.42840734793479
 6  17.95791038043804  0.52138353675368 -0.25597141174117
 6  18.76412678217822  1.31921013801380  0.77740817381738
 6  20.30413908310831  1.35176551005101  0.28787355055506
 6  20.49603095689569  2.05840413761376 -0.98152914561456
 6  21.14789572037204  1.94474741104110  1.45719108250825
 1 -4.27015850035004  3.55874139553955  1.44101868876888
 1 -10.28314870757076  3.85139597459746 -0.72454784628463
 1 -10.15216850625063 -2.51041038183818 -1.13264991719172
 1 -2.75438189508951 -0.93782209610961  2.20908159935994
 1 -2.30492409760976  1.70909449204920  1.17643829422942
 1 -2.01168562606261  1.17477793069307  3.60336404990499
 1 -3.20352541254125  2.38689274677468  3.36919908530853
 1 -3.71465490819082  0.75431011501150  3.76959937273727
 1 -1.80424290919092 -1.54922488288829 -0.44176808600860
 1 -2.07039871237124  0.04979222962296 -0.75297533713371
 1 -0.34780829822982  0.49747436133613  1.06708710781078
 1 -0.47887568956896 -1.30365488068807  1.56174012921292
 1 -5.69491826722672  6.80770941504150  0.41996770597060
 1 -5.31511850125012  6.15875923902390  2.15915221232123
 1 -4.41820577657766  5.86304747114711  0.54729790539054
 1 -9.14060611311131  5.87134328242824 -0.94390461866187
 1 -9.28828004390439  8.08934967386739  0.40151977377738
 1 -8.05962542834284  7.46121252075208  1.55479386488649
 1 -11.82078618371837  3.33780410641064 -1.97425042974297
 1 -13.33170283948395  2.11711560276028 -2.06970816231623
 1 -12.67655938703871  2.87205586028603 -0.43441468546855
 1 -12.34106888528853 -1.76664610971097 -1.12799775467547
 1 -13.37701642054205 -0.21143788058806 -1.73204873237324
 1 -13.15484183678368 -1.70496518271827 -3.47591747624763
 1 -12.48430199439944 -0.14222876047605 -3.89033252895290
 1 -11.32205848514852 -1.45230009710971 -3.43999261926193
 1 -8.91857146014602 -4.81621236413641 -1.84513777787779
 1 -7.97543690849085 -5.68488849304931 -0.76710632363236
 1 -9.33077296219622 -5.03858888018802 -0.17033885648565
 1 -3.33078377427743 -3.27734098479848 -0.07249252075208
 1 -1.40504867136714 -4.16488292799280  2.93820673597360
 1 -2.87304691329133 -5.26041765936594  3.48885172407241
 1 -1.50103821532153 -6.14879415261526  2.47134108700870
 1  2.86240554465447 -1.78819065496550 -1.44876884188419
 1  2.73809128672867 -0.10736645704571 -1.96496964916492
 1  4.29722062766277 -0.99779199439944  0.26164938093809
 1  4.05420438393839  1.28331704210421 -2.66620499019902
 1  5.64210962266227  1.93367362626263 -2.30435690389039
 1  5.49092640024002  0.58513962146215 -3.30725945694569
 1  6.85255731863186  1.59317331733173 -0.33710106730673
 1  6.40690480988099  0.28311027362736  0.77102681938194
 1  7.58062544724472 -1.07466670187019 -1.31059238283828
 1  8.08809124502450  0.45082829092909 -1.98971189478948
 1  9.20776282788279  0.81605949094909  0.17521515371537
 1  9.03555204390439 -0.60579608580858  0.81789965366537
 1  10.51208876027603  0.07606014371437 -1.77139202870287
 1  9.56837182268227 -2.17131510801080 -2.39373529832983
 1  11.25755831153115 -2.35701248514851 -1.82876712061206
 1  10.11314420042004 -2.53719566156616 -0.50231967166717
 1  11.35066274717472  0.86981921212121  0.17677916541654
 1  11.55318837223722 -0.61382734403440  1.03218383998400
 1  12.94075739463946 -1.47305546674667 -1.19263693129313
 1  12.66788054055406  0.05680637163716 -1.73080644194419
 1  14.11827326402640  0.99352190819082  0.52937028002800
 1  14.04099685278528 -0.79140874557456  1.14405092159216
 1  15.37453074157416  0.26656614161416 -1.40145450345034
 1  15.69139658255826 -2.23145343744374 -0.04965641954195
 1  15.02413546424643 -2.15911828742874 -1.53309072417242
 1  16.65315494489449 -1.83772929782978 -1.53804527402740
 1  16.16905210591059  1.49443727742774  0.69900644494449
 1  16.36827127432743 -0.36190536563656  1.32597535873587
 1  18.22127306600660 -0.62162871027103 -0.46327966836684
 1  17.76165322982298  1.19831715061506 -1.17565114091409
 1  18.40279107170717  2.35308946664667  0.86136414171417
 1  18.86295345564557  0.83453763476348  1.79816981728173
 1  20.46452136483649  0.23571972017202  0.23830089408941
 1  20.00736484308431  3.14364792669267 -1.02766636003600
 1  21.60767501960196  1.93290994379438 -1.35790715401540
 1  20.11877578197820  1.47407921872187 -1.89812678167817
 1  21.23704968016802  1.33011112021202  2.48738835603560
 1  22.29190089638964  1.73410464016402  1.31238620492049
 1  21.08350808070807  3.03495357865787  1.58450889138914
=======
12 -7.15095566856686  0.57214596269627  0.13236092349235
 6 -4.83691830983098 -1.92563374177418  0.48072460516052
 6 -4.84641457035704  2.90727917521752  1.15574193909391
 6 -9.40827556305631  3.09939543504350 -0.46687954765477
 6 -9.47093740744075 -1.74425993699370 -0.82154858395840
 7 -5.13261668626863  0.51041085918592  0.69833025132513
 6 -4.31116082218222 -0.66686650865087  0.85623364656466
 6 -2.93156216161616 -0.26807623332333  1.30474082828283
 6 -3.01075451385138  1.11826449474947  1.72977370807081
 6 -4.35587258215822  1.54741549034903  1.12349937983798
 6 -3.07160224232423  1.26690897899790  3.18062947184719
 6 -1.87044050505051 -0.61726698809881  0.12030598889889
 6 -0.36331375397540 -0.48597294449445  0.50314444374437
 6  0.55046618381838 -0.76860037293729 -0.58241362186219
 8  0.23268450855086 -1.27338274587459 -1.68732506420642
 8  1.83591540204020 -0.47820521692169 -0.20924771367137
 7 -7.14123457135714  2.66012160196020  0.39910860636064
 6 -6.01602088108811  3.44480545634563  0.75883941754175
 6 -6.39777703080308  4.75251954135414  0.81872255945595
 6 -7.75789849684968  4.84138476997700  0.36266465776578
 6 -8.11758603020302  3.50005920122012 -0.02202965666567
 6 -5.53706166286629  5.93580604650465  1.11984674517452
 6 -8.63082087968797  6.05306634033403  0.15962294769477
 6 -8.44126801810181  7.15605172377238  0.84097034683468
 7 -9.03887616021602  0.64686754785479 -0.47663169686969
 6 -9.86766302600260  1.78500845394539 -0.65077140124012
 6 -11.08718781538154  1.41450979007901 -1.14618633813381
 6 -11.17098950285028 -0.01567620352035 -1.23229194319432
 6 -9.83379906060606 -0.43703567786779 -0.87561257735774
 6 -12.27546637033703  2.38753932493249 -1.28601537633763
 6 -12.27918246454646 -0.75491290139014 -1.74363517201720
 6 -12.26785427382738 -1.05889830103010 -3.18173329192919
 7 -7.11483095139514 -1.33742335593559 -0.25510018701870
 6 -8.22531277107711 -2.12489766186619 -0.59575453065307
 6 -7.73645979157916 -3.63007127462746 -0.55363264056406
 6 -6.48375225932593 -3.48995333233323 -0.16646837873787
 6 -6.11002359875988 -2.16254453575358 -0.01440863666367
 6 -8.51311877927793 -4.89203204560456 -0.86210468886889
 6 -5.22088655895590 -4.30081396489649  0.17029990259026
 8 -5.07704654255426 -5.56086056945695  0.23926095679568
 6 -4.07710128952895 -3.29525531533153  0.55149501480148
 6 -3.53673430433043 -3.63266848814881  1.88090846374637
 8 -3.65115671627163 -2.94675141134113  2.87561024212421
 8 -2.73738493219322 -4.74801952435244  1.87748632953295
 6 -2.36054664256426 -5.29542377147715  3.14251918741874
 6  2.77134964666467 -0.80658845344534 -1.28541974237424
 6  4.14497658665867 -0.60132830913091 -0.70351050005001
 6  5.16390987538754  0.36056232163216 -1.10965073777378
 6  5.03612203520352  1.26276892619262 -2.25288945424542
 6  6.31697603040304  0.36623847404740 -0.26201268646865
 6  7.67285482338234 -0.11979232613261 -1.02457940844084
 6  8.90791266386639 -0.11491662206221 -0.18949076187619
 6  10.09445006950695 -0.50101717341734 -0.92169313981398
 6  10.01507820802080 -1.87622855895590 -1.48111157615762
 6  11.30129300620062 -0.24893867466747 -0.04103323472347
 6  12.67265217291729 -0.43350740184018 -0.63899392229223
 6  13.89222869126913 -0.22001320412041  0.27318438593859
 6  15.25036116101610 -0.34250797989799 -0.40921916171617
 6  15.58226989588959 -1.66994462826283 -0.77168678637864
 6  16.35798990489049  0.45687004700470  0.45144965216522
 6  17.72347693709371  0.67420881928193 -0.16147196179618
 6  18.71630199969997  1.30854907190719  0.67011744474447
 6  20.23189185838584  1.26018635213521  0.19094385758576
 6  20.33177453125312  2.10133843104310 -1.05459645234523
 6  21.14119505030503  1.90930386668667  1.37009237263726
 1 -4.23168465296530  3.66884240564056  1.66119070597060
 1 -10.02048244094409  3.84401523652365 -0.58192358385839
 1 -10.23670696009601 -2.54718405920592 -1.27365401760176
 1 -2.57362381928193 -0.80570888478848  2.06333702490249
 1 -2.32868647384739  1.73525710831083  1.21551220162016
 1 -1.98485294279428  1.14501495439544  3.59955366886689
 1 -3.44332939293929  2.33055711321132  3.55804797019702
 1 -3.80330377307731  0.56500118411841  3.56906931973197
 1 -1.89549203410341 -1.69977993839384 -0.23812772197220
 1 -2.07343901640164 -0.01785453505351 -0.85673571317132
 1 -0.11428494589459  0.37531214511451  0.97786818591859
 1 -0.19978778077808 -1.10817533273327  1.36767072227223
 1 -5.97972674807481  6.97533617771777  0.86790249944995
 1 -5.75399238863886  6.11368473157316  2.29320561766177
 1 -4.35546950295030  5.85174634103410  1.11004418001800
 1 -9.17094914741474  6.02050819891989 -0.71619184738474
 1 -8.97756897279728  8.04390512941294  0.61689131093109
 1 -7.90522998879888  7.46594299379938  1.75664404990499
 1 -12.06524062916292  2.89761008700870 -2.15219822452245
 1 -13.16444611381138  1.72263615481548 -1.55926711821182
 1 -12.48450018111811  2.99842849754976 -0.39623086708671
 1 -12.20967574597460 -1.83613305840584 -1.29597455235524
 1 -13.14640335923592 -0.20844758155816 -1.38493402090209
 1 -13.28114446704670 -1.84674936113611 -3.38097798229823
 1 -12.53718728292829 -0.07352188978898 -3.55793928962896
 1 -11.29921620092009 -1.54775964306431 -3.48191681168117
 1 -8.89902950595060 -5.02647339023902 -1.93154641874187
 1 -7.79000836563656 -5.68823882808281 -0.92739235223522
 1 -9.26910679557956 -5.12944796609661 -0.19246106870687
 1 -3.42037273317332 -3.43233648434843 -0.30617588908891
 1 -2.01600976747675 -4.63112955265527  3.77978089338934
 1 -3.34465407400740 -5.62285390299030  3.53995683458346
 1 -1.67492560406041 -5.95011428462846  2.85984993789379
 1  2.68759806390639 -1.74492632853285 -1.53639760476048
 1  2.71280875847585  0.01801608120812 -1.96541969416942
 1  4.59133003860386 -1.06920913611361  0.21462467846785
 1  4.00994995849585  1.39448815921592 -2.86353472317232
 1  5.25729114081408  2.33758401730173 -1.95137160536054
 1  5.74925223282328  0.93503461096110 -3.09603833483348
 1  6.65088715161516  1.51741574157416  0.05586822962296
 1  6.14679879927993 -0.29877791519152  0.64663438013801
 1  7.28284566926693 -1.06316555175518 -1.32219354295430
 1  7.46395883178318  0.44017722582258 -1.92432535613561
 1  9.09860191179118  0.74807269226923  0.36646427862786
 1  8.83750223892389 -1.06807231343134  0.64210207390739
 1  10.22732028342834  0.18210074777478 -1.88024291379138
 1  9.21939692519252 -2.13641161766177 -2.14774069886989
 1  10.93166572227223 -2.38125490939094 -1.87988223212321
 1  9.88526141214122 -2.70478242024202 -0.72493193289329
 1  11.48254593549355  0.90301253145315  0.29513100060006
 1  11.37710076347635 -0.77062302360236  0.83037365896590
 1  12.67600091899190 -1.46253441464146 -1.06587425502550
 1  12.71913566606661 -0.05489479847985 -1.62308566986699
 1  13.72866430313031  0.82013456945695  0.69353669666967
 1  13.85787854095410 -0.84264386908691  1.05329184568457
 1  15.17898118661866  0.14009349434944 -1.46305066306631
 1  15.59661710461046 -2.64448474057406  0.05615416151615
 1  15.03837688838884 -1.92176455205521 -1.49292670777078
 1  16.61040066946695 -1.70080560546054 -1.08834030353035
 1  16.10129533023302  1.53087092079208  0.53866041034103
 1  16.39008345554555  0.03118394329433  1.63479624082408
 1  18.18883982268227 -0.19074562196220 -0.56230957135714
 1  17.52210927542754  1.39551687058706 -1.05556913271327
 1  18.49904069666967  2.32168632633263  1.00139814511451
 1  18.76788394869487  0.76901108210821  1.65200520082008
 1  20.40650556325633  0.23088923712371 -0.03365630163016
 1  19.97226133273327  3.03646720862086 -0.92978657205721
 1  21.50682493459346  1.76639329212921 -1.42747411071107
 1  19.64986889128913  1.91035284608461 -1.80607757675768
 1  20.88651462666267  1.43702181128113  2.37079669686969
 1  22.27468917521752  1.83836506620662  1.15141010731073
 1  20.58997872777278  2.92636271957196  1.58601904240424
>>>>>>> 8e03b5b5abfc0030b3aa597dc0de36371bfbd096

