%nproc=4
%Mem=2GB
# td=(NStates=1) CAM-B3LYP/6-31G(d,p) 

TD

0 1
12 -7.16352692569257  0.61141989008901  0.12848053545355
 6 -4.91488610661066 -1.99895107350735  0.58902543524352
 6 -4.80799072797280  2.79477792509251  1.06269263416342
 6 -9.41316605210521  3.12724822032203 -0.41659451915192
 6 -9.50896120982098 -1.69781529252925 -0.92356878597860
 7 -5.10949437403740  0.44199401750175  0.76496691499150
 6 -4.38761846794679 -0.74654447644764  0.87956597979798
 6 -2.92856186158616 -0.43056248194819  1.19046940114011
 6 -3.10602404080408  1.03343601190119  1.67615834653465
 6 -4.37331432633263  1.46862761156116  1.08756578647865
 6 -2.93572865496550  1.31601388948895  3.12664407330733
 6 -1.96262972397240 -0.67525278667867  0.07753171147115
 6 -0.45961338393839 -0.46612095929593  0.54335846514651
 6  0.51205234243424 -0.62806631953195 -0.63350873137314
 8  0.20022126222622 -0.86290169776978 -1.78502483418342
 8  1.73052486298630 -0.50652804920492 -0.19301609050905
 7 -7.16091653955396  2.58189377917792  0.43369206470647
 6 -6.10351963096310  3.29048002380238  0.70936447004700
 6 -6.41571882498250  4.73230752015202  0.63388407560756
 6 -7.74074678167817  4.85838647014701  0.24152254355436
 6 -8.20417468906891  3.47998719401940  0.07209975627563
 6 -5.52679063576358  5.75051751765177  1.15698045854585
 6 -8.62231002860286  6.03302433613361  0.12847983338334
 6 -8.55951984328433  7.17041315991599  0.66044229402940
 7 -9.13895616821682  0.70464332543254 -0.48888292199220
 6 -9.92083834353435  1.79363931703170 -0.62329865396540
 6 -11.20985008160816  1.45551389048905 -1.12196391589159
 6 -11.20248265216522  0.02841820592059 -1.16531524552455
 6 -9.93180886158616 -0.37200917521752 -0.91932694879488
 6 -12.31470029372937  2.49004957595760 -1.29095587038704
 6 -12.33361790809081 -0.73106051615162 -1.74076488498850
 6 -12.20752824122412 -1.06948936013601 -3.25189030763076
 7 -7.26278574687469 -1.33212282588259 -0.15314999199920
 6 -8.26129636943694 -2.19807497959796 -0.54039899509951
 6 -7.82992913851385 -3.58779704720472 -0.54810208750875
 6 -6.52926681078108 -3.52603694069407 -0.11364309620962
 6 -6.25125772217222 -2.25641392269227  0.16606941114111
 6 -8.72802026942694 -4.78011085348535 -0.84243272167217
 6 -5.39196366666667 -4.41215509900990  0.24129700230023
 8 -5.06067490539054 -5.63667815121512  0.31470850155016
 6 -4.17503108250825 -3.34700048984898  0.58019788508851
 6 -3.50852148304830 -3.72314753605361  1.83854422732273
 8 -3.72701430203020 -3.19754649084908  2.92157483858386
 8 -2.64916611031103 -4.73832855525553  1.65661424232423
 6 -2.10433102100210 -5.19384361346135  2.94240917641764
 6  2.85382789448945 -0.68201599619962 -1.22749394979498
 6  4.15256734573457 -0.39359753605361 -0.47676782578258
 6  5.17577106150615  0.40496676207621 -0.93314308700870
 6  5.07425584858486  1.26880953025303 -2.20709487478748
 6  6.44241857465747  0.45305715591559 -0.14544102930293
 6  7.61745928382838 -0.12205255215522 -0.96116306680668
 6  8.86907878047805  0.01127599719972 -0.12012382518252
 6  10.15368599309931 -0.52583965566557 -0.77760873137314
 6  10.12930963116312 -2.04435537163716 -1.05620908590859
 6  11.43120599749975 -0.24233801460146  0.08473934253425
 6  12.78432334003400 -0.48108215931593 -0.64539456235624
 6  13.94405387378738 -0.03105430823082  0.05119218671867
 6  15.40931705660566 -0.20051378047805 -0.50963920372037
 6  15.71201287018702 -1.56492412621262 -1.03709332703270
 6  16.45948005390539  0.42231659165917  0.32899740694069
 6  17.89622421182118  0.55394679307931 -0.27867368196820
 6  18.77285765526553  1.34838305530553  0.74413484648465
 6  20.30881955115511  1.22982331583158  0.27955271847185
 6  20.45761711551155  1.83959225642564 -1.13902489518952
 6  21.24963589438944  1.88205114141414  1.35989135253525
 1 -4.05639712421242  3.59825534693469  1.23952853975398
 1 -10.15700609330933  4.00407124212421 -0.41886727822782
 1 -10.28825211461146 -2.31039037983798 -1.18858551075108
 1 -2.62420887778778 -1.11794010791079  2.22880357155716
 1 -2.43564716991699  1.76637021962196  1.13745439583958
 1 -1.83977843534353  0.83895434833483  3.46603031653165
 1 -3.00769582958296  2.45718977647765  3.42259442484248
 1 -3.65255869856986  0.55423010701070  3.71198361116112
 1 -2.07507999289929 -1.68954891529153 -0.40370427962796
 1 -2.21402307480748 -0.02729547914791 -0.83304334393439
 1 -0.17904142154215  0.45740035393539  1.13521392049205
 1 -0.12243004500450 -1.23942845804580  1.18681263646365
 1 -5.67364614001400  6.85721436553655  0.68278398759876
 1 -5.63981097049705  5.72742610571057  2.19608590569057
 1 -4.49498345434543  5.42700386678668  0.74053722932293
 1 -9.03855590809081  5.92853900200020 -0.87592782098210
 1 -9.21891310721072  8.00286102500250  0.21408102990299
 1 -7.96521598739874  7.48022442194219  1.60876926242624
 1 -12.31346545164516  2.95383570957096 -2.35199820452045
 1 -13.35282495169517  2.05011890309031 -1.40714190569057
 1 -12.27964969606961  3.11322997769777 -0.35610685468547
 1 -12.38896367476748 -1.55073451855186 -1.18027298219822
 1 -13.22273099199920 -0.04519125592559 -1.62310783828383
 1 -12.95519187178718 -1.81516620282028 -3.70094997949795
 1 -12.42383594779478 -0.06663120072007 -3.76081957765777
 1 -11.19702598189819 -1.44857972507251 -3.42803142314231
 1 -9.01575117811781 -4.85125586848685 -1.91002426652665
 1 -8.14942430723072 -5.71772177637764 -0.43260287328733
 1 -9.64360424532453 -4.82278730003000 -0.38322014461446
 1 -3.46578727462746 -3.30642389308931 -0.36948221972197
 1 -1.18751691819182 -4.41593803350335  3.24614753005301
 1 -2.83669327792779 -5.20259187678768  3.68866170507051
 1 -1.70161827332733 -6.13231250445045  2.48494244714471
 1  2.57170647474747 -1.57654949084909 -1.38887285228523
 1  2.50274775237524 -0.23462918331833 -1.98773192539254
 1  4.24994590019002 -0.89427164236424  0.49834305030503
 1  4.10141910541054  1.17080579097910 -2.40186855655566
 1  5.49568498019802  2.18707896679668 -1.82715918411841
 1  5.95930323792379  0.99573068056806 -2.92997172817282
 1  6.72139420232023  1.41548554855486 -0.04799215641564
 1  6.20348446784678  0.07736969956996  0.87897761446145
 1  7.41448883358336 -1.20862009720972 -1.30327165076508
 1  7.78327076297630  0.50877408550855 -1.99475239883988
 1  9.01584363596360  1.16323420842084  0.25323295549555
 1  8.48388687738774 -0.45007051325133  0.84162202590259
 1  10.53402095349535  0.06594913261326 -1.60632552205221
 1  9.34832981848185 -2.20678865536554 -1.76370229502950
 1  11.00352290799080 -2.35749253315332 -1.62533677757776
 1  9.89797268326833 -2.75560750275028 -0.29173861356136
 1  11.39343702460246  0.83962619281928  0.22952443994399
 1  11.27208026142614 -0.69552551385138  1.08296891849185
 1  13.06889020792079 -1.56964512571257 -0.82352001960196
 1  12.74651840434043  0.08984967596760 -1.67265062636264
 1  13.80464190089009  0.95786834283428  0.47001434443444
 1  13.90662341544155 -0.53682328702870  1.03362987948795
 1  15.29939322782278  0.42292177717772 -1.39112347034703
 1  15.64599204210421 -2.20591088318832 -0.11889334323432
 1  14.95152820352035 -1.93782615821582 -1.72898031313131
 1  16.64619424882488 -1.53061858675868 -1.38037950745075
 1  16.24008920962096  1.25580341404140  0.59333587788779
 1  16.59664411161116 -0.02354152925293  1.24046680788079
 1  18.36317725642564 -0.31026757415742 -0.43495683608361
 1  18.03099016351635  1.15968328722872 -1.24355793159316
 1  18.68446923952395  2.42172633033303  1.06845485078508
 1  18.77109426972697  0.75921010201020  1.76429642994299
 1  20.78582349504951  0.17473362156216  0.36976404040404
 1  20.10645475207521  2.84718828072807 -1.04584817821782
 1  21.43793804590459  1.91470812361236 -1.40092145544554
 1  19.79286319071907  1.54584639543954 -1.83314028302830
 1  21.25531150635063  1.38182629172917  2.27392700990099
 1  22.27053876017602  1.91992322202220  0.91887685398540
 1  20.76991672157216  2.84477456075608  1.59035947644764

