%nproc=4
%Mem=2GB
# td=(NStates=1) CAM-B3LYP/6-31G(d,p) 

TD

0 1
12 -7.07466803980398  0.64286303440344  0.11416910431043
 6 -4.85140975897590 -1.91516269466947  0.48796532923292
 6 -4.68182811171117  2.82020046734673  1.14407077197720
 6 -9.39212394789479  3.06324181968197 -0.50624348404840
 6 -9.53960427412741 -1.72960847184718 -0.87567399649965
 7 -5.14266769136914  0.53285310341034  0.78174859315932
 6 -4.35142484858486 -0.70022984498450  0.78066608980898
 6 -2.94531353675368 -0.37227665336534  1.15017537173717
 6 -3.02837627602760  1.05368803710371  1.67677840854085
 6 -4.34905190009001  1.52270301910191  1.23892092199220
 6 -2.87568265036504  1.19824211231123  3.25477688658866
 6 -1.94214767576758 -0.63885914731473  0.03192715101510
 6 -0.55368279087909 -0.48399274647465  0.49733386268627
 6  0.47088822602260 -0.75541905480548 -0.67150253075308
 8  0.20517175727573 -1.23021842944294 -1.71551788348835
 8  1.72723453395340 -0.43289068546855 -0.24064085298530
 7 -7.13073352125213  2.64316990679068  0.31962065756576
 6 -6.05141442044204  3.38467944374437  0.76883041664166
 6 -6.39852710581058  4.72788707810781  0.79441012821282
 6 -7.68316102310231  4.91271190269027  0.27737612891289
 6 -8.10231450305031  3.52284147944795  0.05694824112411
 6 -5.40483844054405  5.80335280118012  1.13880864136414
 6 -8.59428722632263  5.96337737143714  0.23191017641764
 6 -8.54100799209921  7.05621173977398  1.00210646044604
 7 -9.00597286988699  0.71897475857586 -0.55900993469347
 6 -9.78398465816582  1.86941689478948 -0.75877220132013
 6 -11.07442653925392  1.49455779487949 -1.10301202070207
 6 -11.23439584348435  0.15950131423142 -1.19060777477748
 6 -9.86704238493849 -0.37774974927493 -0.95653066916692
 6 -12.17329615331533  2.50866143714371 -1.38678545334533
 6 -12.35696024232423 -0.73706111621162 -1.68721953045305
 6 -12.16966445484548 -1.05922833403340 -3.22565768436844
 7 -7.11478094639464 -1.38355796939694 -0.28917359435944
 6 -8.18218845864586 -2.18613378547855 -0.60400535573557
 6 -7.91928807440744 -3.61156942444244 -0.61318859615962
 6 -6.55523940804080 -3.55555989298930 -0.09780151205121
 6 -6.18077067346735 -2.22396067736774  0.09971277547755
 6 -8.76556402380238 -4.83158600100010 -0.79653813221322
 6 -5.38455292559256 -4.37040092359236  0.26406927952795
 8 -5.15365420332033 -5.54672915631563  0.42022905360536
 6 -4.20280385978598 -3.36511230103010  0.51672153745375
 6 -3.56272690359036 -3.61516673797380  1.96879725262526
 8 -3.82061366196620 -3.09712644884488  2.97362004310431
 8 -2.73552474617462 -4.68282300470047  1.82654123502350
 6 -2.17085767366737 -5.17387161626163  3.05496043154315
 6  2.81812432413241 -0.79872766736674 -1.20886208660866
 6  4.12483457245725 -0.42159033533353 -0.52351250025003
 6  5.09809329372937  0.24869113451345 -1.01684145684568
 6  5.09728815181518  0.99312196149615 -2.34981914721472
 6  6.50012434523452  0.45222707290729 -0.25550203540354
 6  7.59032657055706 -0.09618996589659 -1.11357830833083
 6  8.86845871847185 -0.14643977437744 -0.34985679847985
 6  10.15898652315231 -0.60647771947195 -1.02050302080208
 6  10.06816351655165 -2.17533846994699 -1.26112957795780
 6  11.26546942384238 -0.31410519131913 -0.07587671907191
 6  12.69281418911891 -0.50233428452845 -0.76413643654365
 6  13.88525799419942 -0.08911011381138  0.14952201970197
 6  15.23194931983198 -0.22236596569657 -0.50043828362836
 6  15.74291596049605 -1.61039867366737 -0.95347496519652
 6  16.37693179907991  0.53016737673767  0.36801130833083
 6  17.78948353775377  0.60874227262726 -0.19340515511551
 6  18.73668403790379  1.36743496049605  0.82415284828483
 6  20.27797646684668  1.42870320382038  0.42434719791979
 6  20.46075742954296  2.16814511171117 -0.95794678737874
 6  21.06181711251125  2.03565650195020  1.44192955635564
 1 -3.97295878037804  3.66972249364936  1.33473806070607
 1 -10.05879627232723  3.91178201320132 -0.68112350385039
 1 -10.27330061946195 -2.38990833163316 -1.08992564476448
 1 -2.71834829172917 -1.13436175007501  1.89930062126213
 1 -2.29601320652065  1.77736131873187  1.20929157955796
 1 -2.09251370887089  0.56152660556056  3.66345005850585
 1 -2.87465252525253  2.29137319481948  3.49061122652265
 1 -3.86474991769177  0.57365204920492  3.55864827762776
 1 -2.30823330823082 -1.73487344774477 -0.34984889408941
 1 -2.25544721722172  0.12597984838484 -0.76384642424242
 1 -0.36132965036504  0.51522613651365  0.77896829592959
 1 -0.06660446244624 -1.21622613781378  1.39109306450645
 1 -5.70234901030103  6.54736338043804  0.43350906010601
 1 -5.67702469186919  6.20548391149115  2.28020431753175
 1 -4.38286224222422  5.57416858325833  1.01245442104210
 1 -9.43811586408641  6.01816796489649 -0.49257948614861
 1 -9.26068728462846  7.83906464536454  1.08349797159716
 1 -7.98858832463246  7.12782918241824  2.04425281078108
 1 -12.19048315341534  3.30213053905391 -2.30752375707571
 1 -13.14616428562856  2.08727261846185 -1.34095528702870
 1 -12.30040177127713  3.33228188288829 -0.56678792279228
 1 -12.37823260166017 -1.68599804490449 -1.20144509940994
 1 -13.33530224912491 -0.50882761956196 -1.40025555305531
 1 -12.92144849744975 -1.87827251345135 -3.79531941644164
 1 -12.13723728792879 -0.17858239583958 -3.68350184588459
 1 -11.14206048534854 -1.53553842094209 -3.40103872387239
 1 -9.65088469146915 -4.74305504840484 -1.64967823192319
 1 -7.87595696049605 -5.60755075927593 -1.11079069206921
 1 -9.39320920582058 -5.04586960826083  0.22357053445345
 1 -3.44947564346435 -3.57161041174117 -0.20241551305130
 1 -1.41292945944594 -4.53028946864687  3.52232514781478
 1 -2.95699530813081 -5.49630124772477  3.60425326422642
 1 -1.44937304880488 -5.92766203940394  2.90548450135013
 1  2.93858316241624 -1.87490932683268 -1.44047801280128
 1  2.50650812841284 -0.36952267266727 -2.12887603980398
 1  4.32399330493049 -1.11791400660066  0.44102731873187
 1  4.08308727222722  0.99050776117612 -2.88973734343434
 1  5.36406181788179  2.19565982488249 -2.21280774897490
 1  5.96228353595359  0.81468257575758 -3.05489422042204
 1  6.52946500940094  1.55053905390539 -0.01108846604660
 1  6.42506662606261 -0.24741277867787  0.59215893259326
 1  7.51531891659166 -1.23344257945795 -1.33724504810481
 1  7.72767520342034  0.69667287538754 -2.00899382298230
 1  9.24170622222222  0.86727461246125  0.07500513271327
 1  8.71061955065507 -0.66438194439444  0.54520238393839
 1  10.00647819921992 -0.28354581688169 -1.91291618111811
 1  9.33572855835584 -2.52987096359636 -1.96221214601460
 1  11.10336289198920 -2.65955273917392 -1.49586383028303
 1  9.99449233523352 -2.63369531153115 -0.27896733643364
 1  11.16910459135914  0.73839606980698  0.12934442194219
 1  11.40926397979798 -0.93101906320632  0.78058868046805
 1  12.68543186208621 -1.46798495969597 -1.10269793739374
 1  12.91360511301130  0.06221691269127 -1.75816917821782
 1  13.78767020372037  0.90790334633463  0.54071141414141
 1  13.86449920302030 -0.58891849654966  1.14032054855486
 1  15.27030031853185  0.25127461246125 -1.43498785678568
 1  15.75872331523152 -2.23416370847085 -0.07084853875388
 1  15.15666871757176 -2.12989536513651 -1.54852226732673
 1  16.79960959035904 -1.68473399829983 -1.31256272577258
 1  16.30285548624862  1.52180001370137  0.51187773207321
 1  16.52107655485548  0.20547137203720  1.36678944014401
 1  18.29328026672667 -0.47288383578358 -0.25179852025202
 1  17.92855992049205  1.15609292819282 -1.10029360516052
 1  18.40107089968997  2.49918407610761  0.76436444174417
 1  18.77393455375538  0.93875805680568  1.78923892419242
 1  20.58156306900690  0.37805395359536  0.22463952795280
 1  20.25445955255525  3.15280884278428 -0.71098469186919
 1  21.51501575367537  2.39604625742574 -1.35816718001800
 1  19.80380428482848  1.76554836563656 -1.80547751675168
 1  20.87167314251425  1.44615272437244  2.37190680788079
 1  22.17656936323632  2.28846007570757  1.33435840214021
 1  20.52629235913592  3.09309939323932  1.76809725022502

