%nproc=4
%Mem=3GB
# td=(NStates=1) iop(3/107=0140000000,3/108=0140000000) CAM-B3LYP/6-31G(d,p) 

TD

0 1
12 -7.15023971567157  0.63706208970897 -0.01321495149515
 6 -4.81522033853385 -1.99614684528453  0.44638004040404
 6 -4.75334136473647  2.83361207910791  1.14682478767877
 6 -9.37856462096210  3.11581913491349 -0.38753122842284
 6 -9.48510460846085 -1.66917868356836 -0.84570137503750
 7 -5.11282831403140  0.39650574117412  0.62842066606661
 6 -4.28849109640964 -0.71663280648065  0.71216911161116
 6 -2.83622984358436 -0.45410380838084  1.17787345644564
 6 -3.01142436933693  0.97309601120112  1.66273255255526
 6 -4.36716695139514  1.52121677277728  1.06889128302830
 6 -3.02907908870887  1.06533935323532  3.15475078967897
 6 -1.84346007570757 -0.57900388958896  0.07314112441244
 6 -0.49504521372137 -0.31437468546855  0.45653903620362
 6  0.44971689488949 -0.74038065996600 -0.65570536063606
 8  0.13320353715372 -1.12137591529153 -1.73932132523252
 8  1.73398199659966 -0.41534147254725 -0.31931731933193
 7 -7.04356199959996  2.58449165906591  0.36536746084608
 6 -6.06288643244324  3.34886865426543  0.76665254135414
 6 -6.34549945834583  4.73484034763476  0.76707496619662
 6 -7.69440422572257  4.87088889408941  0.32777890429043
 6 -8.09773930143014  3.47982492129213  0.07916591519152
 6 -5.39234126802680  5.87066654035404  1.16312646784678
 6 -8.41748175617562  6.04306457605761  0.07668828132813
 6 -8.27717612761276  7.29977912761276  0.61712577187719
 7 -8.99207824892489  0.77293428782878 -0.47366394029403
 6 -9.87118460476048  1.77367069136914 -0.51568438193819
 6 -11.22317627032703  1.56660610511051 -0.91324618431843
 6 -11.20730021722172  0.14866241204120 -1.15095512381238
 6 -9.88382598619862 -0.31099129252925 -0.92069427072707
 6 -12.26922786048605  2.60429567096710 -1.18923837653765
 6 -12.38160195309531 -0.61149727352735 -1.66816614721472
 6 -12.26247815671567 -1.22400259255926 -3.07606825802580
 7 -7.25393835623562 -1.42811764746475 -0.22513518861886
 6 -8.28236256255626 -2.21192973847385 -0.58759033893389
 6 -7.83497553735373 -3.62532308370837 -0.58665896569657
 6 -6.56255404590459 -3.55131811391139 -0.12096417811781
 6 -6.19757348904890 -2.17849580538054  0.08184001940194
 6 -8.61391373087309 -4.91552765116512 -0.83775715881588
 6 -5.45067052995299 -4.39934349774977  0.24632960706071
 8 -5.22321331363136 -5.55831268826883  0.20511646024602
 6 -4.13863836643664 -3.35788323572357  0.51549987158716
 6 -3.58759293609361 -3.67887583028303  1.86316228472847
 8 -3.79855263866387 -3.09977733563356  2.95711907010701
 8 -2.71256660946095 -4.76335495399540  1.70709974747475
 6 -2.23369232623262 -5.27344255015502  2.98193559395940
 6  2.77065338573857 -0.62286057495750 -1.37639115631563
 6  4.00554143934393 -0.41446671457146 -0.59643220602060
 6  5.05024051535154  0.38721524952495 -0.96198907590759
 6  4.98604232983298  1.31692936823682 -2.06820095509551
 6  6.33847012571257  0.31050166616662 -0.15409593399340
 6  7.58685013761376 -0.09033758175818 -0.97564789348935
 6  8.86303401500150 -0.26922873897390 -0.18561466386639
 6  10.15623108370837 -0.64409607280728 -0.94936065606561
 6  10.13010628722872 -2.16105398529853 -1.28962592859286
 6  11.35565022882288 -0.33894878597860 -0.06857481998200
 6  12.79644738023802 -0.53050308380838 -0.65150265536554
 6  13.91977324912491 -0.14687040134013  0.26181259285929
 6  15.31565755675568 -0.13087217081708 -0.42396804930493
 6  15.75615188618862 -1.61614000230023 -0.77417924422442
 6  16.45657264996500  0.54793131043104  0.47215194989499
 6  17.80107769546955  0.51252498209821 -0.18106463346335
 6  18.74708512711271  1.28093617211721  0.81502475917592
 6  20.24015682008201  1.36893632613261  0.22904961096110
 6  20.43206605240524  2.18794609970997 -1.13175787168717
 6  21.12114718171817  2.04116581648165  1.33363730373037
 1 -3.91278164166417  3.58373162456246  1.48671476727673
 1 -10.12323444674468  3.84621689618962 -0.66971149734973
 1 -10.40476490059006 -2.35920145524552 -1.18325614501450
 1 -2.86359364656466 -1.13471367406741  2.03442993369337
 1 -2.03241670797080  1.45729779087909  1.36156980598060
 1 -2.13529661606161  0.66323542994299  3.60911124852485
 1 -3.00273738283828  2.10181940474047  3.62046006820682
 1 -3.82699550005000  0.42510766506651  3.73181486668667
 1 -1.76338145714571 -1.52855352615262 -0.33682168926893
 1 -2.23933030203020  0.20754837463746 -0.72092882748275
 1 -0.33391882058206  0.56438602590259  0.80738460146015
 1 -0.12144056435644 -1.03015378197820  1.20962442074207
 1 -5.78675285298530  6.76097360936094  0.76249608090809
 1 -5.25724719601960  5.74343722512251  2.31303331583158
 1 -4.31600644524452  5.62569683768377  0.97851858445845
 1 -9.02756301610161  5.96116949894989 -0.92118347104710
 1 -8.73075213891389  8.29618933993399  0.26995677137714
 1 -7.64663259535954  7.17253408980898  1.52360132043204
 1 -12.01532200520052  3.32675182228223 -2.02955878737874
 1 -13.12122942064206  2.05742448484849 -1.42462819101910
 1 -12.52331336403640  3.15028236233623 -0.40139057855786
 1 -12.50077204210421 -1.43713463626363 -0.88521202210221
 1 -13.18561086018602  0.25777306680668 -1.58407416181618
 1 -13.02308750795079 -1.88052171427143 -3.42839379747975
 1 -12.59028943464346 -0.53525199649965 -3.75449442784278
 1 -11.36845168456846 -1.76589761696170 -3.29581785998600
 1 -8.97742236083608 -4.77797429822982 -1.76482254525453
 1 -8.01478586378638 -5.91112706600660 -0.66076603170317
 1 -9.46713089208921 -5.13786223462346 -0.30712298099810
 1 -3.33118063656366 -3.65950255585559 -0.14100183828383
 1 -1.58644203180318 -4.37322953635364  3.52727444504451
 1 -2.95476191349135 -5.71286081098110  3.62074311201120
 1 -1.65757627812781 -6.10666145094510  2.67093045414541
 1  2.64499255405541 -1.76976359915992 -1.67329877857786
 1  2.52880932223222  0.08545663046305 -2.31690274777478
 1  3.79323981068107 -0.93688210201020  0.26587798799880
 1  4.07088239973997  1.17256279897990 -2.62064254995500
 1  5.32559949214922  2.25880630453045 -1.87726516491649
 1  5.70002957145715  0.90591178207821 -2.77948420532053
 1  6.39019720362036  1.25906588718872  0.27222683658366
 1  6.33528140024002 -0.29219655635564  0.70607680318032
 1  7.14012613541354 -0.99736040904090 -1.63317807500750
 1  7.91424398289829  0.89423852685269 -1.63831465436544
 1  9.19732577687769  0.83949344684468  0.00412284038404
 1  8.90381350215022 -0.86256460916092  0.68034415781578
 1  10.15626025782578  0.00618676647665 -1.88091324932493
 1  9.27938754785479 -2.35377366086609 -1.75969435133513
 1  11.08683782438244 -2.23755715501550 -2.01849720782078
 1  10.41879407650765 -2.74840895559556 -0.30170756445645
 1  11.28566020762076  0.73663009640964  0.23552132293229
 1  11.39650724622462 -0.86426772437244  0.83089941004100
 1  12.95459341184118 -1.74643206250625 -0.71391366286629
 1  12.94769059895989 -0.18856392039204 -1.77872220592059
 1  13.75214663496350  0.80907627092709  0.82976780548055
 1  13.84936324692469 -0.86172255115512  1.16415878987899
 1  15.21444184558456  0.24354775177518 -1.49196046484648
 1  16.11107490429043 -2.13159250045005  0.17626949144915
 1  14.71406305070507 -2.34371889188919 -1.06208758225823
 1  16.62873115271527 -1.83337423442344 -1.60027654095410
 1  16.13826710021002  1.64588292199220  0.61588750505050
 1  16.59277335513551  0.21023473867387  1.36426492119212
 1  18.18484522222222 -0.45599211321132 -0.03913410901090
 1  17.79411672127213  1.04100299439944 -1.22281802540254
 1  18.46640569746975  2.20975224322432  1.06250819761976
 1  18.80324628712872  0.52193703320332  1.61674491999200
 1  20.74056388868887  0.35643664126413  0.06354224642464
 1  20.37404422292229  3.28278905540554 -1.25921810651065
 1  21.41095489628963  1.94910605270527 -1.21851983318332
 1  19.73487188478848  1.75813610381038 -2.02873125752575
 1  21.34378823232323  1.39480512141214  2.32267593639364
 1  22.12819071187118  2.10648111881188  1.06731338493849
 1  20.84652473097310  2.95382149934994  1.76580371707171

