%nproc=4
%Mem=2GB
# td=(NStates=1) CAM-B3LYP/6-31G(d,p) 

TD

0 1
12 -7.17505807880788  0.59700844894489 -0.00990330293029
 6 -4.81754637263726 -1.95729690809081  0.47198373107311
 6 -4.92025195409541  2.88743719101910  1.17662402730273
 6 -9.50864560006001  3.05081057655766 -0.19846270597060
 6 -9.54701501520152 -1.78013352435244 -0.88902533163316
 7 -5.14163758835884  0.52771258935894  0.61827224552455
 6 -4.34225393149315 -0.69346916891689  0.68282630583058
 6 -2.91763076847685 -0.31748117381738  1.07245759996000
 6 -2.97035047344734  1.23573624192419  1.59617034773477
 6 -4.43681067596760  1.56566731553155  1.08371540144014
 6 -2.94249933203320  1.38113040114011  3.07210861976198
 6 -1.84020748174817 -0.49743500490049 -0.01874791649165
 6 -0.40514793739374 -0.30606495369537  0.47243137243724
 6  0.57546868406841 -0.64069758265827 -0.53469885038504
 8  0.29222046214621 -0.99175458305831 -1.73184951665167
 8  1.81088289878988 -0.34797219361936 -0.17502429132913
 7 -7.11870231813181  2.55103069286929  0.16644534003400
 6 -6.20697997699770  3.35025600140014  0.76008954255426
 6 -6.61216846994699  4.78366265566557  0.81649233643364
 6 -7.92824553155315  4.82933356485649  0.38123651495150
 6 -8.24274854645465  3.43083227852785  0.07497004330433
 6 -5.68036599329933  5.86302876877688  1.26951171167117
 6 -8.84060185778578  5.99266029972997  0.34004098949895
 6 -8.82770666196620  7.03332945154515  1.09026527632763
 7 -9.13422569516952  0.61996485758576 -0.54936897059706
 6 -9.89555581528153  1.70679063216322 -0.63371969606961
 6 -11.21396049264926  1.41301964106411 -1.02958467796780
 6 -11.30336274017402  0.01909727382738 -1.24067278127813
 6 -9.94204988568857 -0.43178515281528 -0.94554957105711
 6 -12.26137496119612  2.37391796279628 -1.35160193499350
 6 -12.40026457275728 -0.82898030813081 -1.83287409590959
 6 -12.33078056645665 -1.03008541974197 -3.36701181978198
 7 -7.27352682098210 -1.36787640124012 -0.16062073907391
 6 -8.30581082088209 -2.29904507660766 -0.57135209040904
 6 -7.82174832043204 -3.62273054055406 -0.51357863516352
 6 -6.48029191329133 -3.55741007800780 -0.15028676057606
 6 -6.25155775217522 -2.17109539083908  0.11539434363436
 6 -8.61269873727373 -4.83989683208321 -0.82109058745875
 6 -5.26057052735274 -4.31736562006201  0.23165603820382
 8 -5.07121595949595 -5.52391687508751  0.23180021072107
 6 -4.18104168356836 -3.29904569436944  0.56877674297430
 6 -3.49481011191119 -3.57477269856986  1.84949532243224
 8 -3.77710931153115 -2.94988172437244  2.88028070917092
 8 -2.64219541324132 -4.58364308670867  1.87706628752875
 6 -2.08358894679468 -4.99186341544154  3.05696063156316
 6  2.90351286298630 -0.62364015861586 -1.18369957035704
 6  4.21898398739874 -0.33671184748475 -0.47907805680568
 6  5.25461894629463  0.37572383778378 -0.95997577027703
 6  5.17358578157816  1.15888853815382 -2.26351051635163
 6  6.56018035083508  0.35563741394139 -0.09095558075808
 6  7.70941847974798 -0.15895624252425 -0.90530748124812
 6  9.01119299189919 -0.21584671507151 -0.12541435423542
 6  10.25229585408541 -0.68402547424742 -0.82800377087709
 6  10.20815751595159 -2.20767170327033 -0.99154261926193
 6  11.50789366626663 -0.30086386718672 -0.07916704810481
 6  12.80322523022302 -0.43187723882388 -0.71426144904490
 6  13.97775724412441 -0.25765696849685  0.15509257675768
 6  15.47259338423842 -0.35447917701770 -0.45759399919992
 6  15.71052272117212 -1.85116275007501 -0.84406402410241
 6  16.44321842774277  0.21864622462246  0.31342584978498
 6  17.91597618701870  0.50348174657466 -0.29954576917692
 6  18.83293366286629  1.27364558155816  0.75207564056406
 6  20.27389605880588  1.31868220172017  0.18737350055006
 6  20.27581893569357  2.11742003920392 -1.13880487318732
 6  21.16486741754176  2.07472040834083  1.29888525192519
 1 -4.21567305180518  3.47672319371937  1.68038262516252
 1 -10.32759315201520  3.83157399239924 -0.45944133563356
 1 -10.30116340574057 -2.67793713451345 -1.29306595879588
 1 -2.80705716261626 -0.85651396529653  1.93529422062206
 1 -2.37731133633363  1.86390997359736  0.91795244564456
 1 -1.94648910641064  1.11465191809181  3.38996270977098
 1 -2.92057711771177  2.58983304080408  3.28277044244424
 1 -3.68375181788179  0.71854653865387  3.53841625442544
 1 -1.82376486138614 -1.61780174057406 -0.20641455065507
 1 -2.01365303780378 -0.02451520112011 -0.86685672527253
 1 -0.42471598899890  0.65509012291229  0.87485788488849
 1 -0.17499530153015 -0.88330284548455  1.40582453765377
 1 -6.00854963036304  6.70555920002000  0.77306301550155
 1 -5.70784777417742  6.03546690979098  2.42148844594459
 1 -4.71404536053605  5.67705887228723  0.87202037763776
 1 -9.63188524102410  5.86114226232623 -0.43716394459446
 1 -9.35471668756876  7.78022876177618  0.73811343314331
 1 -8.05154462026203  7.30853725322532  1.86727511301130
 1 -11.99431353645365  3.29791011701170 -2.10384338903890
 1 -13.29562923212321  1.87412130333033 -1.74877606910691
 1 -12.93968569966997  3.06944559925993 -0.50430167416742
 1 -12.37127190559056 -1.77959740484048 -1.42303725862586
 1 -13.38447716661666 -0.36724346114611 -1.70927645514551
 1 -13.40409676227623 -1.48571325752575 -3.73126301080108
 1 -12.21840540474047 -0.12663720132013 -3.97715121082108
 1 -11.42746902620262 -1.70016488358836 -3.60235885588559
 1 -9.08860846384638 -4.90442118501850 -1.75747901200120
 1 -7.87815718051805 -5.75814581878188 -0.74428404140414
 1 -9.20846073097310 -4.74437945924593  0.20314849224923
 1 -3.22546324222422 -3.15269852055206 -0.16278154965497
 1 -1.55283344984498 -4.41451789148915  3.56920983628363
 1 -2.71409101770177 -5.56182780038004  3.81630446934694
 1 -1.37012512401240 -5.81679095229523  2.84177813071307
 1  2.95591489558956 -1.60930276617662 -1.58897286228623
 1  2.59233671127113 -0.03047876827683 -2.09944309650965
 1  4.34538544414441 -0.85934815001500  0.51133434943494
 1  4.21673063656366  1.48629734013401 -2.73707207690769
 1  5.74205961766177  2.12407266616662 -2.08995546374637
 1  5.75954326192619  0.66319742724272 -3.03342207320732
 1  6.81172323522352  1.38094209420942  0.24428707150715
 1  6.50762488188819 -0.24200223762376  0.81823153985399
 1  7.35078246294629 -1.15057429262926 -1.29467079067907
 1  7.80625306120612  0.34563777187719 -1.80711363496350
 1  8.99549160076007  0.79429731473147  0.46961459365937
 1  8.80223871257126 -1.01098660486049  0.69103696739674
 1  10.34016156755676 -0.27190465276528 -1.78576346584658
 1  9.33488847434744 -2.65735371187119 -1.58704462926293
 1  11.03966652235223 -2.34575135903590 -1.47810205410541
 1  10.36365925192519 -2.77769971197120 -0.03941338103810
 1  11.51760944184418  0.73972620282028  0.50430191769177
 1  11.48781183458346 -0.94511047234723  0.82888350995100
 1  12.93683700260026 -1.64215237643764 -1.29370703830383
 1  12.88972272477248  0.17955864686469 -1.61805516681668
 1  14.13692512921292  0.93626618261826  0.33893123612361
 1  13.89844259735974 -0.82800240494049  0.97902441894189
 1  15.37820110861086  0.15296478147815 -1.44463882188219
 1  16.14950239313931 -2.42776306840684  0.11141968806881
 1  14.65861891259126 -2.59061143674368 -0.97997541264126
 1  16.55193482288229 -1.83458898379838 -1.76291776127613
 1  16.16722192289229  1.28836667036704  0.64853139743974
 1  16.54830927812781 -0.36455563066307  1.23081584278428
 1  18.34592553125313 -0.56355290269027 -0.40724406480648
 1  17.74071113561356  1.00687800670067 -1.18175175097510
 1  18.53632442504250  2.08942310001000  0.93779178447845
 1  18.90827798809881  0.95145932693269  1.81121112141214
 1  20.75351026372637  0.40624677287729  0.19339640364036
 1  20.16405051165116  3.14412797469747 -0.84832842624262
 1  21.27699195129513  1.84444109690969 -1.69355071837184
 1  19.53342724712471  1.78861067186719 -1.96827379637964
 1  21.30408638383838  1.39424753385339  2.17761737893789
 1  22.17106881318132  2.35652688238824  0.86385135143514
 1  20.85247497739774  3.11577166046605  1.52034247474748

