%nproc=4
%Mem=3GB
# td=(NStates=1) iop(3/107=0140000000,3/108=0140000000) CAM-B3LYP/6-31G(d,p) 

TD

0 1
12 -7.12611730343034  0.66417480098010  0.15262163216322
 6 -4.78756757325733 -1.95711294189419  0.59415481788179
 6 -4.73273930453045  2.83905262316232  1.18499860506051
 6 -9.34254101860186  3.16449400240024 -0.49959243454345
 6 -9.59953605160516 -1.64068583428343 -0.91507831273127
 7 -5.14154118531853  0.40223631423142  0.85204302830283
 6 -4.29336158345835 -0.76606774997500  0.79116701140114
 6 -2.88605482608261 -0.37791618961896  1.26198186728673
 6 -2.95008823572357  1.00603930553055  1.64463074237424
 6 -4.41337157185719  1.46437108820882  1.18151254515452
 6 -2.75354153495350  1.26429924922492  3.21497681228123
 6 -1.96202193189319 -0.62113810301030  0.12497630793079
 6 -0.53672938213821 -0.53826707470747  0.47369075137514
 6  0.43586550975098 -0.91247786968697 -0.56255604570457
 8  0.19764998179818 -1.35433921162116 -1.66722411551155
 8  1.78743734213421 -0.74420435883588 -0.19605499309931
 7 -7.05799344274427  2.68914212411241  0.23812473657366
 6 -5.91980212401240  3.45503927132713  0.77651352745275
 6 -6.35162007040704  4.81546841044104  0.85387364606461
 6 -7.65121990729073  4.90226203140314  0.39404553095310
 6 -8.06332586008601  3.56500343914391  0.05685368396840
 6 -5.50452248614861  5.90131960566057  1.22889304450445
 6 -8.48461846984698  6.06515678527853  0.18836944944494
 6 -8.42648105810581  7.36497564726473  0.74201826112611
 7 -8.98913795489549  0.77934492889289 -0.65979255315532
 6 -9.79105659195920  1.83643696799680 -0.75690850435043
 6 -11.17903185588559  1.55626507100710 -1.28217307700770
 6 -11.22245173237324  0.21983952975298 -1.35297532583258
 6 -9.90615821942194 -0.30821101450145 -0.93762596389639
 6 -12.17445838353835  2.61716695809581 -1.50638009070907
 6 -12.37702149504950 -0.54859098289829 -1.86310564116412
 6 -12.27970987988799 -1.17117731003100 -3.26460711191119
 7 -7.25880884328433 -1.37931276697670 -0.06856953205321
 6 -8.33811813811381 -2.21030957645765 -0.48399997989799
 6 -7.81973401320132 -3.55588614001400 -0.46878717851785
 6 -6.53513130363036 -3.52485546764676 -0.02123420512051
 6 -6.15804953665366 -2.17480543634363  0.23544537993799
 6 -8.68597093659366 -4.69328542694269 -0.90246362946295
 6 -5.36409187208721 -4.36204976837684  0.26911188528853
 8 -5.33280427272727 -5.58051490849085  0.20051600020002
 6 -4.15004950755076 -3.39144659205921  0.58461678327833
 6 -3.50541471827183 -3.81087903060306  1.92605857435744
 8 -3.63887667106711 -3.25526288418842  3.01697505570557
 8 -2.71462681548155 -4.81496011451145  1.73224226172617
 6 -2.06357531453145 -5.40810601650165  2.81282868326833
 6  2.78037435783578 -0.86189447834783 -1.24495801300130
 6  4.01870275547555 -0.49195446334633 -0.46267883068307
 6  5.09781527282728  0.27217374537454 -0.96513939093909
 6  4.93766749234923  1.25656333163316 -2.05825996099610
 6  6.36063234193419  0.35383599959996 -0.16285681008101
 6  7.61346279887989 -0.24565311331133 -0.97603793249325
 6  8.87154486608661 -0.15303711981198 -0.15615171757176
 6  10.17186264686469 -0.55275693889389 -0.96550227022702
 6  10.00442371897190 -2.07054493439344 -1.35723268926893
 6  11.36832149594959 -0.32032692379238 -0.03407136963696
 6  12.72353008850885 -0.58306834033403 -0.71225873097310
 6  13.93410468226823 -0.13412912721272  0.18961537313731
 6  15.32861885288529 -0.10892997659766 -0.44459011151115
 6  15.75652192319232 -1.53853224152415 -0.97686951325133
 6  16.40771776447645  0.51487800510051  0.44583931863186
 6  17.75065265296530  0.61329505910591 -0.15174170117012
 6  18.71527194579458  1.33655173367337  0.79235249194919
 6  20.21629443384338  1.48614804730473  0.21605831183118
 6  20.27377022282228  2.30227753285329 -1.07861255715572
 6  21.11539660666066  2.07719941984198  1.29088302830283
 1 -4.08287865136514  3.60349360076008  1.56816291209121
 1 -10.04586670997100  3.87912018651865 -0.66344087028703
 1 -10.22606703080308 -2.44997053215322 -1.04498231763176
 1 -2.66017330453045 -1.11984218691869  2.05867235793579
 1 -2.16616008230823  1.76584864596460  1.11653530253025
 1 -1.78082116851685  0.93418252465247  3.41820215761576
 1 -2.68550565966597  2.24348357115712  3.71099912211221
 1 -3.62324512501250  0.70572572687269  3.72620430563056
 1 -2.22579769876988 -1.50791146194619 -0.30123813091309
 1 -2.07247361636164 -0.02806518671867 -0.82590932553255
 1 -0.19290471917192  0.50932051935194  0.90848471147115
 1 -0.28809723002300 -1.01039180578058  1.48545200350035
 1 -5.79803398109811  6.79002651465146  0.75630546184618
 1 -5.50654212551255  6.22381526292629  2.31231324382438
 1 -4.51791663626363  5.63491775977598  0.89541027362736
 1 -9.49511977177718  5.63845722772277 -0.33919527222722
 1 -9.21228029172917  8.00949067006701  0.59204898059806
 1 -7.49284721682168  7.54998183458346  1.31142010231023
 1 -11.96862733573357  3.28657780488049 -2.15114094559456
 1 -13.17533483118312  2.05936467886789 -1.85440116831683
 1 -12.43423445614562  3.04998233233323 -0.45792623212321
 1 -12.59086105100510 -1.39027995079508 -1.30270377127713
 1 -13.20979327842784  0.09313660316032 -1.68248400280028
 1 -12.98959415861586 -1.84982864496450 -3.35444640274028
 1 -12.19134954065406 -0.25259373067307 -3.90313929232923
 1 -11.22000684008401 -1.80317134433443 -3.31242952115212
 1 -9.20887550615061 -4.63214971577158 -1.92643870687069
 1 -8.11586597179718 -5.72614856815682 -1.04168412351235
 1 -9.57923210221022 -4.74984343274327 -0.18985125382538
 1 -3.37291480998100 -3.48880548614862 -0.18511624972497
 1 -1.48484187178718 -4.62902511591159  3.24431614921492
 1 -2.93116955425543 -5.48653817871787  3.48447948564856
 1 -1.96413693419342 -6.57909869466947  2.35747910901090
 1  2.65719377417742 -1.96071269406941 -1.51485293399340
 1  2.38842528382838 -0.17714963016302 -1.95341639913991
 1  4.18169865656566 -1.24163257705771  0.29403080328033
 1  3.86277158865887  1.27019256195620 -2.62778326402640
 1  4.96288322052205  2.28685910981098 -1.71204864326433
 1  5.62640220872087  0.99000019091909 -2.91837809470947
 1  6.59961814571457  1.39004898549855  0.10050966486649
 1  6.51506937903790 -0.16189352605261  0.69524572007201
 1  7.31235335813581 -1.32130280328033 -1.35655041224122
 1  7.60634319281928  0.12778188118812 -1.93537436033603
 1  8.92775882018202  0.81772126962696  0.11683411151115
 1  8.67103022382238 -0.71282963566357  0.89844596799680
 1  10.22515714751475  0.09463561136114 -1.84787994599460
 1  9.10153976307631 -1.95589387288729 -2.05437381928193
 1  10.95624476507651 -2.47001040034003 -1.75041039913991
 1  9.73644584168417 -2.88834294899490 -0.54872226592659
 1  11.42475411701170  0.81629806320632  0.06340411121112
 1  11.40379797529753 -0.93267456505651  0.86500282038204
 1  12.93884183668367 -1.74254167346735 -0.95498777027703
 1  12.87822365226523 -0.27205226922692 -1.73159749344934
 1  13.65756717701770  0.87784314761476  0.41385621432143
 1  14.16159447004700 -0.76135251415141  1.02117449144915
 1  15.41892229362936  0.47217061406141 -1.48497976677668
 1  16.01393519031903 -2.36999634083408 -0.16908504400440
 1  14.97921956635663 -2.34692921292129 -1.57512888638864
 1  16.68269654925493 -1.51937283428343 -1.51354786808681
 1  16.26906017951795  1.61338967266727  0.73545946224622
 1  16.44755883368337 -0.05153143794379  1.47254574927493
 1  18.22780951865187 -0.45784229822982 -0.28613880948095
 1  17.77598490809081  1.01697059115912 -1.14484022762276
 1  18.44958401530153  2.38860012801280  1.13127507430743
 1  18.78507446994699  0.70353519301930  1.59292253775378
 1  20.48616844914492  0.46108710631063  0.05188108030803
 1  19.85315213371337  3.23290406690669 -0.96305849054906
 1  21.23964776557656  2.35038618071807 -1.46323430463046
 1  19.60315871347135  1.85556584678468 -1.79869825422542
 1  21.23826768026803  1.35815145604560  2.20103377217722
 1  22.17316520932093  2.06863733443344  0.91195784938494
 1  21.07200727922792  3.11168728592859  1.41820895759576

