%nproc=4
%Mem=2GB
# td=(NStates=1) CAM-B3LYP/6-31G(d,p) 

TD

0 1
12 -7.19226979998000  0.59809855795580  0.01377906530653
 6 -4.82426704470447 -1.97572875127513  0.53027956065607
 6 -4.77725765466547  2.85078352565257  1.10496686158616
 6 -9.49442417791779  3.05768126362636 -0.30509336903690
 6 -9.57494780848085 -1.79652516351635 -0.86920334943494
 7 -5.13303672827283  0.45255507360736  0.68606902520252
 6 -4.32463216931693 -0.64273409540954  0.84927295049505
 6 -2.99456846224622 -0.41659108480848  1.29666002020202
 6 -2.99668310671067  1.02064473277328  1.74355508620862
 6 -4.36358335323532  1.51082183098310  1.13794082398240
 6 -2.90998608070807  1.31190347844784  3.24227563646365
 6 -1.90582404340434 -0.52323758515852  0.13001695999600
 6 -0.44460188278828 -0.43161750895090  0.57128125742574
 6  0.47793893109311 -0.57182069496950 -0.59694507500750
 8  0.25726696679668 -0.80786619421942 -1.79593592529253
 8  1.75764757525753 -0.37035443184318 -0.19013580248025
 7 -7.14763521142114  2.63387897769777  0.14809350485049
 6 -6.10980025902590  3.39484045984598  0.61725525912591
 6 -6.42063931703170  4.76983127252725  0.65176586378638
 6 -7.74392709970997  4.84741537303730  0.23749214051405
 6 -8.19883415501550  3.44479367466747  0.09477202350235
 6 -5.56666462316232  5.91312377827783  1.04520928142814
 6 -8.58295609320932  6.00253128682868  0.13327031243124
 6 -8.48209210051005  7.20484660326033  0.71509775957596
 7 -9.18088036063606  0.66272913401340 -0.44670870457046
 6 -9.92222848254825  1.74633458655866 -0.63588991309131
 6 -11.30072916951695  1.41637997709771 -1.06653837333733
 6 -11.29398180208021  0.04299966406641 -1.19456817081708
 6 -9.99361504220422 -0.47776975127513 -0.77917293339334
 6 -12.37623644734473  2.42924349534953 -1.18588536333633
 6 -12.42769731603160 -0.81392880298030 -1.73344415291529
 6 -12.28209569796980 -1.12140455165517 -3.27473259185919
 7 -7.25513498179818 -1.45890550415041 -0.12279695669567
 6 -8.29571981178118 -2.26664183628363 -0.58851380658066
 6 -7.73204935053505 -3.68877714521452 -0.65081235853585
 6 -6.43427731183118 -3.59455379237924 -0.17654938683868
 6 -6.19345194159416 -2.17770605190519  0.03811661586159
 6 -8.55376284368437 -4.92390523292329 -0.86466494489449
 6 -5.26149061936194 -4.38020190369037  0.20373324592459
 8 -5.08777761566157 -5.50424490789079  0.28648567926793
 6 -4.08704228362836 -3.29288507830783  0.62993285858586
 6 -3.50744137503750 -3.68745396669667  1.91180155305531
 8 -3.66305790639064 -3.26407314351435  2.97363004410441
 8 -2.58727992169217 -4.74396911931193  1.76555513641364
 6 -1.99427001490149 -5.15489971907191  3.01986692219222
 6  2.80130264196420 -0.54531232583258 -1.23902510291029
 6  4.07377946694669 -0.27665584188419 -0.53063321232123
 6  5.09297278167817  0.48341460686069 -0.97384715741574
 6  5.03541196419642  1.37583023232323 -2.17404156945695
 6  6.32372670547055  0.46639849004900 -0.11734822002200
 6  7.49720725862586 -0.07258760566057 -0.95089203970397
 6  8.88385025762576 -0.00262539293929 -0.15011682448245
 6  10.11932255675567 -0.50939801150115 -0.86204717521752
 6  10.10919761996199 -1.96826776287629 -1.29704316931693
 6  11.48135101200120 -0.12102588338834 -0.06658578997900
 6  12.73868877657766 -0.44887893899390 -0.68299832273227
 6  14.00162963136314 -0.24424562736274  0.22620968846885
 6  15.35218134303430 -0.09795352445245 -0.53287152695270
 6  15.69820148904890 -1.57546518031803 -0.88299791749175
 6  16.44278838473847  0.39520388038804  0.46898140534053
 6  17.80421501090109  0.50350174857486 -0.29856567116712
 6  18.86309667916792  0.99793801080108  0.76301673467347
 6  20.21400006920692  1.16143647714771  0.28307307050705
 6  20.41017237103710  1.92320061726173 -1.00418141084108
 6  21.21982291309131  1.71747468376838  1.29448481188119
 1 -4.20663214771477  3.77744326572657  1.64892947984798
 1 -10.21220161286129  3.89997083208321 -0.60804619611961
 1 -10.28847213661366 -2.53184252505251 -1.16743339553955
 1 -2.58047450435043 -0.98379669356936  2.01175186638664
 1 -2.01122472767277  1.43924750735074  1.11572222262226
 1 -1.93736819431943  1.08888934183418  3.59457317081708
 1 -3.12752781278128  2.35874993249325  3.53488565396540
 1 -3.62185562826283  0.66224090809081  3.70008242104210
 1 -2.01312379727973 -1.48878883928393 -0.28775268446845
 1 -1.95105677817782  0.03075032543254 -0.75420546014601
 1 -0.15678919631963  0.57295190909091  0.83420381948195
 1 -0.23668147014701 -1.32440695589559  1.22732668786879
 1 -5.75341411681168  6.78239688378838  0.64019972917292
 1 -5.36843383278328  5.90435379847985  2.11610790789079
 1 -4.50756471247125  5.72526369276928  0.50675385098510
 1 -9.34627668016802  6.02077822592259 -0.59643987218722
 1 -9.25403661956196  7.97233797269727  0.29708933073307
 1 -7.68947841364136  7.43138953845385  1.39565795129513
 1 -12.15268937403740  3.02429275527553 -2.17695069976998
 1 -13.40213988318832  1.99982387358736 -1.18598979047905
 1 -12.29875160626063  3.36329498419842 -0.44104534853485
 1 -12.32049682808281 -1.82387183228323 -1.19246420132013
 1 -13.40110882978298 -0.54553128992899 -1.60023555105511
 1 -13.07093344594460 -1.78202288848885 -3.61930181468147
 1 -12.09169273347335 -0.29046358395840 -3.97275077077708
 1 -11.36479275857586 -1.86549141624162 -3.49465808580858
 1 -9.10212981598160 -4.91720246314632 -1.92402566666667
 1 -7.95196456125612 -6.01025102930293 -0.66263587658766
 1 -9.39823970887089 -4.87786280758076 -0.18383020562056
 1 -3.57689838573857 -3.43050630133013 -0.25349062056206
 1 -1.27000516701670 -4.37188362806281  3.34188710401040
 1 -2.66283589218922 -5.38495011261126  3.65907874677468
 1 -1.39455756725673 -6.03836310951095  2.73128708160816
 1  2.98177748184819 -1.59455129102910 -1.64176814181418
 1  2.45999347694769  0.02836711631163 -2.10373352555256
 1  4.29266017161716 -0.97361957715772  0.39959317531753
 1  3.97177614111411  1.74180289068907 -2.57413578327833
 1  5.44594000570057  2.29383964286429 -1.93208967716772
 1  5.64368167576758  0.95857696519652 -3.04962369336934
 1  6.49721178407841  1.66872087208721  0.03845648844884
 1  6.35120924032403 -0.04976301370137  0.85518523522352
 1  7.23454083878388 -1.11053028822882 -1.10968229182918
 1  7.62465490139014  0.27908111621162 -2.02493541714171
 1  8.98184023562356  1.23930181518152  0.07943557575758
 1  8.83693218191819 -0.56462196839684  0.83363122682268
 1  10.23808135953595  0.02551508920892 -1.72807769726973
 1  9.18715370087009 -2.31578955545555 -1.78429435423542
 1  11.04647720342034 -2.18736552045205 -1.90676492039204
 1  10.22787567356736 -2.63552549454945 -0.37118655835584
 1  11.14974265516552  0.81300353055306  0.25013650115012
 1  11.47302035543554 -0.56005196649665  0.99773039463946
 1  12.67196051495150 -1.48570673187319 -1.24536220382038
 1  13.05594934743474  0.15084577557756 -1.66709007030703
 1  13.97617905460546  0.79594215021502  0.64925226822682
 1  14.15393814691469 -0.79960956565657  1.12306882338234
 1  15.22170545904590  0.35489497449745 -1.53413777177718
 1  15.67137458035804 -2.26609690179018 -0.01182263616362
 1  14.80890394109411 -1.99556193179318 -1.42583999909991
 1  16.66226585598560 -1.69432495739574 -1.51593306280628
 1  16.25067026772677  1.37963579727973  0.73145969026903
 1  16.47100154735474 -0.29485866096610  1.38748150935093
 1  18.21439237793779 -0.50198674607461 -0.26717005740574
 1  17.95348241274128  0.96436375527553 -1.23852742854285
 1  18.53620441304130  2.24009816751675  1.02597060236024
 1  19.07535469576958  0.36186036703670  1.77219722002200
 1  20.57246215891589 -0.02462631443144 -0.02375531153115
 1  20.06361046764676  2.92820638253825 -0.81925551895190
 1  21.47024127622763  1.90791744454445 -1.47434879817982
 1  19.68396230063006  1.40467227802780 -1.68728569756976
 1  21.26629260446045  0.92939104820482  2.05340495769577
 1  22.30957266356636  1.86889811951195  0.90503546984698
 1  21.16847657755776  2.73755383868387  1.74422486298630

