%nproc=4
%Mem=2GB
# td=(NStates=1) CAM-B3LYP/6-31G(d,p) 

TD

0 1
12 -7.19268984198420  0.66827557565757  0.08779646704670
 6 -4.74272889088909 -1.93912509090909  0.50065659835984
 6 -4.79187911681168  2.84011245854585  1.20325669056906
 6 -9.33563829932993  3.02329782528253 -0.34438729842984
 6 -9.46227654135414 -1.81123663466347 -0.87000342944294
 7 -5.21311473607361  0.43640345844584  0.76796721502150
 6 -4.32275198129813 -0.63897371937194  0.84787281048105
 6 -2.81009001440144 -0.32733215891589  1.19177953215322
 6 -3.00192363076308  1.16063873217322  1.62075280598060
 6 -4.45769276417642  1.57304805360536  1.12674970487049
 6 -2.87365244734473  1.44465675377538  3.08528993789379
 6 -1.92773623462346 -0.57297255865587  0.03485744404440
 6 -0.48884630723072 -0.46333068026803  0.52713684298430
 6  0.49266040324032 -0.63262677557756 -0.67751313181318
 8  0.15611685178518 -0.94963037063706 -1.77402373407341
 8  1.78535034553455 -0.46004340074007 -0.35090187908791
 7 -7.10894134203420  2.67366295609561  0.50400909640964
 6 -6.09167844684468  3.41880285608561  0.85652918651865
 6 -6.46479373247325  4.78837312671267  0.75564625182518
 6 -7.76895960296030  4.79252988448845  0.42460085138514
 6 -8.13466773837384  3.43388258355836  0.18827137343734
 6 -5.60896885358536  5.97053951985199  1.03991875237524
 6 -8.56075387298730  5.96230726442644  0.21927891329133
 6 -8.60639453075308  7.02913903250325  1.02808905870587
 7 -9.12722499509951  0.63038589968997 -0.45583961766177
 6 -9.89318557825782  1.78548850195020 -0.58079440354035
 6 -11.15082417901790  1.44310264936494 -1.14957667716772
 6 -11.15417782168217 -0.00320495639564 -1.22375108910891
 6 -9.89253493419342 -0.35086706100610 -0.87259227532753
 6 -12.29181800550055  2.42098266926693 -1.60612738753875
 6 -12.27513205950595 -0.82970038013801 -1.75328613711371
 6 -12.14562205060506 -1.12154456565657 -3.24422954155416
 7 -7.21589105740574 -1.32176178977898 -0.05892056905691
 6 -8.26327656745675 -2.22160733283328 -0.47014196939694
 6 -7.68471461706171 -3.62787105460546 -0.53952122942294
 6 -6.42277616171617 -3.48539287628763 -0.12418415031503
 6 -6.17892048844884 -2.14107238853885  0.16668947314731
 6 -8.59778724612461 -4.89722256465647 -0.82499097749775
 6 -5.30053452375238 -4.40379426292629  0.19886275887589
 8 -5.05763460136014 -5.53181766516652  0.08796582728273
 6 -4.03521710111011 -3.41153694349435  0.59336920222022
 6 -3.58790942184218 -3.66656187748775  2.00878125102510
 8 -3.83002460306031 -3.02547928412841  3.01731441254125
 8 -2.81451264496450 -4.75843056545655  1.94753333423342
 6 -2.26238682658266 -5.08911314041404  3.26528146364636
 6  2.74515702740274 -0.62895068966897 -1.31452265266527
 6  4.18664075307531 -0.41344952125213 -0.67319746874687
 6  5.15194867926793  0.34457072247225 -1.19075884858486
 6  5.20491891489149  1.05611826112611 -2.39895406070607
 6  6.39487382018202  0.38994084428443 -0.24046053125313
 6  7.66613415131513 -0.05364571147115 -1.12344929542954
 6  9.05193706630663 -0.02953808420842 -0.36578839163916
 6  10.24216484098410 -0.63486055775578 -1.03389435993599
 6  10.13660036023602 -2.08196913301330 -1.42275574057406
 6  11.35428830573057 -0.28243202400240 -0.11482061346135
 6  12.77648255595559 -0.65604965606561 -0.82150217311731
 6  13.91806127452745 -0.37236843964396  0.07458452595260
 6  15.37978410331033 -0.38824255335534 -0.55815405520552
 6  15.80711238013801 -1.87544517831783 -0.93541315901590
 6  16.31388549444944  0.27868222822282  0.32843735093509
 6  17.81063565296530  0.45528692709271 -0.16040185478548
 6  18.64503487298730  1.28583680068007  0.92338277127713
 6  20.08983765296530  1.49332966646665  0.46087085028503
 6  20.27213856765677  2.36718501570157 -0.80858185088509
 6  20.97236816761676  2.12124506080608  1.58259362276228
 1 -3.91001248574857  3.47825334673467  1.39145373227323
 1 -10.19357975067507  3.94052488748875 -0.42685807730773
 1 -10.31022431183118 -2.36287562836284 -1.23165981818182
 1 -2.55074153105310 -0.89745805970597  2.01496218741874
 1 -2.39572317751775  1.70378396099610  1.14955560596060
 1 -1.90179463696370  1.09240969386939  3.55612932643264
 1 -2.98018307830783  2.54983904140414  3.24731689708971
 1 -3.55953939663966  0.84356904090409  3.90154256705671
 1 -2.18897138203820 -1.58352831323132 -0.38659256845685
 1 -2.06348802130213  0.29080633103310 -0.85821586118612
 1 -0.26496001340134  0.51427604150415  1.04803520262026
 1 -0.05046284828483 -1.23029754495450  1.23576753195319
 1 -5.65800457585759  6.85554419851985  0.47160286948695
 1 -5.53336032543254  6.23278664176418  2.18543484058406
 1 -4.47509146514651  5.69005017141714  0.77795097069707
 1 -9.21172322482248  6.16684283238324 -0.71349157735774
 1 -9.20891210711071  7.95320605950595  0.70813043484349
 1 -7.94728419421942  7.20931733123312  1.96690507600760
 1 -12.33050715581558  3.00470079607961 -2.51447445214521
 1 -13.27983765296530  1.98449234043404 -1.71403259475948
 1 -12.41603333443345  3.22020067476748 -0.58081932593259
 1 -12.35755053345335 -1.71946139123912 -1.14231918681868
 1 -13.19652837173717 -0.18286502330233 -1.58253378087809
 1 -13.05217156975698 -1.50825551175117 -3.71199108360836
 1 -11.90642420662066 -0.30240477807781 -3.85595909160916
 1 -11.08519479877988 -1.73944881198120 -3.21869048904890
 1 -8.76082568556856 -4.84586532943294 -1.84659792389239
 1 -8.01244060886089 -5.76959696389639 -0.59849946294630
 1 -9.67254713961396 -4.67762278357836 -0.03871569416942
 1 -3.13091378727873 -3.48065131583158 -0.09911518301830
 1 -2.06276444294429 -3.94027046674667  3.70023293859386
 1 -3.09558916751675 -5.70178179577958  3.63633647254726
 1 -1.05575368686869 -5.63207248044804  3.05367932083208
 1  2.83807311141114 -1.64024586048605 -1.71691565656566
 1  2.65294277187719  0.21517579717972 -2.10719387158716
 1  4.38219912551255 -0.91819403460346  0.27575079107911
 1  4.31125008850885  0.93188189858986 -2.91760012971297
 1  5.68253366506651  2.10114037293729 -2.35659212741274
 1  5.78297560516052  0.46589769726973 -3.23822255325533
 1  6.73623568646865  1.33332733273327 -0.01967932513251
 1  6.35513963336334 -0.28942698009801  0.56645636233623
 1  7.67255464016402 -1.08590782598260 -1.57084840844084
 1  7.74352678857886  0.53171637973797 -2.14426735033503
 1  9.48090014161416  0.85212309730973  0.11954958715872
 1  9.04400288898890 -0.66792229842984  0.47293515721572
 1  10.25280283168317  0.08034057175718 -1.93007789728973
 1  9.04341932743274 -2.10226820332033 -2.00508643344334
 1  11.07283983968397 -2.53475025892589 -1.73779802370237
 1  9.78825171117112 -2.84057599959996 -0.58530797049705
 1  11.30790847174717  0.76253848404841  0.27003849134913
 1  11.39015206860686 -0.91401736303630  0.72874349594960
 1  12.85528884778478 -1.75944410561056 -0.87923559115912
 1  12.82461621412141 -0.18554786378638 -1.86869023032303
 1  13.85563700040004  0.67652020802080  0.69440678367837
 1  13.96222897599760 -1.09303890859086  0.90916743324332
 1  15.16170945944594  0.07371685668567 -1.55578993699370
 1  16.12052949584958 -2.58358865096510 -0.04331578547855
 1  15.02047509820982 -2.39831220682068 -1.37168458355836
 1  16.73530315971597 -1.72347787268727 -1.61230269976998
 1  16.12161736243624  1.26345417911791  0.24974151845185
 1  16.25216966416642 -0.12463163826383  1.48558131933193
 1  18.22506344504450 -0.49632618001800 -0.29159249964997
 1  17.82235930043004  0.95734305320532 -1.08450202600260
 1  17.93449424202420  2.20178433613361  1.15660366566657
 1  18.67690485078508  0.71597577857786  1.67036703700370
 1  20.47515242794280  0.45194134233423  0.41986905090509
 1  19.88751285788579  3.37464102600260 -0.56457005040504
 1  21.41503575567557  2.66003265606561 -0.88558992229223
 1  20.00285418981898  1.90501231203120 -1.80722769176918
 1  20.82313828902890  1.52235034413441  2.28226784398440
 1  22.00270197649765  2.44187541724172  1.17606257255726
 1  20.62140187008701  3.17946803010301  1.85763620412041

