%nproc=4
%Mem=2GB
# td=(NStates=1) CAM-B3LYP/6-31G(d,p) 

TD

0 1
12 -7.13530410341034  0.62397114521452  0.10420810821082
 6 -4.85999061706171 -2.00416159455946  0.40899743244324
 6 -4.79444937383738  2.74738318561856  1.24893125802580
 6 -9.42299703520352  3.11346684218422 -0.48047090679068
 6 -9.51678199189919 -1.71359687068707 -0.83357978707871
 7 -5.03145657025703  0.40845066316632  0.67200761906191
 6 -4.29547925402540 -0.69328915091509  0.75222324552455
 6 -2.89194820022002 -0.36760618631863  1.23476383058306
 6 -2.99810324872487  1.06563923222322  1.63353408410841
 6 -4.35430242514251  1.44522527132713  1.15753278317832
 6 -2.75189027112711  1.39087137523752  3.24118552745275
 6 -1.85982944394439 -0.61857711911191  0.06827078537854
 6 -0.50167759035904 -0.65674002120212  0.53662779207921
 6  0.51960309750975 -0.78472198509851 -0.56217159765977
 8  0.17820906100610 -1.21251665926593 -1.66778311001100
 8  1.72638444894489 -0.47040443684368 -0.08047483638364
 7 -7.24211465936594  2.56622221202120  0.41882057755776
 6 -6.06855613461346  3.27309828562856  0.82688622222222
 6 -6.41057831093109  4.75540983038304  0.84048473567357
 6 -7.81577428442844  4.87354798629863  0.35748413971397
 6 -8.16409068066807  3.46282547784778  0.07603014931493
 6 -5.58772672937294  5.90743320922092  1.11967672817282
 6 -8.52513031063106  6.03027406110611  0.05948293369337
 6 -8.39239313061306  7.29893601220122  0.56041229102910
 7 -9.15676794939494  0.74844770587059 -0.53783781748175
 6 -9.88865512521252  1.81164111721172 -0.57936426052605
 6 -11.31153024962496  1.48926726582658 -1.07281900140014
 6 -11.26122852675267  0.14545991009101 -1.20771948594859
 6 -10.06799247994799 -0.36591856615662 -0.91636665276528
 6 -12.38802762646265  2.39640021102110 -1.27212398719872
 6 -12.40997554385438 -0.65750316041604 -1.69326013451345
 6 -12.34647213561356 -1.07051946314631 -3.20792591119112
 7 -7.21308077637764 -1.35194480808081 -0.08793347034703
 6 -8.24515475527553 -2.24067924002400 -0.53610856605661
 6 -7.79951609720972 -3.63614188168817 -0.59430670797080
 6 -6.51715559965997 -3.60031436843684 -0.16461819371937
 6 -6.19816241264126 -2.22191047234723  0.06857966216622
 6 -8.64223169056906 -4.85793863626363 -0.90730920932093
 6 -5.36555102540254 -4.32427631113111  0.11115398799880
 8 -5.27828666656666 -5.58708319171917  0.01129816051605
 6 -4.14038761816182 -3.36315210501050  0.45276514181418
 6 -3.63023365426543 -3.66802202350235  1.90233060596060
 8 -3.92102370297030 -3.05964270047005  2.90130281138114
 8 -2.70558175187519 -4.62099682208221  1.77687626852685
 6 -2.28908949684968 -5.14082831193119  3.04779971547155
 6  2.81402391409141 -0.54759255385539 -1.06382758315832
 6  4.14167625662566 -0.40853903020302 -0.45813596259626
 6  5.11750523492349  0.32534880028003 -0.96671644434443
 6  5.15117354035404  0.90642329162916 -2.32254641994199
 6  6.47956228902890  0.33035488568857 -0.27683416861686
 6  7.73265080298030 -0.14638498539854 -1.01085803630363
 6  9.01798367096710 -0.14830996139614 -0.11230304310431
 6  10.29576020052005 -0.59573664536454 -0.84753572407241
 6  10.10229692989299 -2.13563449954996 -1.29828329332933
 6  11.44867774467447 -0.29457323812381  0.07251812041204
 6  12.79154406210621 -0.40902495359536 -0.63157318021802
 6  13.97253672207221  0.03612240944094  0.18340540804080
 6  15.34519064396440 -0.12985671477148 -0.49638787858786
 6  15.73011468036804 -1.53553118691869 -0.94643426112611
 6  16.49932403830383  0.39055341534153  0.28647315451545
 6  17.91126571597160  0.49088048644864 -0.20399621422142
 6  18.90749111861186  1.23237145414541  0.74759519251925
 6  20.32075074427443  1.41903223672367  0.21308607180718
 6  20.37005835963597  2.17855615281528 -1.06515750845085
 6  21.14519545034504  2.07332026832683  1.34904026742674
 1 -4.03954543904390  3.45948146954695  1.59780436733673
 1 -10.11022141484148  3.90772160716072 -0.49691508300830
 1 -10.36197948734873 -2.61484082488249 -1.19033568576858
 1 -2.65026148304830 -1.14737305120512  1.94187487868787
 1 -2.38571217641764  1.54714829742974  0.97801845224522
 1 -1.73488794629463  0.85913636653665  3.35583929742974
 1 -2.46622168216822  2.43160721822182  3.48702086748675
 1 -3.67426086878688  0.93619830383038  3.90188260106011
 1 -2.01086357125713 -1.56352631303130 -0.57413132233223
 1 -2.15017669016902 -0.09051180078008 -0.73746378597860
 1 -0.54830834823482  0.32467708160816  0.93727412651265
 1 -0.21183898589859 -1.39766428162816  1.42617657285729
 1 -5.83681245664566  6.66879552365237  0.30494620382038
 1 -5.80132712211221  6.44633799689969  2.21302759985999
 1 -4.37242119811981  5.81555272167217  1.18397157275728
 1 -9.30915296779678  5.82293844194419 -0.56875710391039
 1 -9.10994221012101  8.17765850475048  0.29087870967097
 1 -7.73690315611561  7.53414981448145  1.53747213271327
 1 -12.22194629972997  2.93731405740574 -2.35209821452145
 1 -13.31865153435343  1.79729362056206 -1.30523171467147
 1 -12.54846657775778  3.21532018671867 -0.53260450445045
 1 -12.49354413281328 -1.57344678977898 -0.96988194309431
 1 -13.32527124602460 -0.15467220402040 -1.08874440194019
 1 -13.38867522012201 -1.40556524272427 -3.54880476497650
 1 -12.20485404960496 -0.08660319791979 -3.90471396709671
 1 -11.41747802710271 -1.46301116821682 -3.33526214621462
 1 -9.16692629562956 -4.92475321822182 -1.90634389848985
 1 -7.74536390119012 -5.40801080528053 -1.03236284928493
 1 -9.36818670357036 -5.07357237853785 -0.17176899949995
 1 -3.31927262316232 -3.60284353505351 -0.27303257475748
 1 -1.86768493499350 -4.22301874157416  3.79692260756076
 1 -3.31956156475648 -5.50007162476248  3.58661150005000
 1 -1.61498961046105 -6.08736801000100  2.84005795869587
 1  2.78804810891089 -1.50977281318132 -1.45071903690369
 1  2.64018149574957 -0.14085980638064 -1.96468962116212
 1  4.33437434303430 -0.89832204740474  0.42307552355236
 1  4.15637460096010  1.00282899329933 -2.84714308400840
 1  5.49811522322232  2.01108136703670 -2.25825229342934
 1  5.78840614821482  0.38597970547055 -3.12937166816682
 1  6.38931099399940  1.43295729572957  0.04965760856086
 1  6.10663478287829 -0.25232326972697  0.62757247394739
 1  7.69973735843584 -1.28938817401740 -1.14032535613561
 1  7.97716015191519  0.34654786288629 -1.84960788438844
 1  9.34813686528653  0.92756064106411  0.07881551375138
 1  8.98264675337534 -0.69200470667067  0.86622448614861
 1  10.44225177657766 -0.08324578687869 -1.79854474397440
 1  9.24428941444144 -2.32232020852085 -1.91155708050805
 1  11.02036459215922 -2.37126391029103 -1.79429367326733
 1  9.99293217921792 -2.68257019901990 -0.44374381408141
 1  11.47256493739374  0.81149337953795  0.40385187268727
 1  11.22070512391239 -0.86477243854385  1.06208683028303
 1  13.08247156605661 -1.49844800600060 -0.99699736733673
 1  12.74361811431143  0.03956464746475 -1.71106446774677
 1  14.02309374607461  1.21426398239824  0.52133947694769
 1  13.96393914701470 -0.68963856855686  1.14473098959896
 1  15.06387967646765  0.43536302130213 -1.43452781078108
 1  15.79819726262626 -2.17612790489049  0.00099864596460
 1  14.77116016671667 -1.75849822542254 -1.62952036713671
 1  16.59841947134714 -1.51417694259426 -1.61584305380538
 1  16.09977517821782  1.32530036373637  0.66267281158116
 1  16.51635608280828 -0.19837901300130  1.27830059125913
 1  18.39058999769977 -0.54310085748575 -0.23231657205721
 1  17.91485855035504  0.93625094399440 -1.29747332313231
 1  18.47623841644164  2.34728888658866  0.90856886218622
 1  18.87247440774077  0.87169135013501  1.68762876317632
 1  20.70970588328833  0.48133428162816  0.07791485548555
 1  19.88799290589059  3.10630419231923 -1.16769036243624
 1  21.46586083818382  2.35908256105611 -1.33402476577658
 1  19.65232913731373  1.64317612841284 -1.85027199619962
 1  21.04786076127613  1.79124723382338  2.36004562176218
 1  22.37016872317232  2.17737896759676  1.31554652095210
 1  20.94708443834384  3.18660874417442  1.37713815431543

