%nproc=4
%Mem=3GB
# td=(NStates=1) iop(3/107=0140000000,3/108=0140000000) CAM-B3LYP/6-31G(d,p) 

TD

0 1
12 -7.11877656935694  0.62015039853985  0.14795116511651
 6 -4.86823564006401 -1.95957318791879  0.42681808420842
 6 -4.72796882748275  2.73642236013601  1.07535764096410
 6 -9.36185294979498  3.14956250925093 -0.36776925222522
 6 -9.58767486548655 -1.73900566626663 -0.87911471637164
 7 -5.11556858805881  0.41299739033903  0.82257008100810
 6 -4.33537578487849 -0.74734587778778  0.83145103980398
 6 -2.91221744234423 -0.49880827882788  1.22656832593259
 6 -2.91523475037504  0.98698740034003  1.68753503280328
 6 -4.31137137183718  1.40411506260626  1.12780717461746
 6 -2.95589176997700  1.16680950025003  3.22690800540054
 6 -1.97129285898590 -0.73366935613561  0.16426023632363
 6 -0.48065377457746 -0.65651889988999  0.64511789408941
 6  0.51862378557856 -0.80199682158216 -0.53815360546055
 8  0.27615783258326 -1.05307908560856 -1.65118251135114
 8  1.79002760116012 -0.46549648804880 -0.14671005860586
 7 -7.07949559295930  2.60054326422642  0.42260318441844
 6 -5.96033617741774  3.32768653605361  0.74454033013301
 6 -6.27326223462346  4.74271113471347  0.74049230793079
 6 -7.62972775807581  4.88266007120712  0.26041216761676
 6 -8.12746227372737  3.52361930073007  0.09222722132213
 6 -5.32203423732373  5.85424489818982  0.96772692789279
 6 -8.44238424642464  6.00234050365037  0.12185279777978
 6 -8.20363877387739  7.25386453615361  0.59126318561856
 7 -9.10354939603960  0.71707870227023 -0.39696627052705
 6 -9.86170365666567  1.90182350665067 -0.65275808930893
 6 -11.21318527122712  1.59029847434743 -1.17426228592859
 6 -11.28422790999100  0.21167871367137 -1.19092912121212
 6 -9.99654725832583 -0.38099829322932 -0.83140534183418
 6 -12.28306924462446  2.46424166556656 -1.44189364206421
 6 -12.51653544644464 -0.60988711251125 -1.65997532813281
 6 -12.46306821572157 -1.05669586188619 -3.10656130733073
 7 -7.31694465686569 -1.43818865456546 -0.17940061516152
 6 -8.36430075637564 -2.19590813631363 -0.54811639153915
 6 -7.95815785558556 -3.65207575897590 -0.46969726952695
 6 -6.56566435693569 -3.65133811591159 -0.18236031773177
 6 -6.26508023972397 -2.22817077287729  0.03838567396740
 6 -8.77358969846985 -4.73884998339834 -0.90921430453045
 6 -5.34693015591559 -4.41680524392439  0.07433240734073
 8 -5.32489348164817 -5.62257911491149  0.16411235983598
 6 -4.25013951655166 -3.42522997039704  0.50240856245625
 6 -3.56614079087909 -3.78614655735574  1.83374934343434
 8 -3.69458224162416 -3.04169152705271  2.87949130733073
 8 -2.85132048484848 -4.74578319681968  1.74855389288929
 6 -2.28087704470447 -5.20364557045705  2.94910231063106
 6  2.83394971537154 -0.59876816571657 -1.13813733093309
 6  4.06721760696070 -0.33964923282328 -0.39825238803880
 6  5.11158664996500  0.44516104410441 -0.82456533353335
 6  5.09179290489049  1.16304397969797 -2.21627576257626
 6  6.45902218091809  0.50532114811481 -0.19524004840484
 6  7.62626407900790 -0.07724627262726 -0.95185551425143
 6  8.93137084868487 -0.15631744784478 -0.03816991939194
 6  10.23829929052905 -0.48193985718572 -0.85221094109411
 6  10.20269354595460 -1.94274215411541 -1.31088805480548
 6  11.41650631443144 -0.21905679677968 -0.12666062856286
 6  12.72948068356836 -0.40667070057006 -0.83096060116012
 6  13.99547081888189 -0.00221593589359  0.01215762736274
 6  15.42178816981698 -0.19437852145215 -0.57062271477148
 6  15.85864213521352 -1.66656504480448 -0.94944677097710
 6  16.38878587128713  0.50380689798980  0.35994072877288
 6  17.81987957565757  0.51574530413041 -0.19884641164116
 6  18.77293771237123  1.19653773227323  0.80427368406841
 6  20.23643644804481  1.33069250175017  0.32885959195920
 6  20.46618946474647  2.06437374247425 -0.96310100600060
 6  21.06734180118012  1.99323102300230  1.40469440944094
 1 -3.83462382588259  3.45040829222922  1.26434253005301
 1 -10.03617574087409  3.89791206570657 -0.41155568176818
 1 -10.31882630673067 -2.42905844094409 -1.15523334273427
 1 -2.92043933113311 -0.99160936363636  2.25567205790579
 1 -2.12394586088609  1.43296535763576  1.07477112611261
 1 -1.96743983038304  0.56001510791079  3.46012635003500
 1 -2.86516362546255  2.31137035983598  3.46725474767477
 1 -3.79313211371137  0.61742689698970  3.76143782898290
 1 -2.16230134913491 -1.74029470027003 -0.20743875097510
 1 -1.96293266226623 -0.08811119131913 -0.86642337693769
 1 -0.42041747044704  0.16047563486349  1.11333519651965
 1 -0.16451487178718 -1.38497926452645  1.43309676797680
 1 -5.56281045874587  6.58654616661666  0.26816664796480
 1 -5.31610308160816  6.35819870127013  1.91365337783778
 1 -4.24452929752975  5.58901316931693  1.01372210481048
 1 -9.41060131993199  5.76705008700870 -0.33513486618662
 1 -8.71542060576058  8.12941266226623  0.33017279297930
 1 -7.12714064616462  7.32710954735473  0.96675563586359
 1 -11.97741821482148  3.20846999409941 -2.14392022352235
 1 -13.33265056275627  2.06931567396740 -1.64017974617462
 1 -12.39887091979198  3.05760309440944 -0.45355579507951
 1 -12.71016298119812 -1.64487541034103 -1.05418891979198
 1 -13.39224152325233 -0.21911462196220 -1.32814856925693
 1 -13.27072227142714 -1.77954161626163 -3.20725168326833
 1 -12.28973937963796 -0.33347181848185 -3.86604558295830
 1 -11.58879371877188 -1.67127815501550 -3.51849012721272
 1 -9.56804142274227 -4.54647114791479 -1.76657272027203
 1 -7.91745613081308 -5.60961691499150 -1.21414136923692
 1 -9.31602578157816 -5.25441388978898  0.04431216251625
 1 -3.24028154665467 -3.50348695429543 -0.05281301940194
 1 -1.84693808140814 -4.34592680608061  3.27355907350735
 1 -3.06118255555556 -5.42798232313231  3.59005004270427
 1 -1.71690221072107 -5.97795858065807  2.55306866796680
 1  2.79097715251525 -1.58369499229923 -1.58633008170817
 1  2.70832727402740 -0.02171408660866 -2.04919597709771
 1  4.06594708140814 -1.02501091489149  0.28601000120012
 1  3.93461877337734  1.18338388108811 -2.60778126382638
 1  5.23546047824782  2.27084750865086 -2.13931136953695
 1  5.44771433993399  0.63418460936094 -3.15590184708471
 1  6.51125930983098  1.67560754135413 -0.00269065516552
 1  6.44541241334133 -0.08906624332433  0.89061525702570
 1  7.40561268406841 -0.99795046804680 -1.56029078627863
 1  7.84138669716972  0.75299440244024 -1.71605242814281
 1  9.12794883918392  0.75023452095210  0.62464489258926
 1  8.56250937173717 -1.02852120482048  0.66138226162616
 1  10.11391602340234  0.17648379617962 -1.61643680168017
 1  9.40355996509651 -1.95629391289129 -2.00340872277228
 1  11.21116025662566 -2.25771917121712 -1.85676103420342
 1  9.89972216931693 -2.66203031773177 -0.63440083378338
 1  11.44034567616762  0.87126355975598  0.22666043684369
 1  11.56875447094709 -0.79093039063906  0.93272959305931
 1  12.85601355385539 -1.44268168746875 -1.16635890739074
 1  12.79593542344234  0.12016695269527 -1.80433476717672
 1  13.78892031233123  1.08743410671067  0.21736656535654
 1  13.82261057165717 -0.67451383028303  0.92898527252725
 1  15.35481588298830  0.17754115111511 -1.47891916071607
 1  15.78141193799380 -2.43840318151815 -0.25018315381538
 1  15.22835447984798 -1.92982750275028 -1.71447282078208
 1  16.68099637923792 -1.62037293429343 -1.25345185848585
 1  16.19455272877288  1.50401873557356  0.63467938423842
 1  16.40686476427643 -0.22127841264126  1.14979347404740
 1  18.12712945064506 -0.53330984498450 -0.47064726032603
 1  17.98258556815681  1.25951484558456 -0.93254899849985
 1  18.22173123002300  2.27875914391439  0.94297624442444
 1  18.68397435993599  0.95807064656466  1.86035928142814
 1  20.52720255255526  0.26619761736174  0.30182607480748
 1  19.96731354985499  3.07425820232023 -0.97245943064306
 1  21.50101390219022  2.14072521462146 -1.12438041924192
 1  19.99881827942794  1.74590488068807 -1.98316670107011
 1  21.38233208670867  1.38829447034703  2.25485915471547
 1  22.09564745754575  2.17221769246925  0.91355800940094
 1  20.62668274677468  3.08372448964896  1.54247138383838

