%nproc=4
%Mem=2GB
# td=(NStates=1) CAM-B3LYP/6-31G(d,p) 

TD

0 1
12 -7.18422899589959  0.68388713681368 -0.04214652725273
 6 -4.87651226922692 -1.95605678407841  0.40529706240624
 6 -4.69896982588259  2.80344879217922  1.13731009590959
 6 -9.39590432593259  3.03894939043904 -0.36023888358836
 6 -9.57937825152515 -1.69438494949495 -0.78919534863486
 7 -5.12016544114412  0.40828064616462  0.71128154645465
 6 -4.35924563066307 -0.71704152615262  0.78660668386839
 6 -2.89240824622462 -0.40791021672167  1.24552490669067
 6 -3.07773121152115  1.08977164546455  1.73586431713171
 6 -4.34295129002900  1.46891764056406  1.13850087998800
 6 -2.98453353545355  1.06850913901390  3.31616302520252
 6 -1.87442090309031 -0.65044030543054  0.20082404070407
 6 -0.47610503310331 -0.50187453465347  0.61820594989499
 6  0.55250638783878 -0.70230374327433 -0.39878525902590
 8  0.20056129622962 -1.15513092069207 -1.59763609530953
 8  1.74069588008801 -0.36362375877588 -0.05676246514651
 7 -7.05064551245125  2.64547013681368  0.23390208570857
 6 -5.96477575657566  3.40740171597160  0.63805733933393
 6 -6.38278553165317  4.74886917631763  0.76210689788979
 6 -7.71513422042204  4.76863749524952  0.26092448374837
 6 -8.04464873647365  3.48108730403040 -0.01395884958496
 6 -5.44409236593659  5.86908937483748  0.94840960146015
 6 -8.52798059565957  5.98014904860486  0.03144012941294
 6 -8.47659155045505  7.19002512111211  0.65150139993999
 7 -9.11931420402040  0.73006586768677 -0.61302533623362
 6 -9.89000526022602  1.81772172527253 -0.57744406850685
 6 -11.17533663026303  1.48812715181518 -1.10553227272727
 6 -11.30366277017702  0.10467583168317 -1.19320803480348
 6 -9.95069074977498 -0.37565954025403 -0.93312832893289
 6 -12.41635045874587  2.38842941394139 -1.35817259205921
 6 -12.44212875917592 -0.80869827992799 -1.67613842234223
 6 -12.41850933933393 -1.26887929912991 -3.13102822142214
 7 -7.28180764906491 -1.37436705030503 -0.16383106010601
 6 -8.28774901470147 -2.23831900400040 -0.50280523572357
 6 -7.83493963956396 -3.63256152365237 -0.48728600590059
 6 -6.48518240234023 -3.52730706770677 -0.15749748164817
 6 -6.20662325872587 -2.16446472777278  0.06153895809581
 6 -8.56320378777878 -4.76345918831883 -0.87094557295730
 6 -5.35428989928993 -4.33606749024902  0.10306317891789
 8 -5.20614945284528 -5.53460794419442  0.05320235093509
 6 -4.18854243364336 -3.29984577437744  0.53160302560256
 6 -3.59424005490549 -3.64637985928593  1.85455582848285
 8 -3.77089869046905 -3.10334707090709  2.86994967606761
 8 -2.64000519421942 -4.70340506290629  1.78183676457646
 6 -2.22491307920792 -5.26305053415341  2.93613854935494
 6  2.82436494819482 -0.55251304590459 -1.16641784218422
 6  4.01578366736674 -0.37002517881788 -0.42747289628963
 6  5.16637012141214  0.33896016141614 -0.78544831753175
 6  5.19046746974697  1.34738738803880 -1.96984114941494
 6  6.45827015981598  0.40813266346635 -0.00815730093009
 6  7.62356989488949 -0.10447079397940 -0.76230318081808
 6  8.94741661426143 -0.04804993539354 -0.00015182798280
 6  10.06527715221522 -0.72854992669267 -0.84434540504050
 6  10.00502720292029 -2.11521245734573 -1.16583004800480
 6  11.46710958785879 -0.40142392319232 -0.00160929232923
 6  12.70694560226022 -0.43071712281228 -0.75073509640964
 6  13.94974444284428 -0.04781598439844  0.13546061356136
 6  15.31993811871187 -0.07161089018902 -0.57092533233323
 6  15.67188885778578 -1.45223285708571 -1.14840445814581
 6  16.41060516641664  0.42336669666967  0.34921942914291
 6  17.86063065246525  0.59229062746275 -0.32696851145115
 6  18.88200857035704  1.27229544654465  0.70514094709471
 6  20.35418408760876  1.24772510601060  0.14058882208221
 6  20.50279163296330  2.10691898909891 -1.13568456115612
 6  21.20405133593360  1.86294923122312  1.31423678707871
 1 -3.98014949944995  3.49179470087009  1.66043062996300
 1 -10.04895528822882  3.81914274927493 -0.47575296679668
 1 -10.57056034543454 -2.52440178097810 -0.96192284448445
 1 -2.65897235413541 -1.05289360326033  2.14339503070307
 1 -2.40193379857986  1.70438402100210  1.36078672907291
 1 -1.86444090159016  0.91314176707671  3.63628734223422
 1 -3.32009706970697  1.97397145464546  3.43622578797880
 1 -3.53620706340634  0.31946663066307  3.55290770357036
 1 -2.23500598549855 -1.61158111851185 -0.18068197739774
 1 -2.05909758225823  0.08611586198620 -0.59162920252025
 1 -0.26627014441444  0.62461707560756  0.95831623072307
 1 -0.18968677067707 -1.05322983818382  1.47027098229823
 1 -5.77802657805781  6.82443108720872  0.48817452665267
 1 -5.34683167256726  6.02165552865287  2.04460075717572
 1 -4.50943489948995  5.57035820222022  0.44453762936294
 1 -9.22751480398040  5.99776592469247 -0.61278150635064
 1 -8.86509772567257  8.11765250415042  0.37472709450945
 1 -7.51718118391839  7.13821022052205  1.42034041954195
 1 -12.22203630873087  3.16708703470347 -2.15074807950795
 1 -13.35957562676268  1.84098798999900 -1.40808199969997
 1 -12.64969670077008  3.09071772647265 -0.59933117711771
 1 -12.44371915031503 -1.85577502260226 -1.11250620552055
 1 -13.36315503440344 -0.49152588938894 -1.46360188768877
 1 -13.32158851145114 -1.88206289248925 -3.62639252375237
 1 -12.31388495269527 -0.44465900350035 -3.98670216591659
 1 -11.29948622792279 -1.62315718281828 -3.34663328332833
 1 -9.05932553555356 -4.50160090299030 -1.77329059315932
 1 -7.79516888168817 -5.58076808100810 -0.87404701770177
 1 -9.36334621952195 -4.92872789408941 -0.04069589218922
 1 -3.31833252915292 -3.23540679137914 -0.28328359985999
 1 -1.50442860936094 -4.55277171687169  3.48944185948595
 1 -3.20051966056606 -5.37688930653065  3.53443628252825
 1 -2.03600171167117 -6.44915418861886  2.47009096199620
 1  2.75478478257826 -1.50288212411241 -1.59471343634363
 1  2.63246072367237  0.17738201780178 -2.09347249944994
 1  4.27150805640564 -0.95105732093209  0.44966818281828
 1  4.03074203770377  1.65529423982398 -2.36482485218522
 1  5.77989340104010  2.23879413831383 -1.52741921012101
 1  5.72996030363036  0.90872197969797 -2.74579331033103
 1  6.58233029592959  1.45582958295830  0.35910855365537
 1  6.24802892229223 -0.09003704110411  0.93988370507051
 1  7.50360774547455 -0.99967920312031 -1.15801712531253
 1  7.54121655755576  0.51938514661466 -1.68143106670667
 1  8.96635868746875  0.91152903790379  0.32714034623462
 1  8.82713120182018 -0.77944345054505  0.97411527522752
 1  10.17430498189819 -0.17094455675568 -1.78208309780978
 1  9.11599658515852 -2.50356833333333 -1.76759268406841
 1  10.89007156285629 -2.31431821572157 -1.74208845274527
 1  10.01449433543354 -2.80654259625963 -0.31427086678668
 1  11.48024570547055  0.49439166936694  0.41817330483048
 1  11.35738879227923 -0.90559652095209  0.99212983458346
 1  13.04382770167017 -1.43000116131613 -1.17787545514551
 1  12.70762451495149  0.30276096709671 -1.67624098539854
 1  13.69975141184118  1.00464302030203  0.72372971597160
 1  13.97948070117012 -0.57362696739674  1.05729224572457
 1  15.15610889938994  0.69707919291929 -1.55332969096910
 1  15.70224766766677 -2.02767305940594 -0.31025247914791
 1  14.77165021572157 -1.76554893049305 -1.86089350445045
 1  16.63849347874788 -1.59772529742974 -1.54779624912491
 1  16.08696389708971  1.36807464116412  0.88109465376538
 1  16.41161560876088 -0.42639181428143  1.18910167136714
 1  18.21735267396740 -0.32284883228323 -0.41266460686069
 1  17.87582464696470  0.98680599949995 -1.25668924472447
 1  18.49408020062006  2.30422458015802  1.02843084838484
 1  18.79921708200820  0.63588776977698  1.62563256355636
 1  20.76614152685269  0.32783893209321 -0.15788872487249
 1  20.36426053265327  3.20392395429543 -1.23874746814682
 1  21.53429768186819  1.87641429422942 -1.56968833213321
 1  19.64324822922292  1.80121193199320 -1.91680864986499
 1  21.01426740194020  1.26447455655566  2.26402601980198
 1  22.32469417571757  1.86231746144614  1.05800076637664
 1  20.96258598849885  2.90722080538054  1.62665310581058

