%nproc=4
%Mem=3GB
# td=(NStates=1) iop(3/107=0140000000,3/108=0140000000) CAM-B3LYP/6-31G(d,p) 

TD

0 1
12 -7.18452314401440  0.62079046254625  0.13625999599960
 6 -4.75700451695170 -1.96834406500650  0.46974237663766
 6 -4.85128115871587  2.87225594349435  1.11342144734473
 6 -9.44726149064907  3.05852340534053 -0.29683215851585
 6 -9.43460955895590 -1.80597236293629 -1.01161796669667
 7 -5.22096912811281  0.46369245984598  0.74629245324532
 6 -4.32065431273127 -0.69580072327233  0.73302119681968
 6 -2.88774499509951 -0.34836323432343  1.10733640274027
 6 -3.03383661056106  1.21397009860986  1.60708698799880
 6 -4.44313454815481  1.44055870697070  1.11512590649065
 6 -3.05355153595360  1.27824064336434  3.17195250985099
 6 -1.84370009970997 -0.52472846204620  0.03893770407041
 6 -0.36188189738974 -0.41588483648365  0.49468285058506
 6  0.53306522972297 -0.55357197909791 -0.63106289638964
 8  0.28281849864986 -0.88042181988199 -1.76715410851085
 8  1.77523612201220 -0.35013495189519 -0.22384777237724
 7 -7.08468611201120  2.66998020792079  0.17714863896390
 6 -5.97001714551455  3.43153692109211  0.76277215331533
 6 -6.47822273067307  4.71775863946395  0.80810906960696
 6 -7.75525031033103  4.87368917411741  0.45431155755576
 6 -8.14484401190119  3.51280821962196  0.01356935553555
 6 -5.63707574147415  5.96018549224922  1.13421357655766
 6 -8.61316132413241  5.98537880748075  0.22296290879088
 6 -8.57914632463246  7.16069521922192  0.92525658495850
 7 -9.20736977807781  0.68142513691369 -0.55248182208221
 6 -9.90241772807281  1.83349667396740 -0.69988280178018
 6 -11.25522947564757  1.40646009050905 -1.08141300100010
 6 -11.23153264046405 -0.02013446764676 -1.29384941324132
 6 -9.88652625622562 -0.44948514191419 -0.95104730603060
 6 -12.40550148784878  2.39492473387339 -1.37065651835184
 6 -12.41362515541554 -0.87119324312431 -1.70365969656966
 6 -12.29608151705171 -1.34027421972197 -3.10908155935594
 7 -7.18949191159116 -1.37572240794079 -0.21151382648265
 6 -8.15986031233123 -2.27597614311431 -0.56063764366437
 6 -7.74728676847685 -3.70204075547555 -0.50595089488949
 6 -6.46907469796980 -3.57221020312031 -0.16185826752675
 6 -6.14499823152315 -2.17467542334233  0.05225706110611
 6 -8.62458479797980 -4.85621171957196 -0.75645902900290
 6 -5.26669213211321 -4.33608717211721  0.20045501960196
 8 -5.08217921022102 -5.59181603860386  0.14354030263026
 6 -4.05965046764677 -3.26825427282728  0.52790111171117
 6 -3.51281545834583 -3.59150709340934  1.90841681018102
 8 -3.85826861026103 -3.11470882878288  2.92361571977198
 8 -2.75184053685369 -4.68481710021002  1.75615465296530
 6 -2.19502845984598 -5.32484769066907  3.03816121652165
 6  2.82511883228323 -0.48091638053805 -1.14453797099710
 6  4.08024891009101 -0.21229649754976 -0.54515707850785
 6  5.13519901120112  0.62965949394940 -0.89345222222222
 6  5.19294301990199  1.43503117841784 -2.08502263726373
 6  6.37945422412241  0.64562517851785 -0.15028555295530
 6  7.54735618821882  0.06510796279628 -0.82751308000800
 6  8.87633534513451 -0.01228304440444 -0.15053115551555
 6  10.20163562416242 -0.49796145934593 -0.90847656765677
 6  10.01818509510951 -1.92494037393739 -1.32606957295730
 6  11.37011167496749 -0.29004389548955 -0.00715867836784
 6  12.82259999549955 -0.57991802530253 -0.74063156825683
 6  13.97191846364636 -0.07374308860886  0.20699711131113
 6  15.36195218621862 -0.24454353795380 -0.44377002950295
 6  15.63269954095410 -1.76955534383438 -0.75606743304330
 6  16.46656364906491  0.26146266356636  0.57901263596360
 6  17.84964255195520  0.34211794139414 -0.14497102410241
 6  18.88310872947294  1.11522960146015  0.73286654335434
 6  20.31410421482148  1.09636906940694  0.10415712171217
 6  20.39188203400340  1.88961626672667 -1.16134082998300
 6  21.20258532553255  1.61420312021202  1.14750869086909
 1 -3.96822718621862  3.44209746114612  1.44561065686569
 1 -10.22908503180318  3.79555182968297 -0.28929345554555
 1 -10.05421984608461 -2.59352488758876 -0.92867068646865
 1 -2.59683697089709 -0.94244444714471  2.01483797449745
 1 -2.46164963126313  1.95624768586859  1.00417406640664
 1 -2.04326741314131  0.93566267266727  3.50769110651065
 1 -3.17837494659466  2.30648987178718  3.55181320352035
 1 -3.81180398089809  0.49954510881088  3.23222490769077
 1 -1.83691881088109 -1.52497316811681 -0.45686369346935
 1 -2.04383075207521  0.45703332313231 -0.62970970557056
 1 -0.18409383808381  0.44932451975198  1.29993385638564
 1 -0.10806922722272 -1.23941470807081  1.15601906020602
 1 -5.97294147184718  6.79208672067207  0.35054488578858
 1 -5.85529700100010  6.38529141054105  2.07741975447545
 1 -4.45093993859386  5.75892016001600  1.06547728032803
 1 -9.45532579237924  5.73685706770677 -0.64720607330733
 1 -9.42073113681368  8.03564328532853  0.59560933663366
 1 -7.98179611171117  7.34734157055706  1.65015397569757
 1 -11.85282575557556  3.22244139123912 -1.83995982748275
 1 -13.46360365806581  2.06001474387439 -1.70329605780578
 1 -12.52200323302330  2.78051538563856 -0.40047048654865
 1 -12.37299926482648 -1.94760568336834 -1.25108860976098
 1 -13.43657595669567 -0.30170288078808 -1.48486424082408
 1 -13.08512371157116 -2.12242590469047 -3.20734169226923
 1 -12.42489289498950 -0.65846431773177 -3.98957793619362
 1 -11.36656149554955 -1.96517754495450 -3.48309658785879
 1 -9.05969058765877 -4.60040654145414 -1.66090215321532
 1 -7.98802318751875 -5.60995694899490 -1.08356831193119
 1 -9.41839601860186 -5.19526797519752 -0.01438370707071
 1 -3.26905442394239 -3.36746335193519 -0.22998073617362
 1 -2.00725411301130 -4.49897211061106  3.82801451905191
 1 -2.87633407070707 -6.02462198709871  3.69687072477248
 1 -1.21953247374737 -5.91096188098810  2.70053341444144
 1  2.65920397519752 -1.62447907070707 -1.48902035073507
 1  2.55481192249225 -0.03112502770277 -2.12611366886689
 1  4.43600408710871 -0.87801621542154  0.34014541474147
 1  4.29158446994699  1.64817035973597 -2.26216670237024
 1  5.59555648784878  2.50130055395539 -1.86930436883688
 1  5.71818138663866  0.97446863776378 -2.84614087098710
 1  6.40423860776078  1.68778875947595 -0.11100148624862
 1  6.35932380448045  0.22659532283228  0.84200039553955
 1  7.33421554435444 -0.93864453745374 -1.36903166036604
 1  7.72008456695670  0.79686878987899 -1.75948677157716
 1  9.18383442774277  1.13093259075908  0.22323475157516
 1  8.66296941774178 -0.68720707340734  0.66552267566757
 1  10.29157378917892  0.22295844364436 -1.76553171117112
 1  9.43988359745975 -2.15952423592359 -2.08204658655866
 1  11.23896303690369 -2.17215061436144 -1.80417577567757
 1  9.82424462156216 -2.44614872957296 -0.33785117881788
 1  11.38533017461746  0.71306774017402  0.35882365316532
 1  11.30348794429443 -1.16284758235824  0.82603892399240
 1  12.67225517801780 -1.67900531983198 -0.78830110161016
 1  12.89270510041004  0.03258819481948 -1.63965829952995
 1  13.90768218851885  0.90483584688469  0.46668149684969
 1  13.90685899649965 -0.64604098299830  1.13637601160116
 1  15.26070647204721  0.26817021402140 -1.34052532133213
 1  15.85641943874388 -2.42818215941594  0.33162502700270
 1  14.89030067446745 -2.28388290829083 -1.16827820132013
 1  16.57965624522452 -1.83082397939794 -1.25938245154516
 1  16.29264253775377  1.32007034073407  1.05739165546555
 1  16.52616669446945 -0.19583586838684  1.65412390709071
 1  18.41977871557156 -0.63419993399340 -0.45862605820582
 1  17.63058036763676  0.92436133023302 -1.12407815141514
 1  18.53896295319532  2.02193346134613  0.82493444024402
 1  19.01139710221022  0.76077091659166  1.64240748624863
 1  20.63348318061806  0.11819281688169 -0.15425953375338
 1  19.98732555105511  2.92659343584358 -0.93158534323432
 1  21.30510431123112  2.00559170127013 -1.79719770097010
 1  19.60351874947495  1.57912820302030 -1.92257064146415
 1  21.21169502300230  1.06942258315832  2.13285695449545
 1  22.29409730253025  1.76172664336434  0.94667132073207
 1  20.83204328282828  2.52216833403340  1.41675881258126

