%nproc=4
%Mem=2GB
# td=(NStates=1) CAM-B3LYP/6-31G(d,p) 

TD

0 1
<<<<<<< HEAD
12 -7.09576014901490  0.52612136023602  0.06110379777978
 6 -4.88054267226723 -1.97097827622762  0.48702523522352
 6 -4.75937586648665  2.81635008230823  1.09991635653565
 6 -9.34478921442144  3.06544203970397 -0.43554641434143
 6 -9.58472878657866 -1.70070558155816 -0.95113154225423
 7 -5.13423684828483  0.36935675377538  0.81230164846485
 6 -4.30606031213121 -0.76352617461746  0.80280830403040
 6 -2.96234523992399 -0.39392881858186  1.29191954615462
 6 -3.06172961136114  1.02021468976898  1.66956768746875
 6 -4.37563455835584  1.40141088988899  1.16617364726473
 6 -2.85392047414742  1.22046433453345  3.14851626052605
 6 -1.86321978297830 -0.70442570397040  0.12594655295530
 6 -0.43347076967697 -0.35386973417342  0.46562069136914
 6  0.53437457465747 -0.76795030793079 -0.55773115361536
 8  0.23309454955496 -1.43026843444344 -1.59186551825183
 8  1.80402221272127 -0.39273667006701 -0.18114490339034
 7 -7.01095154305431  2.63799938973897  0.20827952345235
 6 -5.93567284628463  3.37282825862586  0.66211974557456
 6 -6.37121437453745  4.76168045744574  0.66169685688569
 6 -7.63941664866487  4.87381801330133  0.25493388468847
 6 -8.07481175277528  3.50156935223522 -0.02279973367337
 6 -5.47673563026303  5.93222568846885  1.13390815131513
 6 -8.56942474007401  5.98617965166517  0.26559354475448
 6 -8.42525641694169  7.21530764936494  0.73820006980698
 7 -9.01843411601160  0.65247810891089 -0.66506053975398
 6 -9.80498675837584  1.79737969106911 -0.64838116221622
 6 -11.23894299089909  1.44881322042204 -1.10100181968197
 6 -11.18973137703770  0.13724908900890 -1.30780949494950
 6 -9.94483016371637 -0.44610658495850 -0.97279229532953
 6 -12.27469629332933  2.47654822582258 -1.23585035983598
 6 -12.44478902520252 -0.59840725082508 -1.63691449995000
 6 -12.62071956035604 -1.02103451465146 -3.10645576417642
 7 -7.22954242254225 -1.44858447204720 -0.22569724672467
 6 -8.33220346014602 -2.28720389248925 -0.60690564576458
 6 -7.79183532913291 -3.51919018651865 -0.52976025332533
 6 -6.57795167926793 -3.52172650965097 -0.07513924582458
 6 -6.21968456485649 -2.15664394569457  0.07257006120612
 6 -8.64632209960996 -4.74682752515251 -0.83129160756076
 6 -5.31181565186519 -4.34919880338034  0.12601547414741
 8 -5.20789962786279 -5.61376585998600  0.05660269096910
 6 -4.15061864126413 -3.27158294809481  0.55179504480448
 6 -3.48478910981098 -3.61847706900690  1.81596196909691
 8 -3.65472707330733 -3.10758749494949  2.91796447754775
 8 -2.66266746044604 -4.72909763216322  1.66717529842984
 6 -1.98668925682568 -5.26720094919492  2.84366930243024
 6  2.90439295099510 -0.73663145774577 -1.12934413481348
 6  4.19695178417842 -0.49417759405941 -0.51675182418242
 6  5.15497898229823  0.39367563296330 -0.96129590229023
 6  5.09427785078508  1.24159680898090 -2.21264542984298
 6  6.42248658145815  0.59554140434043 -0.11851833703370
 6  7.61020855875588 -0.09819016591659 -0.87245419591959
 6  8.89240111271127 -0.00806593699370 -0.09505131793179
 6  10.17445807030703 -0.54510158185819 -0.72803377387739
 6  10.03161986218622 -2.02602353845385 -1.03815728072807
 6  11.41278415531553 -0.30114389518952  0.14708557715772
 6  12.68722363006301 -0.73635768686869 -0.47612763566357
 6  13.82552202060206 -0.20619182198220  0.43058012551255
 6  15.23778990389039 -0.18822255135514 -0.34973321312131
 6  15.61840350925092 -1.55642327612761 -0.78045766346635
 6  16.36308041394139  0.53226758675868  0.50915542274227
 6  17.73048763816382  0.63540493889389 -0.29800561516152
 6  18.72697306680668  1.33648186518652  0.56186661966197
 6  20.14183285248525  1.35062539603960 -0.03238847564756
 6  20.30745209900990  2.19092738993899 -1.29785077777778
 6  21.17269820062006  1.85923886018602  1.07240260366037
 1 -4.21877336183618  3.63374889628963  1.48668325522552
 1 -10.09704009670967  4.07029786478648 -0.61770716221622
 1 -10.18114140354035 -2.50646998779878 -1.22617927012701
 1 -2.56891334823482 -0.84808312221222  2.04646533773377
 1 -2.31764536973697  1.77236081868187  1.15243589398940
 1 -1.84191864936494  0.96907736063606  3.58473218671867
 1 -2.78956401640164  2.25490954845485  3.38984114951495
 1 -3.68073151585158  0.75816050005000  3.81586399919992
 1 -1.87694017891789 -1.79807976837684  0.03911000180018
 1 -2.11311298379838 -0.08414116371637 -0.83757379697970
 1 -0.38205172257226  0.58598321222122  0.94684508360836
 1 -0.26491429342934 -0.93764828002800  1.45936989218922
 1 -6.00342911831183  6.92851149524953  0.70562627182718
 1 -5.75682267166717  6.00267363046305  2.25834213131313
 1 -4.38910286628663  6.01508267466747  1.04651782738274
 1 -9.23788584108411  6.00727687578758 -0.49257948614862
 1 -9.03860507640764  7.88671941084108  0.61775139693969
 1 -7.73547301310131  7.38908530803080  1.68925731123112
 1 -12.16867097219722  2.86257658365837 -2.25911891659166
 1 -13.31130079927993  2.00333422462246 -1.44641583308331
 1 -12.33352508360836  3.31858051275127 -0.54161540554055
 1 -12.46196097449745 -1.50638008310831 -1.02408736363636
 1 -13.28758747764777  0.00815407860786 -1.43283881138114
 1 -13.43336968956896 -1.43750843704370 -3.31124100860086
 1 -12.67126069026903  0.04166962936294 -3.56440993669367
 1 -11.81456773607361 -1.74622949004900 -3.55405402540254
 1 -8.90512011501150 -4.68883962686269 -1.77189045314531
 1 -7.97635700050005 -5.65237524172417 -0.78647826082608
 1 -9.48854873977398 -4.88520354165417 -0.21924374697470
 1 -3.29373006890689 -3.39306255695569 -0.20707597909791
 1 -1.23509167566757 -4.43666010571057  3.45903881918192
 1 -2.72234184278428 -5.65464708230823  3.67149998889889
 1 -1.44486259775978 -5.85100437363736  2.52169612251225
 1  2.73359266336634 -1.85096693259326 -1.52673663866387
 1  2.52894037163716 -0.17532325272527 -2.03072622482248
 1  4.20610151575158 -1.25155737093709  0.39242245824582
 1  4.05710467396740  1.39185789618962 -2.67395576527653
 1  5.26431184288429  2.23414367326733 -1.97411387958796
 1  5.75046235383538  0.88883999149915 -3.13758248924893
 1  6.54407647054705  1.69464346434643  0.11138378117812
 1  6.33335745514552  0.00707266986699  0.83265298199820
 1  7.30601798649865 -1.15412464766477 -1.02675399899990
 1  7.73318575447545  0.30990419851985 -1.76425934953495
 1  9.07803985558556  1.01820970597060  0.33039067126713
 1  8.54076256495650 -0.54983048924892  0.91055891959196
 1  10.30391794319432  0.21770430813081 -1.52500739023902
 1  9.06475146064606 -2.23346132263226 -1.35510143494349
 1  10.71321387708771 -2.49632641654165 -1.69651389528953
 1  9.95721860786079 -2.57383932593259 -0.28000744044404
 1  11.54716239713971  0.72843507370737  0.41870335783578
 1  11.23328638203821 -0.52398836013601  1.19265988758876
 1  12.56856017491749 -1.88515667686769 -0.55690335793579
 1  12.70776452895289 -0.23469277827783 -1.52945630693069
 1  13.45639707640764  0.75987854385439  0.95595293829383
 1  13.82095484858486 -0.82053165786579  1.24318083458346
 1  15.08090137863786  0.35195468046805 -1.32092645064506
 1  15.79607705060506 -2.10680097219722 -0.00873232713271
 1  14.81397444814482 -1.94842721832183 -1.64788220332033
 1  16.41419104850485 -1.64066959185919 -1.43689515901590
 1  16.24414961566157  1.56389422312231  0.96179272357236
 1  16.44638908610861 -0.18722789788979  1.45939870107011
 1  18.19347028572857 -0.25514206160616 -0.52036537693769
 1  17.56048311281128  1.24988230713071 -1.17871144694469
 1  18.24027482008201  2.29297345504550  0.90230823612361
 1  18.77254441474147  0.80072425342534  1.43040304060406
 1  20.55765067776778  0.32408855705571 -0.39736267226723
 1  20.08411251785178  3.37773133503350 -1.07343093649365
 1  21.45267952005200  2.46074272707271 -1.54778614191419
 1  19.84744864926493  1.99824163496350 -2.21298826782678
 1  21.47444341954196  1.01483959305931  1.83133275047505
 1  22.10552225852585  1.98021925162516  0.41514648094809
 1  20.67607733763376  2.89631971527153  1.40644108460846
=======
12 -7.04501507450745  0.62240098819882  0.03138082548255
 6 -4.84421903990399 -1.91537271567157  0.47980451315132
 6 -4.69738966786679  2.86506495379538  1.11530789568957
 6 -9.38583331883188  3.08764425992599 -0.50965382508251
 6 -9.50790110381038 -1.76815232623262 -0.83675010411041
 7 -5.00176360096010  0.52502232033203  0.58920933923392
 6 -4.38274798089809 -0.64861468346835  0.76076409960996
 6 -2.88476748214821 -0.33827325302530  1.23302365656566
 6 -2.94857829622962  1.05941861016102  1.63400413111311
 6 -4.32085908080808  1.55673642244224  1.15815284518452
 6 -2.84921000310031  1.20570285838584  3.16129753865387
 6 -1.94924838583858 -0.71844710611061  0.07979193749375
 6 -0.44768219081908 -0.51541588878888  0.48580270957096
 6  0.46353749094909 -0.68790230313031 -0.62533791429143
 8  0.12828406850685 -1.04983039063906 -1.74023035473547
 8  1.81037284778478 -0.63127052345235 -0.22945973487349
 7 -7.09299974787479  2.66249183898390  0.22343103860386
 6 -5.98818809780978  3.33613458925893  0.62268580218022
 6 -6.35199245234523  4.75203949334933  0.70343103030303
 6 -7.64657736473647  4.89466009750975  0.29965835713571
 6 -8.15419969156916  3.50516971227123 -0.00325777947795
 6 -5.43132108880888  5.87735020092009  1.15956071657166
 6 -8.56879467706771  5.92964399809981  0.30542752815282
 6 -8.44809870117012  7.03925004360436  0.99985623542354
 7 -9.01225349794979  0.65127798889889 -0.58204223792379
 6 -9.78984524422442  1.74008396149615 -0.68718504260426
 6 -11.16043514011401  1.41525986508651 -1.21414313381338
 6 -11.18200060396039  0.05572093619362 -1.11668038203820
 6 -9.85501118181818 -0.42277425172517 -0.84707972407241
 6 -12.24628345204520  2.51859243024302 -1.40751752655266
 6 -12.34370891719172 -0.73371078117812 -1.68991980048005
 6 -12.19681717011701 -1.10763317451745 -3.21878699729973
 7 -7.17574704300430 -1.32467208080808 -0.10336501350135
 6 -8.22208244804481 -2.26284145624562 -0.33949890509051
 6 -7.85715186078608 -3.54417268476848 -0.41767904520452
 6 -6.49843372747275 -3.56038037503750 -0.04826655855586
 6 -6.11473406980698 -2.19556783808381  0.13497630183018
 6 -8.71590905830583 -4.73136597899790 -0.82053053145315
 6 -5.33199767006701 -4.40324420792079  0.28854172677268
 8 -5.02663150105011 -5.60003448684868  0.29020605130513
 6 -4.10973455285529 -3.27057284708471  0.49149901520152
 6 -3.36192682358236 -3.58470369166917  1.84186455935594
 8 -3.54615621622162 -3.03242997919792  2.93410609170917
 8 -2.74918611231123 -4.73869859225923  1.72023060396040
 6 -2.10376096399640 -5.14099832893289  2.93955889138914
 6  2.82536504820482 -0.75909370397040 -1.24928612901290
 6  4.09462155115512 -0.52019019531953 -0.50918106710671
 6  5.02428591299130  0.37730399579958 -1.01328110081008
 6  4.94225264826483  1.23962661196120 -2.18898306360636
 6  6.39270360316032  0.54199604980498 -0.16895338053805
 6  7.59073661156116  0.00771042414241 -0.99860681118112
 6  8.79280115271527 -0.00538566896690 -0.15501731453145
 6  10.10628125262526 -0.47752482418242 -0.84389536003600
 6  9.82287898809881 -1.97357829392939 -1.34578804380438
 6  11.37445032193219 -0.36650043084308  0.03967483608361
 6  12.71391629932993 -0.56858090919092 -0.62530255315532
 6  13.80456992539254 -0.20390159295930  0.27295436293629
 6  15.22445857075708 -0.21980570967097 -0.32256049584959
 6  15.66761843074307 -1.65935356915692 -0.89511912961296
 6  16.34137824372437  0.42246660666067  0.50555506270627
 6  17.75716030543054  0.67648904730473 -0.15483129772977
 6  18.63340370987099  1.28191640864086  0.73275370837084
 6  20.08480714991499  1.35087542104210  0.18486324952495
 6  20.20924227802780  2.09907820502050 -1.06322731543154
 6  21.11379231003101  1.79951288758876  1.20999636303630
 1 -4.08846033053305  3.50355587698770  1.72926751365137
 1 -10.04524491719172  4.03381421642164 -0.84279967146715
 1 -10.38705199459946 -2.53028236903690 -1.17173382558256
 1 -2.68595505240524 -0.98282659655966  2.08975966716672
 1 -2.25071867706771  1.57014059665967  0.91284193459346
 1 -1.81715617311731  1.08279873277328  3.40856456995700
 1 -3.42042710271027  2.17137119461946  3.77657982338234
 1 -3.44407785048505  0.20169485348535  3.52745515831583
 1 -2.25323780868087 -1.69110907130713 -0.23901781098110
 1 -2.12155382788279 -0.11828457805781 -0.93746378597860
 1 -0.45749926732673  0.54620923482348  0.83663406250625
 1 -0.33072087408741 -1.26155067026703  1.40996495169517
 1 -5.83334210961096  6.84933357745775  0.91301701090109
 1 -5.25127211661166  5.79919328242824  2.26585288238824
 1 -4.49546350235024  5.62964413081308  0.78563173877388
 1 -9.31531358385839  5.70274642274227 -0.45469569776978
 1 -9.28605982188219  7.73852459135914  0.78344796659666
 1 -7.55897536333633  7.11471787128713  1.77033541904190
 1 -11.97440154525453  2.82964329032903 -2.64224722942294
 1 -13.35723539273927  2.17136102730273 -1.57202839433943
 1 -12.21197292839284  3.29296795149515 -0.85590683468347
 1 -12.38748352675268 -1.69796924202420 -1.07558251315132
 1 -13.04517323622362 -0.05652238903890 -1.44255978347835
 1 -13.06926327892789 -1.88242292849285 -3.70338022252225
 1 -12.17202076627663  0.00232569496950 -3.66399989568957
 1 -11.25966224552455 -1.75612047914792 -3.22683130313031
 1 -8.94294389738974 -4.55173591649165 -1.76425969006901
 1 -8.06087545234523 -5.57043704790479 -0.93635324832483
 1 -9.55633551845185 -4.99685470677068 -0.25097692029203
 1 -3.41729242514251 -3.45309856055606 -0.22596786828683
 1 -1.58321648814881 -4.42873931363136  3.44762767806781
 1 -2.90771037963796 -5.50238185578558  3.70794363326333
 1 -1.22954106560656 -5.77698697189719  2.78497245014501
 1  2.88067737183718 -1.60915275117512 -1.85346931193119
 1  2.68066554415442  0.08546282588259 -1.93866701890189
 1  4.32408331393139 -1.11855407060706  0.46084930093009
 1  3.95586454995500  1.59933864426443 -2.60209857955796
 1  5.58884429612961  2.10002026092609 -2.10819728792879
 1  5.08592590019002  0.63230433793379 -3.16170490149015
 1  6.52148421132113  1.53445744574457  0.07529017181718
 1  6.15250937033703 -0.05094313171317  0.75565528222822
 1  7.49905729042904 -1.00143937913791 -1.52525384898490
 1  7.80639307520752  0.80037324542454 -1.82271519511951
 1  8.77320937253725  1.03282116711671  0.22470010221022
 1  8.88608709740974 -0.81558706490649  0.70142800650065
 1  10.18862641404140  0.19514205190519 -1.87075196469647
 1  9.08635362086209 -2.17979595609561 -2.18495442024202
 1  10.93247580328033 -2.12668945284529 -1.79841408530853
 1  9.66254914091409 -2.64142608460846 -0.60168960866087
 1  11.34772245314531  0.75268749894989  0.43594508200820
 1  11.34082713611361 -0.98794475577558  1.08638926052605
 1  12.92107542644264 -1.46286444764476 -1.00129779737974
 1  12.83053680618062  0.17387807880788 -1.38838219951995
 1  13.88518995569557  0.89605216121612  0.74229157215722
 1  13.62799555265527 -0.90144974967497  1.20845736223622
 1  14.92166545504550  0.34931441644164 -1.24343870187019
 1  15.59058650155015 -2.42398269036904 -0.03143459735974
 1  14.89793284398440 -1.95694807040704 -1.40181759685969
 1  16.55471510091009 -1.74986051095109 -1.61170263976398
 1  15.98559376007601  1.48071590529053  1.07579412371237
 1  16.43214766196619 -0.28649782488249  1.31178393959396
 1  18.05281622032203 -0.22538908630863 -0.68884222462246
 1  17.49325639013902  1.27110442934293 -1.02819639543954
 1  18.07827862046205  2.26313047074707  0.94483248854885
 1  18.45198235853585  0.76975115611561  1.67557755805581
 1  20.41512642534254  0.40219636783678  0.04338140214021
 1  20.29386349294929  3.16165972787279 -0.95880947434744
 1  21.35417967006701  1.84459111191119 -1.35991735503550
 1  19.74773867826783  1.80840265106511 -1.91242821182118
 1  20.96237221242124  1.40577868696870  2.15995561276128
 1  22.22314402070207  1.76734796449645  0.81398636493649
 1  20.83955368526853  2.87346743004300  1.36340678117812
>>>>>>> 8e03b5b5abfc0030b3aa597dc0de36371bfbd096

