%nproc=4
%Mem=2GB
# td=(NStates=1) CAM-B3LYP/6-31G(d,p) 

TD

0 1
12 -7.15849642264226  0.63877262536254  0.11081876927693
 6 -4.79333395139514 -1.96418759715972  0.62795932863286
 6 -4.74855478437844  2.94562300960096  1.26129249414942
 6 -9.37445218071807  3.11356685218522 -0.38851171087109
 6 -9.55106542024203 -1.85053056405641 -0.89906633573357
 7 -5.09925334993499  0.45761557965797  0.89159957825783
 6 -4.32994270037004 -0.69084890689069  0.93069109230923
 6 -2.87222622802280 -0.32110153585359  1.27276763096310
 6 -2.98416185458546  1.13375604390439  1.86753748444844
 6 -4.40103709860986  1.51521227002700  1.29196622652265
 6 -2.89701478357836  1.13169545764576  3.42115352425243
 6 -1.94356781778178 -0.51329659105911  0.11755571387139
 6 -0.49980740334033 -0.39945429262926  0.51163529282928
 6  0.53004414161416 -0.59967348024802 -0.66267164766477
 8  0.28860010011001 -1.04994040164016 -1.73076940864086
 8  1.69786159665967 -0.38121551795180 -0.26628341724172
 7 -7.15761620952095  2.56961255105511  0.48044674017402
 6 -6.07969724872487  3.34164514031403  0.85075860946095
 6 -6.42060931403140  4.82384667406741  0.71116180338034
 6 -7.65973868086809  4.75924655615562  0.39502789408941
 6 -8.16778104970497  3.47622681798180  0.13065561186119
 6 -5.55854381108111  5.99278174407441  1.05227998849885
 6 -8.65642343994399  6.01169220292029  0.08579556495650
 6 -8.52654654595460  7.14344046264626  0.73815006480648
 7 -9.12499477207721  0.62473533463346 -0.46274030773077
 6 -9.80115637533753  1.73932388548855 -0.71470779487949
 6 -11.16460555715572  1.36087442654265 -1.17753947344734
 6 -11.11047345124512 -0.01801643754375 -1.33614232823282
 6 -9.87628330903090 -0.44710668496850 -0.88992400850085
 6 -12.31092991669167  2.38037860886089 -1.48116489128913
 6 -12.23756830313031 -0.82238964906491 -1.89219002750275
 6 -12.09090657905791 -1.04203661486149 -3.41436655525553
 7 -7.22475194349435 -1.43180279387939 -0.19946462346235
 6 -8.22472271207121 -2.27941311341134 -0.54543949914992
 6 -7.78183432903290 -3.60853912141214 -0.55281255855586
 6 -6.42399628372837 -3.54958929592959 -0.14677640954095
 6 -6.17791038743874 -2.17365564686469  0.14731753595360
 6 -8.52541000840084 -4.86986982938294 -1.01937041544154
 6 -5.30108457875788 -4.31933581708171  0.22380525312531
 8 -5.16045488338834 -5.47440192359236  0.22016904760476
 6 -4.17197077647765 -3.30054584438444  0.61300116541654
 6 -3.57067769866987 -3.65193041434143  1.93129350225023
 8 -3.82382398299830 -3.10405714191419  2.96510919201920
 8 -2.66624781848185 -4.64247897029703  1.85054363526353
 6 -2.24391497939794 -5.18914314341434  3.13954889038904
 6  2.78081059275928 -0.65778357295730 -1.24115531593159
 6  4.02772486148615 -0.34726290259026 -0.53596374537454
 6  5.15057854225422  0.34708097349735 -1.05388516121612
 6  5.07401582458246  1.02851550085009 -2.42577674297430
 6  6.41365569836984  0.58056990719072 -0.32050853605361
 6  7.62877041494149 -0.09466981388139 -1.06887383788379
 6  8.85074694729473 -0.05356048644864 -0.23096490929093
 6  10.11879250375037 -0.52218929062906 -0.85029600010001
 6  10.00554725492549 -2.04853578967897 -1.24073753875388
 6  11.36649952685269 -0.38562234303430  0.07078794739474
 6  12.70977588528853 -0.44082813391339 -0.76462648554855
 6  13.93974344274427 -0.02242344514451  0.11164823232323
 6  15.31331745664566 -0.13732746184618 -0.52517075687569
 6  15.59308097699770 -1.63725135893589 -0.96777639533953
 6  16.33742784868487  0.47092145214521  0.26355086228623
 6  17.83191778117812  0.53390478887889 -0.19464527912791
 6  18.78385875537554  1.09535775277528  0.69946037903790
 6  20.29247791699170  1.16351668516852  0.30625538873887
 6  20.47891924572457  2.01445974317432 -1.02540353305331
 6  21.07914884568457  1.91277421372137  1.49164452785279
 1 -3.93295477997800  3.53054857625763  1.43022760966097
 1 -10.03401379407941  3.82858369336934 -0.53719911141114
 1 -10.27254054345435 -2.43294263506351 -1.35678233043304
 1 -2.38260471737174 -0.94068238213821  2.03950464166417
 1 -2.17868147334733  1.74866844944494  1.42411306170617
 1 -1.88886334383438  0.80196064896490  3.90538425192519
 1 -3.15344040404040  2.08170222772277  3.89434159955996
 1 -3.78404184688469  0.69575425942594  3.93481589438944
 1 -2.36950943584358 -1.48586854725473 -0.43838774797480
 1 -2.06878855135514  0.46867411781178 -0.57810785038504
 1 -0.17840135753575  0.43730834473447  1.05966636573657
 1 -0.34737253925393 -1.04755927112711  1.27320127532753
 1 -5.79221799719972  7.01176982108211  0.60734644384438
 1 -5.63657064646465  6.10055341844184  2.35707200430043
 1 -4.44306826282628  5.54454562096210  0.86536971257126
 1 -9.55833788628863  5.95588173627363 -0.66708693689369
 1 -9.36645786168617  7.77856859575958  0.56058568036804
 1 -7.77301676747675  7.45923232273227  1.51242962846285
 1 -12.05069917501750  2.90800112611261 -2.41575458015802
 1 -13.19169883908391  1.84350824202420 -1.59784097559756
 1 -12.25050678177818  2.98293694839484 -0.57480872487249
 1 -12.17495227362736 -1.82728217331733 -1.52438739363936
 1 -12.97727644654465 -0.30329706650665 -1.36439196669667
 1 -13.05661201380138 -1.66626131233123 -3.82855273977398
 1 -12.04674823902390 -0.06483102070207 -4.08103159885989
 1 -11.05430170947095 -1.59120398749875 -3.53058167816782
 1 -9.06293589658966 -4.63136387928793 -2.00453371747175
 1 -7.95252461726173 -5.87323732793279 -0.98998861186119
 1 -9.40596048094809 -5.33603862516252 -0.27488931153115
 1 -3.42967366326633 -3.47863111381138 -0.22645791729173
 1 -1.53868203470347 -4.34014045374537  3.37897081238124
 1 -3.07730733933393 -5.05988760636064  4.01612445134514
 1 -1.92807091859186 -6.08549782298230  2.73890784368437
 1  2.80166947104710 -1.69771160706071 -1.63719768476848
 1  2.62158963656366 -0.10818653905390 -2.06001915411541
 1  4.12748365396540 -0.66920913611361  0.61290450645065
 1  4.16446541004100  0.77646635703570 -3.14338270797080
 1  5.22367777947795  2.17048730763076 -2.24475094329433
 1  6.11580888848885  0.78300940844084 -3.08180691169117
 1  6.80652271517152  1.57584158415842  0.06566920972097
 1  6.33810793019302 -0.00908894629463  0.64707442414241
 1  7.49240662536254 -1.23689292449245 -1.25445676927693
 1  7.82680511641164  0.52285549364937 -1.94070699429943
 1  9.31013306490649  0.94942282728273 -0.04832720052005
 1  8.58802729142914 -0.51021652785279  0.68299616331633
 1  10.38890644204420  0.06795933363336 -1.61246613611361
 1  9.38181316681668 -1.91785976247625 -2.22203812861286
 1  10.98506106180618 -2.47885466936694 -1.51429567346735
 1  9.51057394339434 -2.61548349034903 -0.36408584828483
 1  11.21936961786179  0.48827105730573  0.68505999349935
 1  11.29004205760576 -1.25327128842884  0.75709633123312
 1  12.78679199809981 -1.38213637483748 -1.24999266686669
 1  12.67396114861486  0.27777846884688 -1.71977533883388
 1  13.75071650835084  0.96002855885589  0.39900724372437
 1  13.86760951405141 -0.53923352805281  1.14180069656966
 1  15.11117440594059  0.51042052705271 -1.73320767876788
 1  15.75442288518852 -2.41225151725172 -0.18437989188919
 1  14.95765881658166 -1.80892326792679 -1.83622103720372
 1  16.66353598299830 -1.89913543844384 -1.50867233673367
 1  16.02845804650465  1.52843067676768  0.39937648194820
 1  16.27871231843184 -0.22871204630463  1.17938069926993
 1  18.10945188388839 -0.44332087948795 -0.49326266666667
 1  17.65146221072107  1.16197351625163 -1.21860543634363
 1  18.49347013961396  2.11137529522952  0.89202720802080
 1  18.69106626692669  0.67171135213521  1.84170417071707
 1  20.61966687938794  0.26381252945295  0.33032009600960
 1  20.18948305490549  3.16257981988199 -1.01940553395340
 1  21.46952120422042  1.88735538833883 -1.54753611691169
 1  19.80150405480548  1.79083089388939 -1.78512548154815
 1  20.85584155935594  1.38015612471247  2.31819143634363
 1  22.18886059235923  1.84474570427043  0.97738270457046
 1  20.79603933383338  2.93163324662466  1.55875631613161

