%nproc=4
%Mem=2GB
# td=(NStates=1) CAM-B3LYP/6-31G(d,p) 

TD

0 1
12 -7.19307988098810  0.65704445254525  0.19469715711571
 6 -4.79015363336334 -1.92232341074107  0.57899443214321
 6 -4.82941287018702  2.83658210551055  1.18611497639764
 6 -9.33262799829983  3.05502099759976 -0.41024388408841
 6 -9.50267058075808 -1.71054656565657 -0.83478990809081
 7 -5.05987941254125  0.45601541964196  0.74639505780578
 6 -4.29175888198820 -0.65873569556956  0.95707373057306
 6 -2.81868087348735 -0.49567899359936  1.32395274947495
 6 -2.91236467486749  1.04775744404440  1.70578130883088
 6 -4.32855985088509  1.52999374817482  1.18798582848285
 6 -2.71690677277728  1.34779706780678  3.21371278017802
 6 -2.00289375037504 -0.56404166556656  0.11805576387639
 6 -0.47155457805781 -0.44782913011301  0.54398852815282
 6  0.51707284448445 -0.68678219111911 -0.65211059155916
 8  0.15448668876888 -0.93864927252725 -1.82391872357236
 8  1.78465027552755 -0.65214261066107 -0.21370815971597
 7 -7.12946339423942  2.60448603840384  0.31974066956696
 6 -6.06195547454745  3.30858183398340  0.88962249584959
 6 -6.44088134123412  4.72622691209121  0.98900958815882
 6 -7.70290299729973  4.84649528102810  0.49530792209221
 6 -8.12990726232623  3.50440963626363  0.09995254155416
 6 -5.51844980168017  5.81542400830083  1.28974373487349
 6 -8.59643744134413  6.01949298299830  0.12218920432043
 6 -8.44713860516052  7.18465458405841  0.81103735353535
 7 -9.14386665926593  0.70741360246025 -0.48142217591759
 6 -9.78100436013601  1.78359831293129 -0.80962728682868
 6 -11.13737283388339  1.44012235133513 -1.33707542704270
 6 -11.11755415931593 -0.02828746464646 -1.31974068806881
 6 -9.93631931263126 -0.45100707500750 -0.84542955905591
 6 -12.26756558025803  2.35676624762476 -1.67152392719272
 6 -12.25716026232623 -0.75899330943094 -1.89668047654765
 6 -12.06508399679968 -1.14816722792279 -3.39944506310631
 7 -7.12337180548055 -1.34358397199720 -0.15832050905091
 6 -8.16972721252125 -2.20739591169117 -0.48809376457646
 6 -7.83028917451745 -3.51762002950295 -0.52081935923592
 6 -6.45505939003900 -3.59264360136014 -0.17237896979698
 6 -6.09694229062906 -2.20036831813181  0.05948875307531
 6 -8.62261972937294 -4.81948479087909 -0.86443492189219
 6 -5.38790326062606 -4.38289217271727  0.18966183878388
 8 -5.14875371327133 -5.56626110951095  0.21071810251025
 6 -4.19753333273327 -3.30548633843384  0.66675654095410
 6 -3.50482111301130 -3.66999222052205  2.03999437233723
 8 -3.55590719131913 -3.06499323552355  3.05191787288729
 8 -2.71716290999100 -4.69322404480448  1.90611919281928
 6 -2.08438902680268 -4.99648387748775  3.08451338683868
 6  2.75915842754275 -0.79127692229223 -1.28973017341734
 6  4.08444053305331 -0.50694887118712 -0.70165031403140
 6  5.07322080648065  0.31431769716972 -1.08683845654565
 6  4.95950437343734  1.22554520382038 -2.28285245054505
 6  6.36108044084408  0.44319616981698 -0.50638712391239
 6  7.60771830973097  0.08135778887889 -1.21603855435544
 6  8.76113798639864  0.03360823042304 -0.19984179697970
 6  10.13572419691969 -0.55482255395540 -0.99926089658966
 6  10.03053975417542 -2.08532946904690 -1.30544400940094
 6  11.31093397029703 -0.28238201900190  0.00401126972697
 6  12.69519442714271 -0.55866991809181 -0.61663168606861
 6  13.92402187058706 -0.03084428722872  0.14684175167517
 6  15.25814193909391 -0.21690541964196 -0.47370561036104
 6  15.60310197909791 -1.58434606840684 -0.85555517321732
 6  16.37371147704771  0.36873123312331  0.45397990519052
 6  17.71606619601960  0.55134653305331 -0.21678749334934
 6  18.68882925242524  1.31669988698870  0.71968240124012
 6  20.15333400260026  1.25087542104210  0.28975373857386
 6  20.30132148594859  2.10197849504951 -1.02293328602860
 6  21.10059098989899  1.82491542784278  1.37054241764176
 1 -4.01058254275428  3.37500302170217  1.47257184408441
 1 -10.11759215191519  3.66716755175518 -0.65857124862486
 1 -10.08836212561256 -2.39557889868987 -1.27913456565657
 1 -2.60480693759376 -0.83792210611061  2.18419911111111
 1 -2.24008761396140  1.68809239183918  1.24240489088909
 1 -1.85838029552955  0.91575202810281  3.73730744424442
 1 -2.79695475547555  2.35885994349435  3.57727989338934
 1 -3.53471691439144  0.70456514051405  3.75307772057206
 1 -2.02654513941394 -1.50811077147715 -0.36848075727573
 1 -2.25010668316832  0.11582883328333 -0.61106114571457
 1 -0.20452396979698  0.59980459435944  0.99908030713071
 1 -0.24886268826883 -1.28138265346535  1.35679963516352
 1 -5.84734350975098  6.81599024312431  0.77482319151915
 1 -5.55877286668667  6.14211757485749  2.35933223032303
 1 -4.52472642864286  5.78312947934794  1.21783495909591
 1 -9.31921397389739  5.80661680978098 -0.67135736393639
 1 -9.31581279717972  7.88113885278528  0.67158678047805
 1 -7.73300276607661  7.40397679717972  1.63537192269227
 1 -11.99001310641064  3.05938626462646 -2.43016602130213
 1 -13.25083475267527  1.84237812901290 -1.92531372287229
 1 -12.29008073917392  3.19991864656466 -0.78767001100110
 1 -12.26805158355836 -1.78632807790779 -1.38334328922892
 1 -13.31959067796780 -0.27421415821582 -1.88252377987799
 1 -12.94477082968297 -1.56333101930193 -3.70245012951295
 1 -12.29672323652365 -0.33973851145115 -4.03793728942894
 1 -11.07182346164617 -1.56957182428243 -3.65553417341734
 1 -8.44406400940094 -4.98757950085009 -2.12499576367637
 1 -8.20679004380438 -5.59400940514051 -0.21857147014701
 1 -9.84361424632463 -4.66154117541754 -0.54955677827783
 1 -3.18227892379238 -3.32124537523752 -0.13667893939394
 1 -1.27692585908591 -4.13972041174117  3.41919483478348
 1 -2.74215382398240 -5.15998761636164  3.93701654055406
 1 -1.33276138763876 -5.83351262446245  3.09972392529253
 1  2.57188649274928 -1.70166200210021 -1.56874083908391
 1  2.44453193079308 -0.12443816421642 -2.07265041724172
 1  4.42091299689969 -1.07888010321032  0.25263847984798
 1  3.77246621012101  1.16654536493649 -2.45252362206221
 1  5.07063247494749  2.31402166106611 -1.98215468366837
 1  5.53481078867887  0.97927903540354 -3.11643037403740
 1  6.59587165006501  1.40757475747575 -0.07700505770577
 1  6.34003812321232 -0.17161519891989  0.52642235893589
 1  7.38524590929093 -0.94842407760776 -1.64864618821882
 1  7.81513394929493  0.80546375447545 -2.15785870947095
 1  9.14425647724772  0.87496538153815  0.49140677287729
 1  8.65523401210121 -0.93432893909391  0.44053191689169
 1  10.17174472587259  0.04543708140814 -1.92653754325433
 1  9.12545753125313 -2.26575455195520 -1.94463038783878
 1  10.75780833653365 -2.37687447134713 -1.90444468836884
 1  9.76489937593759 -2.76389833183318 -0.44557399709971
 1  11.20043772467247  0.73825605580558  0.27453894139414
 1  11.03881693509351 -0.93376933823382  1.03516413801380
 1  12.98801212011201 -1.79147730893089 -0.69919758735874
 1  12.63446719921992 -0.16221553055306 -1.65149851115112
 1  13.75559699639964  0.95545810181018  0.37320466346635
 1  13.84175692879288 -0.63287289198920  1.02135865236524
 1  15.50479376787679  0.46464594959496 -1.25510986898690
 1  15.64076151905190 -2.45208550065006 -0.01833328722872
 1  14.89547259795980 -1.91802417801780 -1.73002041714171
 1  16.61841147054706 -1.51643716861686 -1.48611008050805
 1  16.09380458115811  1.38321615531553  0.89052559685969
 1  16.41112555975597 -0.21042021712171  1.38029079027903
 1  18.16500743944394 -0.45529207660766 -0.24586792719272
 1  17.85734279877988  0.93625094399440 -1.30542411821182
 1  18.43435422802280  2.37333149084909  1.11058906420642
 1  18.46285344564457  0.78513269426943  1.74690469076908
 1  20.29571448414842  0.17526367456746  0.20775783978398
 1  20.15487959455945  3.31832539443944 -0.67295088848885
 1  21.49431368346835  1.84099075187519 -1.37897926122612
 1  19.44051795619562  1.67807961876188 -1.67941491049105
 1  21.19468544374438  1.24442255135514  2.33318293549355
 1  22.27218892519252  1.82204343404340  0.99122408870887
 1  20.97101683158316  2.85540562386239  1.51154159465947

