%nproc=4
%Mem=2GB
# td=(NStates=1) CAM-B3LYP/6-31G(d,p) 

TD

0 1
12 -7.10001057405741  0.60383913201320  0.15397308470847
 6 -4.80630524852485 -1.88726990539054  0.54520105280528
 6 -4.75508543744374  2.89831827912791  1.10242660756076
 6 -9.42182691819182  3.08258375387539 -0.44260712041204
 6 -9.57275758945895 -1.78365387638764 -0.76684311341134
 7 -5.13554697929793  0.46974679277928  0.82532295059506
 6 -4.33864357045705 -0.64270409240924  0.78206622982298
 6 -2.85665467086709 -0.41004042974297  1.27460781498150
 6 -3.03570700910091  1.11997466576658  1.76000673137314
 6 -4.35321231613161  1.55829657845785  1.20771780168017
 6 -3.04995007710771  1.37285957405741  3.30669207810781
 6 -1.92044550555055 -0.54376963836384  0.07617157545755
 6 -0.47031445404540 -0.44115846304630  0.57272140144014
 6  0.53246438363836 -0.66404991789179 -0.60245562606261
 8  0.34594583468347 -1.02999840744074 -1.72284861656166
 8  1.69162097259726 -0.31321871827183 -0.21951874077408
 7 -7.12367281518152  2.60732632243224  0.25476417191719
 6 -6.08725800480048  3.33846482228223  0.70769430303030
 6 -6.38238549164916  4.75581987138714  0.74060474767477
 6 -7.69457216421642  4.82953358485849  0.30672906420642
 6 -8.15234950655066  3.46506570187019  0.08791133743374
 6 -5.59045700240024  5.94260672657266  1.12686744724472
 6 -8.64827262486249  5.97925895959596  0.08866585198520
 6 -8.45543943524352  7.13037915651565  0.69913616341634
 7 -9.19075134773477  0.62315517661766 -0.48951298499850
 6 -9.88902516221622  1.78124807790779 -0.64755107920792
 6 -11.24300339693969  1.45083342244224 -1.10043176267627
 6 -11.17487989188919  0.02145750985099 -1.33944265826583
 6 -10.00525620632063 -0.39136111041104 -0.79333434953495
 6 -12.28331715541554  2.33078364936494 -1.47173394819482
 6 -12.34308885518552 -0.78480589068907 -1.73145395389539
 6 -12.23978146654665 -1.31256366756676 -3.16221133973397
 7 -7.20644011231123 -1.41421103470347 -0.03328800580058
 6 -8.25629586938694 -2.21543671577158 -0.52212716791679
 6 -7.79565571117112 -3.61822008950895 -0.43983126042604
 6 -6.49242312641264 -3.55904024102410  0.01305957405741
 6 -6.10888348474847 -2.15590387168717  0.10444324852485
 6 -8.52752021942194 -4.85920876327633 -0.91104958335834
 6 -5.27432190249025 -4.28313219671967  0.18142101470147
 8 -5.11498033593359 -5.54228871227123  0.10434746544654
 6 -4.12246582598260 -3.21780757055706  0.53609347464746
 6 -3.46002663356336 -3.66232145344534  1.89537991089109
 8 -3.67950955155516 -3.09923665986599  2.88861154225423
 8 -2.63176437013701 -4.70448517091709  1.70252883378338
 6 -2.21206179407941 -5.31037526662666  2.97996293179318
 6  2.81833434513451 -0.54307210181018 -1.14198539893989
 6  4.14388647764777 -0.33519169546955 -0.52890303930393
 6  5.18325180958096  0.57076334173417 -0.88581835453545
 6  4.98710713371337  1.34136678597860 -2.25197936323632
 6  6.50378471127113  0.60979282948295 -0.31591807700770
 6  7.59159669756976 -0.15688603550355 -1.05257220772077
 6  8.90720259285929 -0.19766489688969 -0.18188000080008
 6  10.22604322882288 -0.61382845454545 -0.95366633713371
 6  10.02882958315831 -1.98817975407541 -1.49145261026103
 6  11.45176805370537 -0.40754453525353 -0.17902703410341
 6  12.70257516521652 -0.46206025712571 -0.84494451735174
 6  13.86498596699670 -0.18282948574857  0.13039010651065
 6  15.31836796169617 -0.20276400550055 -0.38104634443444
 6  15.73836550545055 -1.55836347014701 -0.91046066376638
 6  16.28411251715172  0.41932629262926  0.56259076627663
 6  17.67840242964296  0.53183458185819 -0.12849866446645
 6  18.76233660316032  1.19855807280728  0.79109954295430
 6  20.22701137033703  1.22571290479048  0.26626138933893
 6  20.47980933473347  1.96837513471347 -1.06092708540854
 6  21.02850378117812  1.77208014431443  1.37407277067707
 1 -3.90659214371437  3.64797031843184  1.25427001390139
 1 -10.10006039873987  3.80834166916692 -0.75849124062406
 1 -10.24861815121512 -2.38007734853485 -1.17060371257126
 1 -2.68887534443444 -1.07186550045004  2.07649834103410
 1 -2.20531413661366  1.68741232383238  1.39381003140314
 1 -2.13535799329933  0.95585603850385  3.77399111261126
 1 -3.24724978497850  2.37989204670467  3.48781094649465
 1 -3.90840428312831  0.69002368636864  3.89869228202820
 1 -2.19171165606561 -1.74740470087009 -0.18807271647165
 1 -2.14753642614261  0.23840109050905 -0.56797683728373
 1 -0.34633815121512  0.54923953785379  1.02544294339434
 1 -0.21497929992999 -1.01659617481748  1.32960691589159
 1 -5.67049582498250  6.78007665176518  0.33430914011401
 1 -5.85245223462346  6.44171753485348  2.07273357045705
 1 -4.55007896389639  5.45851701810181  1.10575375097510
 1 -9.38605065756576  5.79318546664666 -0.64423465166517
 1 -9.11708292419242  7.88498923782378  0.61311093289329
 1 -7.81126059185919  7.08307470697070  1.61165955145515
 1 -12.13840794589459  2.95416574257426 -2.47613061776178
 1 -13.23867353655366  1.94580847204720 -1.75630682218222
 1 -12.48064979607961  2.99939859455946 -0.70611185518552
 1 -12.62124690309031 -1.58057750285028 -0.99832478737874
 1 -13.23686240514051 -0.20384712151215 -1.55856138363836
 1 -13.01700805340534 -1.96521120732073 -3.29057894239424
 1 -12.27058062226223 -0.37251178877888 -3.88971246694669
 1 -11.25410168946895 -1.94385925302530 -3.25716433643364
 1 -8.67501710471047 -4.77909865276528 -1.95652891699170
 1 -8.08737810261026 -5.86224622882288 -0.63615322832283
 1 -9.62776266116612 -5.00856587788779 -0.41909373197320
 1 -3.18331902780278 -3.24362761346135 -0.20522579407941
 1 -1.54672283878388 -4.70147658735874  3.55489840514051
 1 -3.10500010861086 -5.42967458505851  3.56835967486749
 1 -1.86848495999600 -6.19887916111611  2.75625957885789
 1  2.82862216631663 -1.58198003390339 -1.30515448044804
 1  2.57720519811981 -0.10378609900990 -2.14006715891589
 1  4.19597050265027 -1.04631684688469  0.23098631463146
 1  3.95968493199320  1.28140685108511 -2.61331970167017
 1  5.21505691739174  2.40746100500050 -1.88734520272027
 1  5.64320162776278  0.81230233773377 -2.89010774177418
 1  6.75627769066907  1.84598859885989 -0.18225558275828
 1  6.46856097549755  0.09604156675668  0.68940865756576
 1  7.13711109580958 -1.13129236443644 -1.19951127472747
 1  7.81860429632963  0.41997520562056 -2.08505142874287
 1  9.06672872447245  0.76629451445144  0.02441007320732
 1  8.92625111381138 -0.99595510171017  0.64897276097610
 1  10.39348690009001  0.22536507420742 -1.65774066356636
 1  8.99105409090909 -2.05454343084308 -1.94530045484548
 1  10.81176373207321 -2.38761554545455 -2.13657790169017
 1  9.83466635263527 -2.67376931893189 -0.52640207990799
 1  11.34666234713471  0.67396962716272  0.48528001550155
 1  11.44516757015702 -1.14056001730173  0.68124874647465
 1  12.89454277317732 -1.42724088528853 -1.37583525112511
 1  12.66610036253625  0.31983267426743 -1.58402176347635
 1  13.79450088678868  0.78799135513551  0.78679602260226
 1  14.01362411551155 -1.00963056775678  1.01300781728173
 1  15.07370065856585  0.57149663466347 -1.23461781978198
 1  16.14651209410941 -2.32917320942094 -0.19532098599860
 1  14.94120717141714 -2.12657503310331 -1.41945936103610
 1  16.79595922532253 -1.71719724462446 -1.67847931743174
 1  15.98468366906691  1.28677651135113  0.70314685898590
 1  16.44669911711171  0.01310213511351  1.60391315251525
 1  17.93942488118812 -0.22759930733073 -0.37629096949695
 1  17.44665172967297  1.19800711961196 -1.12036561236124
 1  18.74994578717872  2.39427358505851  0.92624062936294
 1  18.83581074137414  0.68906308730873  1.65823582388239
 1  20.75682059475947  0.06857300550055  0.37850491449145
 1  20.29960406700670  3.16240980288029 -0.97264085748575
 1  21.56023027512751  1.84314096689669 -1.37614897819782
 1  19.69617352175218  1.72587439823982 -1.86170313931393
 1  20.77856383158316  1.21080919001900  2.38365798299830
 1  22.11184289058906  1.82407363706371  1.05256022232223
 1  20.79308903880388  2.96576665996600  1.53901434193419

