%nproc=4
%Mem=2GB
# td=(NStates=1) CAM-B3LYP/6-31G(d,p) 

TD

0 1
12 -7.20370094309431  0.57623637173717 -0.06286859945995
 6 -4.76994161216122 -1.93686486488649  0.35942247494749
 6 -4.94679460836084  2.87694614191419  1.09202556745675
 6 -9.54203893939394  3.04908040354035 -0.36968982868287
 6 -9.50426073977398 -1.75538104910491 -0.77348377747775
 7 -5.14659808440844  0.51690150825083  0.46492691099110
 6 -4.30401010711071 -0.63531335333533  0.73953197639764
 6 -3.02452145754575 -0.22443186888689  1.14958531273127
 6 -3.10308374677468  1.20409307760776  1.66352708340834
 6 -4.45576257115712  1.53267401620162  1.12053908380838
 6 -2.90854593669367  1.21624391249125  3.17794920382038
 6 -1.88232169316932 -0.40307556895690 -0.01822786448645
 6 -0.48014543714371 -0.25260960816082  0.41177530683068
 6  0.60967210441044 -0.64856836973697 -0.63655903640364
 8  0.30240148024802 -1.14176958455846 -1.73078941064106
 8  1.77702951345135 -0.49289668606861 -0.14286107500750
 7 -7.24445489338934  2.65989157895790  0.21318001350135
 6 -6.11371065006501  3.40046102190219  0.72905643924392
 6 -6.55599285238524  4.84562885228523  0.78359904710471
 6 -7.79501220822082  4.88312894439444  0.35777416871687
 6 -8.30047431903190  3.44759395469547  0.01263380968097
 6 -5.59501745844585  5.84775724162416  1.16987174767477
 6 -8.77493529112911  5.97060809450945  0.22499948534853
 6 -8.58530242154215  7.12767888648865  0.92001825162516
 7 -9.26615888848885  0.60529339043904 -0.51484551825183
 6 -9.97479373907391  1.75003495659566 -0.58582490659066
 6 -11.32416151275127  1.40621896099610 -1.00849256875688
 6 -11.35845824972497  0.02223758785879 -1.11417013101310
 6 -10.04483016371637 -0.42972494679468 -0.80518553465347
 6 -12.47881670537054  2.28171874287429 -1.30067684248425
 6 -12.41251579787979 -0.85655306540654 -1.63000380888089
 6 -12.29443693209321 -1.19510192139214 -2.99302442104210
 7 -7.24977444574457 -1.39192880648065 -0.04027870487049
 6 -8.27261750155015 -2.29877504960496 -0.39214416961696
 6 -7.78193433903390 -3.60995926342634 -0.44755203250325
 6 -6.43795767986799 -3.59068340534053 -0.05467719961996
 6 -6.12309490589059 -2.10300858215822  0.12737554175418
 6 -8.57548501590159 -4.88219106150615 -0.82544102250225
 6 -5.20308477877788 -4.29752363586359  0.21394426702670
 8 -5.01581041894189 -5.50240472387239  0.19031606230623
 6 -4.09385296469647 -3.21689747954795  0.46685655095510
 6 -3.42512314321432 -3.63100832213221  1.84036440934093
 8 -3.63152475307531 -3.09667640384038  2.91036371747175
 8 -2.57199839353935 -4.65883060546055  1.63810239113911
 6 -1.98721930983098 -5.13957818691869  2.82088702420242
 6  2.89337184888489 -0.60671846644664 -1.14083528392839
 6  4.23425551455145 -0.21355953225323 -0.62985313431343
 6  5.24081756615662  0.51588785418542 -1.04363413611361
 6  5.25533395639564  1.31626427572757 -2.34858902420242
 6  6.48903323612361  0.53417526772677 -0.21319780498050
 6  7.72042958085809 -0.09083943084308 -0.91805875637564
 6  8.94382625522552  0.00661553115312 -0.10389220202020
 6  10.23955457995799 -0.45132220392039 -0.89232020252025
 6  10.13093979417942 -2.01939287538754 -1.16725019001900
 6  11.57236011291129 -0.15564934573457  0.02427329592959
 6  12.81313622132213 -0.55930998209821 -0.74987501040104
 6  13.98347781618162 -0.24155535833583  0.21651871937194
 6  15.31902802770277 -0.33589731883188 -0.41472971277128
 6  15.61680334923492 -1.78566620042004 -0.77469708740874
 6  16.39730383628363  0.37592195219522  0.53824833203320
 6  17.83735832523252  0.36425782418242 -0.12705852045205
 6  18.78185855535554  1.06376459345935  0.85169560256026
 6  20.24829349854985  1.27792812631263  0.23561832503250
 6  20.43392474627463  1.96094439163916 -1.10826181888189
 6  21.13263419421942  1.80382331863186  1.24388975237524
 1 -4.26013749824983  3.39135465686569  1.42434702160216
 1 -10.32748314101410  3.76616745174517 -0.46104149564957
 1 -10.28801209060906 -2.40902024282428 -1.30509716191619
 1 -2.50830728762876 -0.89256757065707  1.88275896709671
 1 -2.40099370457046  1.67057063966397  1.11670232063206
 1 -1.67235169266927  1.10731118401840  3.39453316681668
 1 -3.11591665166517  2.26054011151115  3.38296046144614
 1 -3.59466290899090  0.55529021302130  3.73497591039104
 1 -1.94841732663266 -1.43618357875788 -0.45595950515052
 1 -2.17018869136914  0.14702195259526 -0.77157719731973
 1 -0.14265778317832  0.66884149804981  0.90816121522152
 1 -0.40532833483348 -0.91927644284428  1.24606856205621
 1 -5.65856463186319  6.80962960706071  0.50550625982598
 1 -5.74581157055706  6.41309467256726  2.21022731983198
 1 -4.49526348234823  5.41026219261926  0.96449962556256
 1 -9.50822287478748  5.93593974207421 -0.74282451065107
 1 -9.32223343924392  7.73900463936394  0.52760238203820
 1 -7.83727319311931  7.15995239473947  1.48311669716972
 1 -12.35052915801580  2.94916524252425 -2.28158116281628
 1 -13.46891656085609  1.72580647184718 -1.34959615111511
 1 -12.51559329042904  3.06549520422042 -0.35655689968997
 1 -12.37149192759276 -1.72606205130513 -0.97629258415842
 1 -13.44449316821682 -0.48943568036804 -1.45972149964997
 1 -13.04489084168417 -2.00657534373437 -3.32333221772177
 1 -12.42585614981498 -0.29218375597560 -3.58703219891989
 1 -11.24184046334634 -1.66438130523052 -3.35334395439544
 1 -8.90946054905491 -4.84118486138614 -2.00272353645365
 1 -7.97257662246225 -5.57916792099210 -0.57651726472647
 1 -9.60950083498350 -4.92795781708171 -0.40630245284528
 1 -3.36613730963096 -3.51500475117512 -0.29455472697270
 1 -1.18725689218922 -4.37768420812081  3.05369828512851
 1 -2.74501411001100 -5.08257987558756  3.86822966186619
 1 -1.51909002050205 -6.06351562476248  2.55523947684769
 1  3.02951225532553 -1.65746758265827 -1.35711967696770
 1  2.49727720532053 -0.08394411481148 -2.22714586678668
 1  4.33136404200420 -0.90011222642264  0.29585280128013
 1  4.36816578007801  1.24296300670067 -2.79591796149615
 1  5.24097950965097  2.35533579247925 -2.23157962616262
 1  6.17439474707471  0.92537364486449 -2.89290802180218
 1  6.62740480338034  1.70467446744674 -0.07155451265126
 1  6.32372649204920  0.04884684728473  0.73105282198220
 1  7.73604098879888 -1.33711294649465 -0.95918724232423
 1  7.79804224012401  0.42209541764176 -1.80800372397240
 1  9.09603165476548  0.95396328132813  0.20926855905591
 1  8.86327481618162 -0.47591309750975  0.92449031273127
 1  10.21881943334333  0.18316085378538 -1.82867775727573
 1  9.17408239373937 -2.23755173167317 -1.65006093089309
 1  11.05481803750375 -2.33224000790079 -1.50331457535754
 1  9.91963484948495 -2.64719666166617 -0.19419885958596
 1  11.68391607250725  0.83887611781178  0.50327181468147
 1  11.34097715111511 -0.75427138843884  0.89426004760476
 1  12.85640895979598 -1.46406456765677 -1.08337600520052
 1  12.91218497099710 -0.21132044104410 -1.63765712701270
 1  13.88411984868487  0.87681023702370  0.37767511051105
 1  13.81091384448445 -0.92337194189419  1.09808632513251
 1  15.40283357185718  0.21610109510951 -1.29221357935794
 1  15.80217766066607 -2.51410170227023  0.14290283638364
 1  14.90832388308831 -2.23111548714871 -1.63347076217622
 1  16.59698932833284 -2.09532505740574 -1.40342181168117
 1  16.27607280798080  1.39986782048205  0.52978952325233
 1  16.58841328852885 -0.15138431353135  1.43483624482448
 1  18.19080001870187 -0.71069761716172 -0.39627296769677
 1  17.79966703120312  1.07318463736374 -0.95461903770377
 1  18.23645443804380  2.06042019971997  1.05126313161316
 1  18.86822398269827  0.47083126412641  1.77604760506051
 1  20.43260817351735  0.28392454065406 -0.02752568856886
 1  20.04667877447745  2.91699526142614 -1.07557115051505
 1  21.43808806090609  1.92276892969297 -1.34313567686769
 1  19.97628153255326  1.51409322012201 -1.92035900490049
 1  20.99103507870787  1.46687479657966  2.33734335153515
 1  22.20883258955896  1.60364159385939  0.89313427972797
 1  21.01029075897590  2.88906899019902  1.47107754825483

