%nproc=4
%Mem=2GB
# td=(NStates=1) CAM-B3LYP/6-31G(d,p) 

TD

0 1
<<<<<<< HEAD
12 -7.06716728972897  0.71412016011601  0.02070975837584
 6 -4.81286590459046 -2.02234341274127  0.43018955165517
 6 -4.89011894079408  2.86119456675668  1.29164552945295
 6 -9.37988272377238  3.10035553105311 -0.51827468716872
 6 -9.45670598429843 -1.68862437343734 -0.86598302740274
 7 -5.09084250885089  0.45621543964396  0.65953637193719
 6 -4.36220592669267 -0.71179100110011  0.74782280548055
 6 -2.95024402980298 -0.43514293999400  1.19591994619462
 6 -3.04679811821182  1.09382205050505  1.69132986368637
 6 -4.44224121902190  1.52199294809481  1.13764079397940
 6 -2.96770185228523  1.21060334843484  3.24221563046305
 6 -1.87520098109811 -0.65142040344034 -0.00711675337534
 6 -0.44907232983298 -0.46109045624562  0.54440857015702
 6  0.59841097829783 -0.63679719261926 -0.63559894039404
 8  0.20910215031503 -1.04108951655166 -1.69431576327633
 8  1.84217602810281 -0.41895929232923 -0.14592138103810
 7 -7.08148859675968  2.67398298809881  0.26539523502350
 6 -6.02212149114912  3.38855983178318  0.76898043164316
 6 -6.41896915001500  4.87081137053705  0.84838552575258
 6 -7.72284499149915  4.82804343584358  0.29132752405241
 6 -8.14965923752375  3.45059425472547  0.00726327262726
 6 -5.50347830453045  5.93150561646165  1.27552231273127
 6 -8.56715451305130  6.08700973467347  0.21551853725373
 6 -8.46730062136214  7.27693381198120  0.85048129792979
 7 -9.01935420802080  0.73826668776878 -0.69197323102310
 6 -9.79659591929193  1.85664561766177 -0.82419874397440
 6 -11.18148724532453  1.43951229032903 -1.11355307480748
 6 -11.20356276017602  0.04883024712471 -1.26908562256226
 6 -9.86381206190619 -0.38628060236024 -0.92256727282728
 6 -12.37870669436944  2.39541011201120 -1.34170094489449
 6 -12.28829337563756 -0.92310972107211 -1.54183499199920
 6 -12.37595508390839 -1.11456386758676 -3.13796891549155
 7 -7.22962243054305 -1.32717233083308 -0.15865054205421
 6 -8.26065630543054 -2.21252642474247 -0.49368432363236
 6 -7.84704084968497 -3.64128239573957 -0.50349762706271
 6 -6.50126401050105 -3.53090742774277 -0.18451018291829
 6 -6.19438203460346 -2.18672695399540  0.03572637683768
 6 -8.58594606200620 -4.87829067146715 -0.75453393179318
 6 -5.30500497079708 -4.38346222972297  0.09093196579658
 8 -5.22695153305331 -5.57982246564656  0.00479751045104
 6 -4.19918349774978 -3.36977276707671  0.51031089638964
 6 -3.57283791469147 -3.75721094239424  1.90307067996800
 8 -3.96751835243524 -3.18566530273027  2.92419510061006
 8 -2.79882107580758 -4.75951067346735  1.89445802670267
 6 -2.40108069596960 -5.30114434353435  3.10740567606761
 6  2.81949446114611 -0.65434322892289 -1.16100730113011
 6  4.11576366536654 -0.41890006630663 -0.58764891389139
 6  5.07819130353035  0.35077134253425 -1.01930170287029
 6  5.19072749574957  1.19015166446645 -2.22879704500450
 6  6.40774510731073  0.52582443264326 -0.12815930113011
 6  7.49450698859886 -0.31651199809981 -0.97309425992599
 6  8.86283815641564 -0.08353348374837 -0.14526633943394
 6  10.21061168566857 -0.53550062176218 -0.91919288978898
 6  10.06720342054205 -2.11597253335334 -1.15424888988899
 6  11.38530140704071 -0.28831261206121 -0.04344347574757
 6  12.76015092279228 -0.60906495759576 -0.73033305620562
 6  13.89629909830983  0.01589038623862  0.20446751425143
 6  15.36884300920092 -0.25345907500750 -0.39974821462146
 6  15.74149581848185 -1.67302493629363 -0.68343796149615
 6  16.47695180108011  0.63258761876188  0.32519702690269
 6  17.92694728412841  0.54666606500650 -0.24871068566857
 6  18.94763513301330  1.27092530953095  0.68221865486549
 6  20.38174684388439  1.40671100460046  0.14260902410241
 6  20.32760411421142  2.10370866806681 -1.14517551025103
 6  21.13539447024703  2.05713865016502  1.22402776617662
 1 -4.19033051755176  3.46744226562656  1.80536512341234
 1 -10.16062645534553  3.86111694669467 -0.55679107060706
 1 -10.23879716911691 -2.34598393919392 -0.98161481368137
 1 -2.77967442434243 -1.11111942584258  1.96688737993799
 1 -2.07638124332433  1.62943652625263  1.25388603900390
 1 -1.87308176567657  1.10923137603760  3.49019273277328
 1 -3.25526058605861  2.22776683418342  3.60829299469947
 1 -3.71414485718572  0.45004968896890  3.62828524132413
 1 -1.97474995989599 -1.69948990939094 -0.43434734393439
 1 -2.11409308180818 -0.03532628222822 -0.86215625522552
 1 -0.47728124552455  0.42359697359736  1.11848224732473
 1 -0.26503430543054 -1.20598511371137  1.21644559975998
 1 -5.76639541494149  6.84687333143314  0.80115582478248
 1 -5.68348533793379  6.24680804390439  2.46777307440744
 1 -4.29284324032403  5.40437160356036  1.37385056065607
 1 -9.35979803230323  5.79815596369637 -0.44539476767677
 1 -9.23684490039004  7.87387812671267  0.47585720752075
 1 -7.66151561736174  7.66366276577658  1.44701308680868
 1 -12.44727883298330  2.77273759975998 -2.46977998269827
 1 -13.43299296849685  1.79738362956296 -1.43217440894089
 1 -12.32627435853585  3.36048470317032 -0.66415765976598
 1 -12.00379515791579 -1.99370881598160 -1.03472842774277
 1 -13.22896161506151 -0.39512624942494 -1.25970149764976
 1 -13.13922027462746 -1.95352003820382 -3.32624250875087
 1 -12.50478404260426 -0.17319185678568 -3.67589108480848
 1 -11.54146042534254 -1.82115698279828 -3.24466308630863
 1 -8.98859846284629 -4.71753249614962 -1.71267453155316
 1 -7.91281064586459 -5.78243824802480 -0.70568018101810
 1 -9.35195508040804 -4.92305732703270 -0.06217804040404
 1 -3.23320401630163 -3.47323057375738 -0.30441571307131
 1 -2.09652781928193 -4.49072551225122  3.92936585188519
 1 -3.36290589918992 -5.99958157575758  3.59994283318332
 1 -1.72116022752275 -6.16799607280728  2.69813376627663
 1  2.83675297939794 -1.62790462636264 -1.69566353135313
 1  2.48954643224322  0.00772505210521 -1.87437058925893
 1  4.20239114471447 -0.86061827702770  0.40612382838284
 1  4.20740970447045  1.25348405880588 -2.73881225092509
 1  5.82109752145215  2.26866712561256 -2.21625809400940
 1  5.93253056065607  0.75110621812181 -2.99628835983598
 1  6.73702576547655  1.64075807580758 -0.18104546174617
 1  6.37551167056706  0.24789675227523  0.91909162586259
 1  7.18103548824882 -1.48019725492549 -1.04318564216422
 1  7.81652408830883 -0.03412020392039 -2.01453437703770
 1  8.94505655725573  0.93328121312131 -0.12813518131813
 1  8.76418490719072 -0.53207871407141  0.77446531023102
 1  10.35110266166617  0.10552309000900 -1.76820170967097
 1  8.95490047554755 -2.21933991049105 -1.49801572637264
 1  11.07165972167217 -2.49586637053705 -1.62237648154816
 1  9.91588447444745 -2.52905484748475 -0.11501094079408
 1  11.44672235313531  0.78654088428843  0.18315980348035
 1  11.15150820422042 -0.77827378867887  0.97089771137114
 1  12.88480179907991 -1.75799396059606 -0.71786945454545
 1  12.73697745024502 -0.03651296029603 -1.60619398069807
 1  13.73079451615162  1.08203075907591  0.22358970197020
 1  13.90323307640764 -0.59328893359336  1.10159667616762
 1  15.33463675217522  0.33222270727073 -1.36461081908191
 1  15.57818526142614 -2.30496078817882  0.35308385448545
 1  14.89938298899890 -2.24219659525953 -1.25687310241024
 1  16.89970960036004 -1.72577810271027 -0.79379084858486
 1  16.12111731243124  1.54702253595360  0.51266781108111
 1  16.53919836703670  0.10788161306131  1.40657341854185
 1  18.21163210191019 -0.51733828122812 -0.65095843624362
 1  18.06239330383039  0.92186950585059 -1.22884646044604
 1  18.36221701430143  2.33522768046805  1.14485249054905
 1  19.05846300660066  0.80319450045005  1.66343634393439
 1  20.89203411611161  0.38765491369137  0.13454051805181
 1  19.81050515711571  3.01511507340734 -1.12197579097910
 1  21.38243249534954  2.23336998979898 -1.62225358865887
 1  19.90344424882488  1.50452226302630 -2.03673064206421
 1  21.16024199939994  1.45510361946195  2.19952957015702
 1  22.12922462876287  2.09203043274327  0.93857882418242
 1  20.75342507240724  2.96207629092909  1.58395883638364
=======
12 -7.16880745374537  0.56414516261626  0.10628831623162
 6 -4.81091570957096 -1.93416459485949  0.51359789248925
 6 -4.84605453435344  2.85166361366137  1.17419378427843
 6 -9.38355309080908  3.05266076157616 -0.41716457615762
 6 -9.49875018871887 -1.77560307130713 -0.91744817391739
 7 -5.12241566616662  0.38917873597360  0.74206462476248
 6 -4.37876758285829 -0.61397121912191  0.83433145634563
 6 -2.90484949034903 -0.39872929862986  1.21258161236124
 6 -3.03354679307931  1.07952062036204  1.64146487718772
 6 -4.45076207110711  1.48586933573357  1.09378640854085
 6 -2.99222430453045  1.20119240734073  3.23056446534653
 6 -1.91718517951795 -0.60448570997100  0.08393235153515
 6 -0.43896131873187 -0.26107045424542  0.53094722402240
 6  0.53849498669867 -0.57783129602960 -0.61534691519152
 8  0.22087332743274 -0.93493890149015 -1.74378070977098
 8  1.84512632313231 -0.42440983738374 -0.17406419531953
 7 -7.04395484338434  2.60977656745675  0.31069976547655
 6 -6.05801508050805  3.45046602240224  0.75877941154115
 6 -6.42782003510351  4.77637192659266  0.77169785698570
 6 -7.75767847484748  4.83257388888889  0.28346673797380
 6 -8.10834510611061  3.46744593989399 -0.01397885158516
 6 -5.60518847554756  5.93304577047705  1.32015677617762
 6 -8.54572236983698  6.09197023072307  0.19874686008601
 6 -8.45183907520752  7.21678779737974  0.87530378017802
 7 -9.12590486308631  0.63804666576658 -0.53046708040804
 6 -9.92298855855585  1.77800775387539 -0.67908423252325
 6 -11.17774687128713  1.49038737783778 -1.16111783128313
 6 -11.25554795869587  0.10207557165717 -1.34199291329133
 6 -9.94229991069107 -0.41271324562456 -0.97691270737074
 6 -12.30386921062106  2.41113168416842 -1.51070784558456
 6 -12.27051159745975 -0.77617502760276 -1.96923773227323
 6 -12.24868235663566 -0.89834224542454 -3.34931004960496
 7 -7.25997546584659 -1.49002861646165 -0.06646132313231
 6 -8.33507374717472 -2.29630480258026 -0.51064601980198
 6 -7.85384152975298 -3.64376264376438 -0.44347162446245
 6 -6.53800768486849 -3.62975731273127  0.08728699679968
 6 -6.20706330273027 -2.26213449474948  0.27791059525953
 6 -8.61671913931393 -4.82177501990199 -0.88107658605861
 6 -5.30623509380938 -4.39762364586459  0.23756662926293
 8 -5.02039087698770 -5.56576105950595  0.11423845454545
 6 -4.17163074247425 -3.30425621542154  0.57324719001900
 6 -3.49547017791779 -3.62701792309231  1.86305667856786
 8 -3.73668526912691 -3.15559229542954  3.01307398849885
 8 -2.72768396209621 -4.64780950335034  1.82405098599860
 6 -2.36580716861686 -5.30549477857786  3.10848578407841
 6  2.82531504320432 -0.76660445504550 -1.20357155755576
 6  4.17675976497650 -0.39779795609561 -0.59321947094709
 6  5.13569705410541  0.44359062446245 -0.98609838253825
 6  5.13621204420442  1.11329397869787 -2.25038920422042
 6  6.46470080288029  0.36460831103110 -0.21594808000800
 6  7.59493703160316 -0.32806315321532 -0.97487443794379
 6  8.90964283688369 -0.00612574297430 -0.24130594339434
 6  10.21130175467547 -0.56102317401740 -0.90271124162416
 6  10.05840254045405 -2.10233116921692 -1.13605707070707
 6  11.45214809170917 -0.26748052885289  0.02953382198220
 6  12.85076998469847 -0.48578262936294 -0.62688271117112
 6  14.02687215561556 -0.12865406820682  0.26916398389839
 6  15.36132225712571 -0.24364809390939 -0.54801304110411
 6  15.63403507240724 -1.68308594239424 -1.04279389708971
 6  16.38106221212121  0.38186254625463  0.42170667786779
 6  17.75066965636563  0.54721612001200 -0.18640445504550
 6  18.80614098359836  1.26252446944694  0.66009644264426
 6  20.20475914511451  1.32600293379338  0.10174493769377
 6  20.34884623842384  2.20786908410841 -1.03939493219322
 6  21.13135406620662  2.02517545384538  1.24310967436744
 1 -4.02886437093709  3.64193971537154  1.63461804870487
 1 -10.14716510921092  3.93413424842484 -0.53179857135714
 1 -10.21307459685969 -2.46279562036204 -1.28525517771777
 1 -2.44833129002900 -1.11774008790879  2.16193688488849
 1 -2.11031463666367  1.58140172277228  1.35281593199320
 1 -2.03636809430943  0.89602005490549  3.63222693619362
 1 -2.86161122112211  2.34146820432043  3.35172733813381
 1 -3.82077552025202  0.81524620862086  3.78135054785479
 1 -1.91761424632463 -1.59149911031103 -0.34391830103010
 1 -2.00111178367837  0.00278752915292 -0.77998803840384
 1 -0.19574309170917  0.83971858575858  0.81622202130213
 1 -0.08077587958796 -1.00518503370337  1.37431138633863
 1 -5.88118689408941  6.85779442354235  0.92121783098310
 1 -5.73439042844284  6.11396475957596  2.27225352245225
 1 -4.64768872487249  5.66629779617962  0.99940311591159
 1 -9.44631668416842  5.87722387048705 -0.49542977117712
 1 -9.10757197309731  7.92504324322432  0.61314093589359
 1 -7.81000046584658  7.29719611911191  1.89672805830583
 1 -11.82317642274228  3.23422374837484 -2.39043204790479
 1 -13.08862853205320  1.87013090429043 -1.92922411391139
 1 -12.85229696079608  3.00163881858186 -0.49550079407941
 1 -12.32781756015602 -1.64143358845885 -1.20806576147615
 1 -13.20095881478148 -0.36178291509151 -1.66099162666267
 1 -12.92342869546955 -1.86656134233423 -3.61498138263826
 1 -12.75170873507351 -0.03398793639364 -3.96387988368837
 1 -11.27544382368237 -1.41283615071507 -3.86847546754675
 1 -9.02790239323932 -4.66448719161916 -1.87903116721672
 1 -7.84592395719572 -5.71785178937894 -0.53285289828983
 1 -9.36869675457546 -4.85392041334133 -0.00820264286429
 1 -3.26238693459346 -3.54788803950395 -0.14434970647065
 1 -1.70708887538754 -4.57741418111811  3.74824774007401
 1 -3.20091970057006 -5.61565318291829  3.84600743964396
 1 -1.77721583308331 -6.11601087428743  2.86565051795180
 1  2.47514681878188 -1.89812164806481 -1.50962492749275
 1  2.64247172477248 -0.12976869726973 -2.20514366656666
 1  4.31168207380738 -1.05071728692869  0.37946116211621
 1  3.92385134863486  1.44092280268027 -2.39537790749075
 1  5.89344475617562  2.19521978087809 -2.13179964816482
 1  5.47879518711871  0.55732684018402 -3.14702343334333
 1  6.70842290519052  1.36284028402840  0.30740338313831
 1  6.45580970037004 -0.10527856525653  0.87291700840084
 1  7.34754213891389 -1.33995323052305 -1.05145646924692
 1  7.74749718561856  0.13382659075908 -1.94220714431443
 1  9.02566461806181  1.07807569256926  0.00483811601160
 1  8.92619110781078 -0.62891839803980  0.83065092879288
 1  10.39410696209621 -0.14143160546055 -1.85923081258126
 1  9.23692867836784 -2.23921189768977 -1.98501442624262
 1  11.02838539423942 -2.48544532843284 -1.50857510141014
 1  9.75780866686669 -2.59585152715271 -0.15869530923092
 1  11.40619830073007  0.82692492269227  0.25482697019702
 1  11.31608466186619 -0.93715967726773  0.86749737133713
 1  12.87711103000300 -1.60101826302630 -1.04143181078108
 1  13.20219397189719  0.19961065206521 -1.48242160346035
 1  13.75076651335134  1.03843639963996  0.30431777477748
 1  14.12760551365137 -0.58645825052505  1.24609112561256
 1  15.30414370287029  0.26660614561456 -1.53587794579458
 1  15.33828127102710 -2.35078537063706 -0.23664511841184
 1  14.81465451615162 -2.00119249484949 -1.69753716881688
 1  16.68532816221622 -1.93228875377538 -1.44953642314231
 1  16.12908810951095  1.44952278597860  0.67467401170117
 1  16.59142358955895 -0.14217339243924  1.43291605280528
 1  18.26804774347435 -0.33206975437544 -0.29315265566557
 1  17.54900196469647  0.96701402030203 -1.07772134793479
 1  18.40140093269327  2.23438759645965  0.77490549584959
 1  18.74213137343735  0.76366054705471  1.83649364966497
 1  20.41346625932593  0.34168031623162 -0.04682761876188
 1  20.08239234583458  3.21742530443044 -0.66007960136014
 1  21.32872712481248  2.24427107990799 -1.43474483778378
 1  19.63909781418142  1.87409922072207 -1.80300726972697
 1  21.27403337853785  1.50493860296030  2.21781139833983
 1  22.13787549384938  2.14595582528253  0.88908387468747
 1  20.58757848774878  2.90435051835184  1.42379281978198
>>>>>>> 8e03b5b5abfc0030b3aa597dc0de36371bfbd096

