%nproc=4
%Mem=2GB
# td=(NStates=1) CAM-B3LYP/6-31G(d,p) 

TD

0 1
<<<<<<< HEAD
12 -7.13344391739174  0.53682243034303  0.09201688908891
 6 -4.78513313131313 -1.95817699609961  0.50352688538854
 6 -4.82581251015102  2.90802925022502  1.10151651655166
 6 -9.32020675617562  3.13162865836584 -0.37242010171017
 6 -9.51925223892389 -1.76251176217622 -0.84404083318332
 7 -5.08528195279528  0.41780159825983  0.70608102640264
 6 -4.21924163026303 -0.69943976597660  0.80871889508951
 6 -2.84333333873387 -0.38254768046805  1.31006136033603
 6 -3.07741117951795  1.16011868016802  1.79979070977098
 6 -4.42153914881488  1.51175192399240  1.15891292119212
 6 -3.09684476657666  1.27969025712571  3.27956936583658
 6 -1.86836029702970 -0.61776703810381  0.13650760906091
 6 -0.48344576717672 -0.31196554375438  0.52715684498450
 6  0.48501963916392 -0.53100661356136 -0.68949432993299
 8  0.08751999209921 -0.82649805740574 -1.80976730843084
 8  1.79556136663666 -0.31990938733873 -0.24684147304730
 7 -7.11409185708571  2.62712830263026  0.27113580908091
 6 -6.06795607460746  3.40012098789879  0.80579411301130
 6 -6.43727098019802  4.76873116251625  0.80588127532753
 6 -7.75217792479248  4.86938757025703  0.41295968726873
 6 -8.12643691529153  3.48437763306331  0.10534308060806
 6 -5.59870782748275  5.92672513841384  1.28556331683168
 6 -8.56872467006701  6.03168420212021  0.12432941834183
 6 -8.49290318161816  7.16500261886189  0.75123137293729
 7 -9.20672294489449  0.62548540964096 -0.44605863956396
 6 -9.81350761046105  1.76023597669767 -0.73579990409041
 6 -11.15194429102910  1.51401974107411 -1.14657637713771
 6 -11.19763216711671  0.12415777987799 -1.30161887588759
 6 -9.97109278997900 -0.37420939523952 -0.84741975807581
 6 -12.25151397509751  2.47878844984498 -1.57554432923292
 6 -12.39270381668167 -0.78849625972597 -1.77602841134113
 6 -12.15033252165217 -1.36642905410541 -3.16466158475848
 7 -7.19889935823582 -1.40922053565357 -0.19260393739374
 6 -8.27095733553355 -2.27377254935494 -0.52091704690469
 6 -7.78498464406441 -3.69991825932593 -0.49752703000300
 6 -6.49708359245925 -3.58683302030203 -0.04705643754375
 6 -6.13903650005000 -2.19752803410341  0.07924072827283
 6 -8.51771923932393 -4.85839868226823 -0.69905838423842
 6 -5.33725819611961 -4.33577746124612  0.23913678627863
 8 -5.24546338423842 -5.56703118651865  0.09167619831983
 6 -4.16634021342134 -3.38041383118312  0.55442530783078
 6 -3.53032366326633 -3.66594181548155  1.90717109000900
 8 -3.68471007160716 -2.96653338953895  2.84768744984498
 8 -2.76201739543954 -4.72128685108511  1.87070565146515
 6 -2.05976656455646 -5.15531976107611  3.06863179867987
 6  2.69366187788779 -0.50957875247525 -1.31543274367437
 6  4.05270735973597 -0.38913709000900 -0.67524767376738
 6  5.14125761016102  0.33961022642264 -1.11791156385639
 6  5.13125154815481  1.20974362366237 -2.31230539583958
 6  6.44460879367937  0.37709956015602 -0.31187767296730
 6  7.64939247714771 -0.29382972987299 -1.00551750225022
 6  8.84706657925793 -0.20713584398440 -0.16852866566657
 6  10.18881950645064 -0.63612068376838 -0.88226919741974
 6  10.18953565376538 -2.10399133523352 -1.42599606460646
 6  11.38975185208521 -0.38256203700370  0.06573744234423
 6  12.77562246994699 -0.53686773787379 -0.68347837073707
 6  14.00088955735574 -0.06511771457146  0.23917098459846
 6  15.30520664556456 -0.19556328542854 -0.51015925572557
 6  15.68584025292529 -1.64194182798280 -0.86462608030803
 6  16.40610471637164  0.33463782378238  0.42963747094709
 6  17.85444003340334  0.49042044044404 -0.16044185878588
 6  18.75131550105010  1.26154437143714  0.80186061906191
 6  20.24877354655466  1.34495482898290  0.23507827102710
 6  20.29818117191719  2.23335163236324 -1.00690168286829
 6  21.20497142794279  1.89650258655866  1.34887025042504
 1 -4.16641812631263  3.50176569796980  1.72990757765777
 1 -10.07809820252025  3.93389422442244 -0.60949634113411
 1 -10.35762905230523 -2.49558889968997 -0.96276292849285
 1 -2.47576403330333 -1.11455976987699  2.03347403860386
 1 -2.26069967516752  1.68232181478148  1.36412706310631
 1 -2.32254671217122  0.64035448834884  4.02723643714372
 1 -3.19267432743274  2.36512056955696  3.67329949534953
 1 -4.01520496319632  0.82034671867187  3.76520893369337
 1 -2.19873235813581 -1.67708766916692  0.00945703650365
 1 -2.16371804430443 -0.01383413301330 -0.57736777637764
 1 -0.17644116151615  0.59000361426143  0.97542794189419
 1 -0.28111591359136 -1.11246576177618  1.30484443964396
 1 -6.00778955435544  7.03130177427743  1.18440414961496
 1 -5.18250523992399  5.66863022612261  2.38860515761576
 1 -4.62227618361836  5.79483064946495  0.63683685928593
 1 -9.23221527402740  5.85568171627163 -0.77275750395039
 1 -9.24260547644764  8.02561330023002  0.36846646844685
 1 -8.06570603640364  7.15276167566757  1.61645003050305
 1 -11.84087819291929  3.26237656365637 -2.26275928062806
 1 -13.15053472267227  2.14221811301130 -1.99492068356836
 1 -12.70972270337034  2.84663331803180 -0.57142838683868
 1 -12.36934171257126 -1.62945239033903 -1.12910786568657
 1 -13.41441015991599 -0.31155789258926 -1.69118464596460
 1 -12.85831218381838 -1.88920360656066 -3.55034491899190
 1 -12.11031459565957 -0.57579211681168 -3.92369586528653
 1 -11.06617289658966 -1.73127799489949 -3.19944856485649
 1 -8.80566016901690 -5.13625436833683 -1.77083034713471
 1 -7.67902726752675 -5.69708971317132 -0.54505411841184
 1 -9.38343822872287 -4.73008803010301 -0.22499432203220
 1 -3.36963765966597 -3.37614086478648 -0.10028530003000
 1 -1.37007517401740 -4.54164060376038  3.52085500080008
 1 -2.69337894649465 -5.37157877547755  3.87705054395440
 1 -1.55718382988299 -6.09291856505651  2.79706365926593
 1  2.44157346144614 -1.46933876977698 -1.89923388838884
 1  2.40877835543554  0.17803208280828 -2.20725387758776
 1  4.21849275487549 -0.90657287248725  0.13525674167417
 1  4.15822478597860  1.14594330473047 -2.79903827352735
 1  5.41433684538454  2.23291355025503 -2.18585505370537
 1  5.64992229982998  0.84643575107511 -3.09980871187119
 1  6.70630269316932  1.55444944494449 -0.08931628882888
 1  6.27942206160616 -0.18694673207321  0.66548626532653
 1  7.39108649334933 -1.19897913311331 -1.34373569716972
 1  7.73215565146515  0.23295650375037 -1.96972989658966
 1  9.07256930853085  0.77256514151415  0.29874750695070
 1  8.82432092079208 -0.96497200340034  0.51073893759376
 1  10.34225177657766  0.00283282098210 -1.73412830233023
 1  9.43015800130013 -2.30450842734273 -2.10252617741774
 1  11.08415097079708 -2.28528531243124 -1.92007625152515
 1  9.92692557855786 -2.92569451145115 -0.65619505920592
 1  11.49421710261026  0.76139837003700  0.41500298779878
 1  11.30181323472347 -0.85828178947895  0.83133375497550
 1  12.81662498139814 -1.70603876507651 -0.97269493709371
 1  12.66076982948295  0.05244593559356 -1.41722508380838
 1  13.77826926362636  0.90417297329733  0.62390973397340
 1  13.94332708580858 -0.95981558625863  1.06981349784979
 1  15.00890417891789  0.53885337033703 -1.23436779477948
 1  15.71782922582258 -2.23229352145215 -0.08826027992799
 1  15.15513856455646 -2.15832820842084 -1.69580699579958
 1  16.69971960136014 -1.59688521342134 -1.41411288078808
 1  16.12592779347935  1.39981781548155  0.81961850615062
 1  16.39751419861986 -0.25159433453345  1.28666142734273
 1  18.23218415711571 -0.38978552595260 -0.34785812621262
 1  17.61006807130713  1.13341065996600 -1.01316489228923
 1  18.37338813141314  2.44886904460446  0.96228423372337
 1  18.74303146344635  0.78681286228623  1.92793279357936
 1  20.48403331603160  0.36801294949495  0.13928099209921
 1  20.04802890949095  3.32797635953595 -0.89922351575158
 1  21.40949520162016  1.94840149294930 -1.43314467776778
 1  19.60796470087009  1.63659547034703 -1.79339630863086
 1  21.19330530573057  1.26959506860686  2.22420203740374
 1  22.12267397369737  1.82041327102710  0.63151811811181
 1  20.84708443834383  3.00867095039504  1.63568400890089
=======
12 -7.14032460546055  0.54498324642464  0.12891057845785
 6 -4.80268488648865 -1.93191436983698  0.51456798949895
 6 -4.68391832073207  2.85088353565357  1.13846021092109
 6 -9.37513224872487  3.17229272477248 -0.37181004070407
 6 -9.57277759145915 -1.76847235823582 -0.75946237533753
 7 -5.11579500410041  0.41434125222522  0.72570298859886
 6 -4.33858356445645 -0.76361618361836  0.88366638983898
 6 -2.86650565596560 -0.39076850255025  1.25751610581058
 6 -2.97162060046005  1.00530319861986  1.69821055175518
 6 -4.33360035493549  1.46719746854685  1.16516354625463
 6 -2.83702878497850  1.18048033613361  3.14287569646965
 6 -1.95504896589659 -0.59861512291229  0.10265422372237
 6 -0.54351177377738 -0.42327667486749  0.49291342064206
 6  0.50664180138014 -0.70287380028003 -0.67156253675368
 8  0.24255549564957 -0.92617802540254 -1.83254958665867
 8  1.79845165566557 -0.61848924532453 -0.25255204410441
 7 -7.09393984188419  2.66387197699770  0.36568526402640
 6 -5.96145542454245  3.33805478127813  0.70848438203820
 6 -6.33337059015902  4.74252854225423  0.71564225142514
 6 -7.61848455545555  4.89207983948395  0.34456284758476
 6 -8.13060733233323  3.49703889918992  0.02147469376938
 6 -5.48544650135014  5.89529199509951  1.10947570807081
 6 -8.44669246684668  6.09316034973497  0.08442542794279
 6 -8.33395728702870  7.25913203180318  0.73131938173817
 7 -9.06708898149815  0.65936879797980 -0.50698473217322
 6 -9.91290755045505  1.83289324242424 -0.65720204430443
 6 -11.17878697529753  1.44469280838084 -1.11290300980098
 6 -11.17728013191319  0.11200656475648 -1.12208092209221
 6 -9.89484516521652 -0.42061403570357 -0.72304732083208
 6 -12.24449327302730  2.50827139813981 -1.43201997679768
 6 -12.39301384768477 -0.63132054215422 -1.66390719921992
 6 -12.33803129152915 -1.00650306150615 -3.17132225082508
 7 -7.23668313661366 -1.44951456505651 -0.14479915691569
 6 -8.25508574837484 -2.28135330743074 -0.59040399559956
 6 -7.78446459205921 -3.66334460196020 -0.61059833713371
 6 -6.39053293739374 -3.52236657365737 -0.20898263016302
 6 -6.19020161656166 -2.19909819111911  0.07284008820882
 6 -8.70401786918692 -4.79445228762876 -1.14384286268627
 6 -5.28472294259426 -4.31921580508051  0.16361923452345
 8 -5.15559439733973 -5.54832931633163  0.14403143384338
 6 -4.15667924732473 -3.36604239403940  0.62576244154415
 6 -3.59038966986699 -3.70080530183018  2.01423179607961
 8 -3.92722432303230 -3.14749148534853  3.01942462356236
 8 -2.82264345804580 -4.82297702010201  1.91007958885889
 6 -2.34976556445645 -5.21693592269227  3.24795973147315
 6  2.81585409710971 -0.80299809440944 -1.18491969236924
 6  4.07716980598060 -0.54177235353535 -0.52031218021802
 6  5.01352483688369  0.26435270067007 -0.98493826652665
 6  4.92551097409741  0.96814946424642 -2.30635480078008
 6  6.38338267106711  0.38511036123612 -0.27228371357136
 6  7.65256279417942 -0.18322866976698 -1.02190914141414
 6  8.93184505710571 -0.09285441584158 -0.15274708750875
 6  10.17856848134813 -0.66236330803080 -0.94418538903890
 6  10.05671237143714 -2.06413734983498 -1.36945041004100
 6  11.42588546544654 -0.24886866766677 -0.15066419781978
 6  12.73829873757376 -0.39634368546855 -0.92874289718972
 6  13.91887135553555 -0.21319252205221  0.03386045354535
 6  15.34927105200520 -0.14999872897290 -0.44203244304430
 6  15.81690335923592 -1.70715834963496 -0.88057767546755
 6  16.38798290419042  0.51974633463346  0.49191369856986
 6  17.79791438083808  0.66768816721672 -0.12053786838684
 6  18.79252962246225  1.37775599259926  0.80413084608461
 6  20.27875654485448  1.48783911741174  0.35983074627463
 6  20.38853020682068  2.33184148134813 -0.91558255095510
 6  21.08442937373738  1.98516145244524  1.34325968936894
 1 -3.90569205370537  3.48635415681568  1.28137272417242
 1 -9.88003839653965  4.03498433343334 -0.55641103260326
 1 -10.31414470387039 -2.38391773257326 -1.25786243844384
 1 -2.53979043594359 -1.24652296619662  2.16250694189419
 1 -2.21942554775478  1.55362894549455  1.27096774717472
 1 -1.72261671917192  1.04228468136814  3.33594730823082
 1 -3.12100716071607  2.35645970347035  3.55251741714171
 1 -3.61121456415642  0.35125980998100  3.62626503930393
 1 -2.05678816371637 -1.56786674707471 -0.42469637883788
 1 -2.20654232673267  0.09457670807081 -0.77438747834783
 1 -0.33410692809281  0.90853546744675  0.73558395749575
 1 -0.19990779277928 -1.01281579677968  1.28185214041404
 1 -5.75670444584459  6.66589523362336  0.54038974817482
 1 -5.49166615601560  6.15160852395239  2.21715801290129
 1 -4.56262021802180  5.72659382578258  0.83089626522652
 1 -9.28703075557556  6.03154930303030 -0.68689891809181
 1 -9.14189540544054  7.95103584248425  0.31351097289729
 1 -7.82239170497050  7.65831223072307  1.60409879537954
 1 -12.01785589068907  2.75043536953695 -2.53151615631563
 1 -13.29752942214221  2.10054394559456 -1.23829502100210
 1 -12.26714844594460  3.30180883558356 -0.59823106710671
 1 -12.45577035543554 -1.46159560466047 -0.88497345224522
 1 -13.38721744064406 -0.05581231803180 -1.33875940344034
 1 -13.20549690229023 -1.53442812901290 -3.41596148064807
 1 -12.49896346054605 -0.22349688728873 -3.91989548524852
 1 -11.54587086638664 -1.75644051115111 -3.44259287928793
 1 -9.12403200620062 -4.48523926682668 -2.02680594469447
 1 -8.04147351215121 -5.74890489468947 -1.14943455645565
 1 -9.41208109300930 -4.76012103340334 -0.32419424202420
 1 -3.30560125602560 -3.40102335303530 -0.12212748424843
 1 -1.97118528502850 -4.35224166386639  3.76316923222322
 1 -3.25495510411041 -5.41574319191919  3.87145998489849
 1 -1.57957606910691 -5.95994526772677  3.10637459035903
 1  2.62157146124613 -1.75578741464146 -1.48067203220322
 1  2.39747722532253 -0.09633535393539 -1.93717686988699
 1  4.45210611621162 -1.05772798799880  0.56295951195120
 1  3.91091005450545  1.04124283468347 -2.83157152685268
 1  5.16119153085309  2.05085534443444 -1.88167463566357
 1  5.75047235483548  0.60984209170917 -3.05744447544754
 1  6.59157122002200  1.39794379437944 -0.21150850805081
 1  6.27636175557556 -0.12289032643264  0.65358507520752
 1  7.26173355805581 -1.15448468366837 -1.58166949054906
 1  7.86623905980598  0.36101931003100 -1.97199012261226
 1  9.15895794739474  0.97446533153315  0.18403603580358
 1  8.79596808550855 -0.63402890909091  0.78574643834383
 1  10.28167571897190  0.16416895459546 -1.75358024752475
 1  8.95949093459346 -2.33114109060906 -1.91182710751075
 1  10.69757231293129 -2.56855363926393 -2.16467071097110
 1  10.08502138813881 -2.99662160416042 -0.51366080578058
 1  11.47178485938594  0.85087731793179  0.18214970247025
 1  11.35906896029603 -0.82308827012701  0.81290191179118
 1  12.90898421732173 -1.40702886408641 -1.31415908350835
 1  12.67419117161716  0.32448313931393 -1.70521388268827
 1  13.88384982168217  0.97042959895990  0.61398874187419
 1  13.54168692179218 -0.74976458115812  1.08514503100310
 1  15.52184547304731  0.37287677267727 -1.40580493849385
 1  15.96785422832283 -2.29400969306931 -0.01254270817082
 1  15.07036008670867 -2.17873024862486 -1.51443885898590
 1  16.72833246264627 -1.66045157005701 -1.47488895839584
 1  16.02127732843284  1.49516735043504  0.74300084438444
 1  16.20901534873487 -0.35077425252525  1.32810557175718
 1  18.19531046974697 -0.37664421182118 -0.44615795619562
 1  17.78122518701871  1.17346466536654 -1.12234581038104
 1  18.32446323892389  2.49386354405441  0.96805481078108
 1  18.68496565686569  0.87999218021802  1.55596559685969
 1  20.27715262796280  0.50913706190619  0.01642870687069
 1  20.00129423602360  3.32394595649565 -0.55497909130913
 1  21.48463271537154  2.21251790459046 -1.25437680098010
 1  19.75407931233124  1.97854966576658 -1.76526349534953
 1  21.02439841504150  1.39771788088809  2.31673129032903
 1  22.10374208050805  2.01160238993899  1.01876684298430
 1  20.85928565846585  3.04857494079408  1.66844728522852
>>>>>>> 8e03b5b5abfc0030b3aa597dc0de36371bfbd096

