%nproc=4
%Mem=2GB
# td=(NStates=1) CAM-B3LYP/6-31G(d,p) 

TD

0 1
12 -7.15568614161416  0.58008675677568  0.16290397779778
 6 -4.85203982198220 -1.94348552695270  0.54757128982898
 6 -4.87138706760676  2.77577602490249  1.02830919581958
 6 -9.39957469296930  3.05062055755576 -0.24719757945795
 6 -9.47574788848885 -1.73797930893089 -0.85210163926393
 7 -5.09888331293129  0.42137195529553  0.69627004530453
 6 -4.34426413251325 -0.69765958795880  0.70214823802380
 6 -2.93713271867187 -0.43070249594960  1.29819017321732
 6 -2.92053549194919  1.14617728602860  1.59786051675168
 6 -4.41944893979398  1.47016776557656  1.07327435733573
 6 -2.86531161326133  1.46206849494950  3.14310571947195
 6 -1.87668112911291 -0.61701696309631  0.12971692999300
 6 -0.43737115971597 -0.28067241444144  0.46570069936994
 6  0.47269840704070 -0.54686819971997 -0.61111649214921
 8  0.25652689278928 -0.77082248984899 -1.81296762846285
 8  1.78105991649165 -0.41141853825383 -0.16791358025803
 7 -7.17301774967497  2.63441903170317  0.22655135063506
 6 -6.11636091509151  3.33619459525953  0.83970750435043
 6 -6.50723797689769  4.75899018841884  0.85833652085209
 6 -7.77783049004900  4.81126175767577  0.35867425872587
 6 -8.20541481308131  3.39528872417242  0.04120666696670
 6 -5.61967992469247  5.92277474337434  1.24847960846085
 6 -8.62659045664566  5.97410844454445  0.16284326972697
 6 -8.59544343564357  7.08849496809681  0.91610786058606
 7 -9.16048832143214  0.55537839893989 -0.45522955665567
 6 -9.90427668736874  1.70631058415842 -0.63557988208821
 6 -11.24471356795680  1.37551589068907 -1.15201692119212
 6 -11.26840924482448  0.04284964906491 -1.24212292629263
 6 -9.98023370407041 -0.40899287358736 -0.90353536963696
 6 -12.26217504120412  2.24616518751875 -1.44301107590759
 6 -12.35127967426743 -0.89946735683568 -1.87299810831083
 6 -12.29289677807781 -0.96780919211921 -3.37300241884188
 7 -7.29062853115312 -1.46985659925993 -0.10659533653365
 6 -8.29488972877288 -2.29281445354535 -0.54458941414141
 6 -7.79132527812781 -3.61591985948595 -0.55717299459946
 6 -6.48517240134013 -3.57185152215222 -0.05981771367137
 6 -6.28908150455046 -2.19182746404640  0.17446025022502
 6 -8.63948141554155 -4.82555539793979 -0.94630310871087
 6 -5.32508697899790 -4.35288917241724  0.23345621822182
 8 -5.16872571047105 -5.58990347374737  0.15833286398640
 6 -4.24118769816982 -3.32518830863086  0.56664652995300
 6 -3.55051568246825 -3.53916913821382  1.86036640954095
 8 -3.80444204480448 -3.01639837603760  2.91176385748575
 8 -2.66482767646765 -4.60651537393739  1.82336091699170
 6 -2.11426201410141 -5.00025425452545  3.03825876137614
 6  2.81331384308431 -0.57492528712871 -1.27779898029803
 6  4.15067715671567 -0.50530870717072 -0.51470161916192
 6  5.15311879627963  0.29123538893889 -1.03478325102510
 6  5.07905632863286  1.04474712401240 -2.36892105740574
 6  6.38856318911891  0.32707455765577 -0.18563504870487
 6  7.67198473637364 -0.17154750165017 -0.94891184168417
 6  8.89824169676968 -0.03117824822482 -0.10249206200620
 6  10.19025965046505 -0.48746581828183 -0.82025299579958
 6  10.08004470467047 -2.04146508260826 -1.20596406140614
 6  11.43884676157616 -0.09014279507951  0.01841270987099
 6  12.74597950565057 -0.40302435353535 -0.70894091699170
 6  13.98729819821982 -0.04203540634063  0.13993106060606
 6  15.29108523342334 -0.19519324842484 -0.50465870567057
 6  15.56564823372337 -1.78182581638164 -0.82119173687369
 6  16.44068817471747  0.38404276427643  0.36908141534153
 6  17.84073866326633  0.51582298069807 -0.19545536013601
 6  18.98049841934193  1.27340555755576  0.65296572957296
 6  20.39820849004900  1.22243257675768  0.29287405060506
 6  20.61745309910991  1.97877617481748 -1.06895788848885
 6  21.29956088688869  1.78753168946895  1.33247861126113
 1 -4.21735321982198  3.64930045144514  1.26459104600460
 1 -9.99509990269027  3.88431926692669 -0.32821821332133
 1 -10.18509179857986 -2.44850419121912 -1.26085273747375
 1 -2.55712216911691 -1.02629094299430  2.17410810201020
 1 -2.31922552775278  1.78188177077708  0.94637528792879
 1 -1.77859231673167  1.13191364426443  3.39245295879588
 1 -3.01043610361036  2.54808886638664  3.27867003240324
 1 -3.56653009570957  0.88803348734874  3.72398481128113
 1 -2.04127661256126 -1.58079804020402 -0.07255116431643
 1 -2.18280995349535 -0.08852160176018 -0.78852889248925
 1 -0.31950546794679  0.79502411631163  0.76349674877488
 1 -0.05594339633963 -0.88737325252525  1.33958791399140
 1 -5.68202697809781  6.80197884198420  0.61888759795980
 1 -5.77750473987399  6.12532589568957  2.19088538563856
 1 -4.65642959895990  5.57835900230023  1.16612978857886
 1 -9.44180623312331  6.03407955605560 -0.55773600180018
 1 -9.23928514441444  7.96182692159216  0.81764138593859
 1 -7.96874634043404  6.98945534503450  1.79537792329233
 1 -12.17198130323032  2.63308363436344 -2.33090609530953
 1 -13.41696136533653  1.84040793199320 -1.24889608110811
 1 -12.45379711081108  3.13681233593359 -0.50831207520752
 1 -12.36657143554356 -1.86745619071907 -1.22457741264126
 1 -13.04168288718872 -0.42028876567657 -1.46368189568957
 1 -13.12423877647765 -1.48574326052605 -3.55785567006701
 1 -12.16958052225223  0.20757622002200 -3.65385888158816
 1 -11.36532281158116 -1.55093996109611 -3.66091471147115
 1 -9.05868547154716 -4.81182192509251 -1.89436270037004
 1 -8.09792915771577 -5.68730873507351 -0.85842545554555
 1 -9.48252813771377 -4.99813483478348 -0.26880870347035
 1 -3.41240193609361 -3.37437068776878 -0.11316658815882
 1 -1.51458962546255 -3.95042148184818  3.52693560886089
 1 -2.93207281588159 -5.16053767136714  3.89230206910691
 1 -1.42231034253425 -5.73944321752175  2.80562451535153
 1  2.80433973807381 -1.50850268616862 -1.64208817381738
 1  2.75072254985499  0.12246652625262 -2.05448860106011
 1  4.35068597419742 -1.08520073527353  0.28996221222122
 1  4.03782274577458  1.23873258365837 -2.84367273697370
 1  5.56655206690669  2.00178043694369 -2.22722919111911
 1  5.65688299589959  0.60078118561856 -3.13034176517652
 1  6.62579464236424  1.29689368936894  0.12182482528253
 1  6.12187630703070 -0.09166720412041  0.79302901960196
 1  7.48872625732573 -1.19452868806881 -1.23790511411141
 1  7.72714515041504  0.50782399049905 -1.86994991859186
 1  9.00387243884388  0.88540642564256  0.24283191539154
 1  8.97157564626463 -0.72946845304530  0.78426629032903
 1  10.20211776317632 -0.04087154945495 -1.86101099059906
 1  9.31560654615462 -2.15700367686769 -1.80239616441644
 1  11.18842139783978 -2.31066785068507 -1.60989523342334
 1  9.82682556855686 -2.56276821882188 -0.20646008570857
 1  11.61540922182218  1.01886411661166  0.45740722822282
 1  11.39886293969397 -0.90599656095610  0.74607522912291
 1  12.91557487638764 -1.38675683688369 -1.28420608820882
 1  12.66223997649765  0.34332502350235 -1.56930029132913
 1  13.97223866056606  1.03123567956796  0.42541988498850
 1  13.99043179627963 -0.54566417111711  1.16810332683268
 1  15.16844013251325  0.41964144914491 -1.35280963896390
 1  15.56839428232823 -2.34205449754975  0.02794134023402
 1  14.70482353305331 -2.15476785238524 -1.43398081318132
 1  16.40061969136914 -1.96972249714972 -1.35142661216122
 1  16.13593879457946  1.35148298199820  0.69369591389139
 1  16.55759020622062 -0.23592276737674  1.18070083128313
 1  18.44804574327433 -0.34535108250825 -0.54397773817382
 1  17.68391545604561  1.00852817171717 -1.19526310211021
 1  18.72065285788579  2.45538969666967  0.71426943224322
 1  18.66139329962996  0.88594277527753  1.70274027432743
 1  20.88298321102110  0.20339648784878  0.14763182718272
 1  20.12737684428443  3.00328389028903 -0.88868246164616
 1  21.57472172427243  2.26425307810781 -1.49392075537554
 1  19.85783968836884  1.55731754255426 -1.83189015801580
 1  21.22905888108811  1.20909901900190  2.35514513171317
 1  22.44375608190819  1.62841407110711  1.01622658895890
 1  21.34314404430443  2.78487857115712  1.55343578407841

