%nproc=4
%Mem=2GB
# td=(NStates=1) CAM-B3LYP/6-31G(d,p) 

TD

0 1
12 -7.18276884988499  0.62183093119312  0.04713240064006
 6 -4.85672029002900 -1.89056023442344  0.43707023972397
 6 -4.83118304720472  2.83326177347735  1.21740810571057
 6 -9.39951468696870  3.05258075357536 -0.38245110481048
 6 -9.55571588528853 -1.80427593859386 -0.84383081218122
 7 -5.15404882948295  0.47979779787979  0.64090450875087
 6 -4.41514122022202 -0.66550637263726  0.86363438663866
 6 -2.94591359675968 -0.33831325702570  1.30177053125313
 6 -3.10767420582058  1.12809547784778  1.73584431513151
 6 -4.45234222912291  1.52179292809281  1.20629765966597
 6 -3.08227330943094  1.19465175327533  3.30577198609861
 6 -1.94448790979098 -0.55866112751275  0.07990194849485
 6 -0.46504392699270 -0.61008535573557  0.57643177247725
 6  0.51609274647465 -0.62290580348035 -0.58429380988099
 8  0.25596683678368 -1.01734714231423 -1.66368269997000
 8  1.77143895439544 -0.33390078647865 -0.16055284418442
 7 -7.07927837573757  2.65945153495350  0.25134382988299
 6 -6.13045232423242  3.37814879067907  0.75010854445445
 6 -6.53372062516252  4.80405469486949  0.83444413161316
 6 -7.87104981198120  4.79606023752375  0.33056144744474
 6 -8.23196746834684  3.44479367466747  0.07607015331533
 6 -5.55709366606661  5.92644511041104  1.19208396889689
 6 -8.69366716431643  5.98834986868687  0.11033801920192
 6 -8.56511040234023  7.04308042664266  0.80772702250225
 7 -9.13115538813881  0.64408726982698 -0.48328236193619
 6 -9.92183844354435  1.77415736883688 -0.64925124922492
 6 -11.16090518711871  1.42454079317932 -1.30214193369337
 6 -11.22079448334834  0.04167953205321 -1.37687640164016
 6 -9.86591227192719 -0.45191716601660 -0.95638065416542
 6 -12.40937976167617  2.40132070307031 -1.44596137093709
 6 -12.37252179847985 -0.76119352945295 -1.80555136363636
 6 -12.35974346274628 -1.11892430363036 -3.29681480008001
 7 -7.27218668696870 -1.42021163476348 -0.08766344334433
 6 -8.33406364616462 -2.31969714181418 -0.50898585378538
 6 -7.88984513011301 -3.59623789128913 -0.43788106540654
 6 -6.45752963706371 -3.57621195819582 -0.07545927782778
 6 -6.20897349374938 -2.21541982328233  0.10318312251225
 6 -8.60555802320232 -4.87050989338934 -0.75615409380938
 6 -5.31443591389139 -4.28882276577658  0.25669854245425
 8 -5.17809664756476 -5.49103358675868  0.18561559225923
 6 -4.16871045044504 -3.23315910571057  0.50031989728973
 6 -3.56938756965697 -3.68410363166317  1.80776114901490
 8 -3.79727132773277 -3.10741747794779  2.87410009110911
 8 -2.68907010071007 -4.55970069246925  1.68876745764576
 6 -2.11590217811781 -5.12474670377038  2.91719665516552
 6  2.76953946564656 -0.61970976557656 -1.17132833323332
 6  4.19517160616062 -0.42656083238324 -0.48897904690469
 6  5.21812529692969  0.33510977637764 -0.92897266996700
 6  5.17208563156316  1.18734138343834 -2.17754191949195
 6  6.42814714751475  0.36901875207521 -0.12703918911891
 6  7.68784632253225 -0.23995434233423 -0.83919086958696
 6  9.02516438903890  0.11448631823182 -0.07516932973297
 6  10.29687031153115 -0.49115618731873 -0.81400237073707
 6  9.99981668186819 -2.10486142224222 -1.03664712971297
 6  11.55348822572257 -0.13960774157416 -0.01364049544954
 6  12.77192209990999 -0.49943399449945 -0.73019304220422
 6  13.98142761116112 -0.02209341214121  0.10345741324132
 6  15.38451457635763 -0.24612834193419 -0.54453269306931
 6  15.91237290619062 -1.70832846664666 -0.89634925262526
 6  16.37102120802080  0.36937129712971  0.41561606880688
 6  17.82421701110111  0.57495889428943 -0.20721653625363
 6  18.95348571807181  1.20840905790579  0.65216564956496
 6  20.35115378457846  1.29816014951495  0.03456822002200
 6  20.53923527732773  2.16641493869387 -1.19564055675568
 6  21.27276820762076  1.66050898719872  1.26321168456846
 1 -4.14108559305931  3.57763328472847  1.56744133103310
 1 -10.10622101480148  3.84447528252825 -0.47677306880688
 1 -10.31695498489849 -2.36827616841684 -1.30136678887889
 1 -2.63159961686169 -0.90292860676068  2.20203089428943
 1 -2.35891949714972  1.82946652925293  1.41124177457746
 1 -2.08577303480348  0.83509396229623  3.59783349684969
 1 -3.33383844384438  2.34194825232523  3.69170133553355
 1 -3.90676411911191  0.67380206420642  3.70115252805281
 1 -2.06056854175418 -1.53615357575758 -0.39572348154815
 1 -2.08030970347035  0.18519576997700 -0.57292733233323
 1 -0.12565608300830  0.33334794869487  1.10390078917892
 1 -0.25526332833283 -1.63011752695270  1.14883883908391
 1 -5.89923869926993  6.79783842794279  0.67430313951395
 1 -5.31365835523552  6.15023838693869  2.24148044514451
 1 -4.42197615361536  5.49653081948195  0.91921509710971
 1 -9.38783083558356  5.67537368546855 -0.74010423862386
 1 -9.29828104400440  7.89303004190419  0.67885750755075
 1 -7.88916838263826  7.02149854935494  1.69479786528653
 1 -11.98106221132113  3.22208253425342 -2.15429843454345
 1 -13.25041471067107  2.05924981618162 -2.00492168366837
 1 -12.64246597769777  2.86972562726273 -0.48784002800280
 1 -12.31055583398340 -1.72002144724472 -1.14081903680368
 1 -13.33244196309631 -0.15490222702270 -1.62498802630263
 1 -13.14657100970097 -1.99458414461446 -3.59578946344634
 1 -12.48734229842984 -0.20588512611261 -3.94119761546155
 1 -11.20748702800280 -1.57936280338034 -3.54534315431543
 1 -8.57332693569357 -5.03805454835484 -1.96153941804180
 1 -7.87223658845885 -5.70232023622362 -0.47254686768677
 1 -9.78832871777178 -5.05964098539854 -0.53780560316032
 1 -3.38574927082708 -3.33896714741474 -0.25466073757376
 1 -1.48040620712071 -4.23228966866687  3.40748366366637
 1 -3.09469907850785 -5.24407602520252  3.53849668856886
 1 -1.65732384388439 -6.07035630883088  2.61793574647465
 1  2.77655695979598 -1.71083291919192 -1.63040700570057
 1  2.61711918951895  0.03986826642664 -1.95183833603360
 1  4.21580248584858 -0.99396161136114  0.40116333233323
 1  4.20211917541754  1.26754546494649 -2.55290366006601
 1  5.44020943264326  2.16454671357136 -1.79343581178118
 1  5.82895020262026  0.73912502000200 -2.81778050905090
 1  6.55328739163916  1.52569656965697  0.08616125892589
 1  6.22451657105711 -0.00182822022202  0.74810452715272
 1  7.29826721142114 -1.47857709290929 -0.78620994459446
 1  7.81559399529953  0.16558976707671 -1.93893681728173
 1  9.13318537013701  1.07329521452145  0.07517514971497
 1  9.16925541424142 -0.42102760896090  1.02785064876488
 1  10.44882243364336  0.04116665436544 -1.94607949744975
 1  9.06236122162216 -2.28361633813381 -1.77240316511651
 1  10.90773332903290 -2.66800358425843 -1.45023926782678
 1  9.92287517351735 -2.70049199119912 -0.10510995069507
 1  11.49026670757076  0.90698292849285  0.37297878537854
 1  11.55419847324733 -0.68177413871387  0.85225584718472
 1  12.84485780468047 -1.42258041924192 -1.15708337593759
 1  13.02170592309231  0.13962465346535 -1.51678503980398
 1  13.73942537923792  0.90191274727473  0.50049739273927
 1  13.96786954005401 -0.74862446714671  1.00876739323932
 1  15.49069235773577  0.32375186018602 -1.40177453545355
 1  15.75587303020302 -2.23273356545655 -0.06469792369237
 1  15.07251030173017 -1.95231760736074 -1.59610702580258
 1  16.77635726512651 -1.87190271517152 -1.30593206270627
 1  15.93892909360936  1.32207004070407  0.68490503480348
 1  16.41350579777978 -0.03928310341034  1.32244500570057
 1  18.35199613831383 -0.29755630303030 -0.52612595299530
 1  17.81834889938994  0.97493481238124 -1.25390896669667
 1  18.66890768336834  2.25054921262126  0.74002200750075
 1  18.89597675797580  0.86947112811281  1.67095709600960
 1  20.55286019871987  0.14573072127213 -0.27658059405941
 1  20.06736084268427  3.19606316821682 -0.89647324072407
 1  21.59313356545655  2.29950660346035 -1.21232259555956
 1  19.92746665106511  1.95159697049705 -2.14191116011601
 1  21.40367634283428  0.69648775787579  2.04727434463446
 1  22.29905161146115  1.72416364606461  0.75255022132213
 1  20.88105783568357  2.64666474977498  1.61542198269827

