%nproc=4
%Mem=2GB
# td=(NStates=1) CAM-B3LYP/6-31G(d,p) 

TD

0 1
<<<<<<< HEAD
12 -7.19462003500350  0.65986473457346  0.05553324072407
 6 -4.85156977497750 -1.92925410381038  0.50408694139414
 6 -4.81840176907691  2.83934238153815  1.06012237713771
 6 -9.53575831133113  3.07662315781578 -0.48342120182018
 6 -9.52664297799780 -1.82095760676068 -0.79479590869087
 7 -5.17596102070207  0.38335815391539  0.59092951125113
 6 -4.32638234433443 -0.68837865986599  0.77303532673267
 6 -2.92527153255326 -0.26004543024302  1.16560691489149
 6 -3.13788722712271  1.07681034933493  1.78614934563456
 6 -4.50100709560956  1.50209095789579  1.18106513641364
 6 -3.04822990509051  1.08500078817882  3.29217062596260
 6 -1.94631809280928 -0.38022328372837  0.10566452475248
 6 -0.49198662126213 -0.41295564276428  0.48634276357636
 6  0.59912104930493 -0.69530304320432 -0.64693007350735
 8  0.38263950405041 -1.30508591619162 -1.68440477217722
 8  1.79501131163116 -0.37705510191019 -0.23484027292729
 7 -7.18969941784178  2.56462205200520  0.32313100860086
 6 -6.20872015101510  3.33428440424042  0.90786432003200
 6 -6.52784003710371  4.71321561096110  0.82821350855086
 6 -7.79279198619862  4.79400003150315  0.32937132843284
 6 -8.36141041264126  3.41062025732573  0.11799434573457
 6 -5.63506146284629  5.91014348024803  1.33580834133413
 6 -8.62701049864986  5.99243027672767  0.09143612901290
 6 -8.50430432173217  7.14997111571157  0.65061131093109
 7 -9.19705197779778  0.65048790989099 -0.65464949864986
 6 -9.90235649534953  1.72347230033003 -0.63641996609661
 6 -11.23899299589959  1.35028336743674 -1.07292901240124
 6 -11.28428083198320  0.00972633673367 -1.21159987398740
 6 -10.02257793849385 -0.44119609390939 -0.83993901000100
 6 -12.34261308500850  2.27884845584558 -1.36751352615262
 6 -12.45553009930993 -0.87053446354635 -1.69242005050505
 6 -12.36289377777778 -1.14267667886789 -3.25221033963396
 7 -7.22525199349935 -1.40847046064606 -0.13785846284628
 6 -8.21938217801780 -2.20702587468747 -0.52041699689969
 6 -7.72951909750975 -3.57670593809381 -0.53743102040204
 6 -6.42186607070707 -3.51533587058706 -0.08457018891889
 6 -6.17995059145915 -2.18195647694770  0.09339214341434
 6 -8.51698916631663 -4.69723256565657 -0.92016049444944
 6 -5.20930540084008 -4.34707859135914  0.23794666726673
 8 -5.02337117501750 -5.46664114751475  0.12428945964596
 6 -4.09502308170817 -3.28172396219622  0.65609547484749
 6 -3.53655428632863 -3.60738595989599  1.89621999489949
 8 -3.75055665626563 -2.98881561776178  3.00441312241224
 8 -2.81208240194019 -4.66809153155315  1.86909549044904
 6 -2.13652424032403 -5.18287251635163  2.96442137763776
 6  2.81304381608161 -0.61515931053105 -1.16333753415342
 6  4.16783887288729 -0.26803497979798 -0.54670481948195
 6  5.16372985738574  0.49566583198320 -0.89532930563056
 6  5.07446586958696  1.32925557485749 -2.21075524082408
 6  6.55917024982498  0.58497034723472 -0.28711519671967
 6  7.71855939383938  0.04938459155916 -1.07857480798080
 6  8.97644951755175  0.08947381698170 -0.19631144394439
 6  10.23374399889989 -0.46850392209221 -0.93746471697170
 6  10.04687138733873 -1.96428736483648 -1.22097556255626
 6  11.48038091499150 -0.17082086288629  0.00962183078308
 6  12.80121502920292 -0.41806585768577 -0.66304632753275
 6  13.99373884228423  0.04043284048405  0.15638270577058
 6  15.33397952285229 -0.29614334343434 -0.52323056285629
 6  15.61103277217722 -1.79940757455746 -0.80286990469047
 6  16.51592569846985  0.35618997899790  0.44871937913791
 6  17.82778736813681  0.48732013041304 -0.19636545114511
 6  18.89647001650165  1.03878209520952  0.75428586158616
 6  20.38022669186919  1.11114144764476  0.19907467066707
 6  20.60339169296930  2.07220551775178 -1.04409540224022
 6  21.38378930973098  1.59188212451245  1.24625998939894
 1 -4.23628511301130  3.54928044944494  1.41407599449945
 1 -10.24918531123112  3.73762459745975 -0.53066845834583
 1 -10.16036932633263 -2.58429777057706 -1.12149880208021
 1 -2.55640209710971 -1.04318263216322  1.93064375557556
 1 -2.33584718991899  1.83925750835084  1.43925457585759
 1 -2.10702516001600  0.77249770267027  3.55415912941294
 1 -3.22328738873887  2.05801985948595  3.67850001540154
 1 -3.67317075977598  0.37711239523952  3.81245365816582
 1 -2.01472395729573 -1.39393935433543 -0.59279318851885
 1 -2.04439611211121  0.31615886628663 -0.55087512711271
 1 -0.09772328972897  0.57076169006901  0.80746114521452
 1 -0.28290609260926 -1.26464097929793  1.17515147034704
 1 -6.04060283568357  6.60524916901690  0.51110681988199
 1 -5.84374136353635  6.32592595569557  2.38793509060906
 1 -4.68895285128513  5.64027519391939  1.13755693129313
 1 -9.34652670517052  5.72765891399140 -0.73531375957596
 1 -8.97772898879888  8.16347708660866  0.31035065686569
 1 -7.82905237103710  7.11283768326833  1.45116350185019
 1 -12.26981108620862  2.64815514151415 -2.46996000070007
 1 -13.26326599579958  1.69035292649265 -1.50453164466447
 1 -12.21263299439944  3.26257491219122 -0.67821906590659
 1 -12.48255303370337 -1.94270371547155 -1.27915287018702
 1 -13.38313703260326 -0.33334007080708 -1.36069159665967
 1 -13.12674902750275 -2.04322900910091 -3.39074895939594
 1 -12.62141570577058 -0.09720425802580 -3.91068456415642
 1 -11.27765404470447 -1.38649351645164 -3.61423004300430
 1 -8.78602820582058 -4.49555029792979 -2.02963622772277
 1 -7.94258362316232 -5.65445544974497 -0.82862247524752
 1 -9.57403728862886 -4.74617963926393 -0.38493031563156
 1 -3.31446214211421 -3.38058130883088 -0.12030730223022
 1 -1.49687785428543 -4.30338677837784  3.57132004730473
 1 -2.92920252885288 -5.46558817641764  3.61060389928993
 1 -1.59234734623462 -6.12138141134113  2.71986593949395
 1  2.86557586168617 -1.65595743164316 -1.59979394439444
 1  2.52424990259026 -0.20291601200120 -2.21783493569357
 1  4.33107401300130 -0.82395461066107  0.17672088808881
 1  4.23368233173317  0.88599731013101 -2.94798316801680
 1  4.98308372007201  2.34030428932893 -2.06769323752375
 1  5.86227353495349  1.18750985848585 -2.96234496549655
 1  6.55849791269127  1.78382238223822 -0.03186054325433
 1  6.41140525992599  0.34233619621962  0.84207392409241
 1  7.53022040674067 -0.90106934213421 -1.45010633423342
 1  7.89816225212521  0.54159736783678 -2.14453737733773
 1  9.22580463206321  1.06578446344634  0.10037766996700
 1  8.83837232593259 -0.52843835003500  0.69099696339634
 1  10.42376992839284  0.06993953165317 -1.87645253475348
 1  9.30621560706071 -2.19356733323332 -1.98911483628363
 1  11.03615617131713 -2.56217300120012 -1.49534377827783
 1  9.51161404740474 -2.39086102810281 -0.17976741644164
 1  11.43995167606761  0.82337456765677  0.23609509700970
 1  11.32668572197220 -0.76849281058106  1.03366398799880
 1  12.73251657055706 -1.37304546574657 -1.09166683428343
 1  12.70208396089609  0.17243793479348 -1.54162752405241
 1  13.95993743044304  0.97812036803680  0.23057040004000
 1  13.97822057515752 -0.37106671137114  1.04740125662566
 1  15.27905119361936  0.32344182918292 -1.25718007600760
 1  15.37929537243724 -2.29568986108611  0.17478602470247
 1  14.71349440014001 -2.08210058565857 -1.53768118321832
 1  16.52379200860086 -1.98796432133213 -1.26913838333833
 1  15.97623282398240  1.33611144484448  0.52198874317432
 1  16.51449589678968 -0.33876305140514  1.38010077127713
 1  18.22642358105811 -0.47124367176718 -0.90446378677868
 1  17.67098416291629  1.05702302120212 -1.13178675447545
 1  18.63509430203020  2.12289644734473  1.17984598989899
 1  18.96834399469947  0.49188336933693  1.76774677497750
 1  20.38897381008101 -0.09750360216022 -0.16461939793979
 1  20.42856696329633  3.18751231313131 -0.56807040044004
 1  21.56943119521952  2.07101375417542 -1.46142750605061
 1  19.81537544194420  1.58349015981598 -1.70782775177518
 1  21.51430740594060  0.89014712381238  2.07966758395840
 1  22.29904161046105  1.86102733243324  0.80217518381838
 1  20.89446917681768  2.51377146044604  1.47587802830283
=======
12 -7.14020459345935  0.57827657575758  0.08221590899090
 6 -4.84350896889689 -1.86538771717172  0.60483701640164
 6 -4.81913184208421  2.86313476077608  1.16303266816682
 6 -9.35673040854085  3.09748524402440 -0.45616847654765
 6 -9.50247056075608 -1.74581009200920 -0.91958838793879
 7 -5.20154357895790  0.51269108720872  0.61826224452445
 6 -4.39222892899290 -0.69567938993899  0.80874889808981
 6 -2.95002400780078 -0.33754318001800  1.38698905310531
 6 -3.04413785218522  1.14502717101710  1.73092382308231
 6 -4.36694368926893  1.57667841664166  1.13287031693169
 6 -3.00022510461046  1.23198548664867  3.33204461336134
 6 -1.94268772977298 -0.68433369476948  0.25160911921192
 6 -0.49871729432943 -0.43991833903390  0.61235536483648
 6  0.52558369556956 -0.75430894379438 -0.54946032653265
 8  0.18591983208321 -1.04238964656466 -1.66187251895190
 8  1.80380219071907 -0.56364376077608 -0.17288407730773
 7 -7.02298274617462  2.61145673547355  0.27110580608061
 6 -5.98693797279728  3.37637861366137  0.69106263986399
 6 -6.38870612371237  4.75625991539154  0.72986367356736
 6 -7.75708841584158  4.84928556005601  0.35226361766177
 6 -8.15460973257326  3.34147334263426  0.02641518781878
 6 -5.51892984968497  5.86456892279228  1.21554631513151
 6 -8.50635843344334  5.97139817351735  0.14329131453145
 6 -8.51637552885289  7.10517663626363  0.82288853865387
 7 -9.13740601320132  0.64449731083108 -0.52216625032503
 6 -9.90045630533053  1.79430938403840 -0.72582890699070
 6 -11.24300339693969  1.52145048414841 -1.05144686418642
 6 -11.24090649454945  0.13187855195520 -1.32360107410741
 6 -9.96830251095109 -0.36264823912391 -0.89134415051505
 6 -12.37425624932493  2.35727629862986 -1.46369314411441
 6 -12.36756130243024 -0.73558096819682 -1.71554236273627
 6 -12.32360984938494 -1.08223063426343 -3.19792491109111
 7 -7.27265673397340 -1.40052966656666 -0.17579225622562
 6 -8.20462070187019 -2.23505867796780 -0.63333828902890
 6 -7.75188133373337 -3.60052832033203 -0.56398367566757
 6 -6.48116200030003 -3.52588692569257 -0.11964369626963
 6 -6.19191178757876 -2.15806408770877  0.09262206640664
 6 -8.51255872327233 -4.80816365876588 -0.88918739713971
 6 -5.34007847814781 -4.35089897339734  0.23892676527653
 8 -5.33881271917192 -5.57014149754975  0.17969500020002
 6 -4.18976255565557 -3.25287107690769  0.65057492279228
 6 -3.60624125502550 -3.59792501380138  2.03326369926993
 8 -3.90069166976698 -3.08918565476548  3.00786346744674
 8 -2.64103529722972 -4.63597832023202  1.78920750165017
 6 -1.96566715461546 -5.16447067616762  2.97000193569357
 6  2.82778529022902 -0.74510230483048 -1.20750195059506
 6  4.14053614261426 -0.53752192849285 -0.58726887588759
 6  5.11690517491749  0.30380664606461 -1.05875564826483
 6  5.02655107810781  1.09237188648865 -2.33898806410641
 6  6.38788312111211  0.30072192239224 -0.35861234643464
 6  7.66289382728273 -0.19746009290929 -1.13812076257626
 6  8.92459433203320 -0.04224935533553 -0.28347015981598
 6  10.27912853735373 -0.41225829752975 -0.93872484298430
 6  10.06546324652465 -1.88392932903290 -1.53132659765977
 6  11.43250612751275 -0.27892167296730 -0.01393052445245
 6  12.75296020372037 -0.46640069116912 -0.68918894179418
 6  14.07640710911091 -0.03634483728373  0.20911797929793
 6  15.35768189308931 -0.18521225032503 -0.42743098289829
 6  15.70095176407641 -1.62021965576558 -0.92354197189719
 6  16.48164227012701  0.48919327932793  0.55287979517952
 6  17.76666125552555  0.62947434583458 -0.12041785638564
 6  18.85981635113511  1.26607482448245  0.76258669166917
 6  20.19926859605960  1.34407474097410  0.26997176037604
 6  20.42435378917892  2.05458375557556 -0.97029802250225
 6  21.25895682648265  1.82221515781578  1.32357772117212
 1 -4.07527901240124  3.48104362576258  1.52287687458746
 1 -10.13081347404741  3.88421925692569 -0.40215560706071
 1 -10.09972326172617 -2.49713905470547 -1.19548620082008
 1 -2.61613807070707 -0.95791410531053  2.28979967116712
 1 -2.08267187238724  1.72972655525553  1.27351800220022
 1 -1.85578003550355  1.01119157205721  3.44034774827483
 1 -3.15921098109811  2.34071812931293  3.65496766216622
 1 -3.63240668336834  0.33397808180818  3.74462687548755
 1 -2.37730021492149 -1.68381834223422  0.15982207300730
 1 -2.20200187268727 -0.21977472707271 -0.61775181478148
 1 -0.27805132253225  0.56081069496950  0.81674207330733
 1 -0.10678848084808 -1.16714122932293  1.36680063526353
 1 -5.78916769216922  6.87461610571057  0.73858956815682
 1 -5.61150814021402  6.11757512061206  2.29215551265127
 1 -4.51810576657666  5.74092525892589  0.70809398499850
 1 -9.17988004050405  5.84359050715071 -0.88409863806381
 1 -8.94710592649265  8.17758849774978  0.47350697249725
 1 -8.00712017781778  7.25497189668967  1.94785317081708
 1 -12.18064216931693  3.05577590359036 -2.26980998569857
 1 -13.43584325352535  1.66017990919092 -1.49892108360836
 1 -12.76279801090109  3.03760241494149 -0.72767401140114
 1 -12.66208098649865 -1.76065551065107 -1.15526048094809
 1 -13.44244296319632 -0.28341507830783 -1.59149467696770
 1 -13.30397675027503 -1.66418110431043 -3.45789567406741
 1 -12.04536810101010 -0.23376791439144 -3.72014551025103
 1 -11.53334961426143 -1.73141800890089 -3.45068368836884
 1 -9.04402400540054 -4.93021376427643 -1.81101436553655
 1 -7.95600496529653 -5.61946195039504 -0.69600921392139
 1 -9.38837872277228 -4.98884390569057 -0.08743056565657
 1 -3.50951164706471 -3.38241149184918 -0.19469474097410
 1 -1.56768493499350 -4.26162260196020  3.45403831913191
 1 -2.67484709330933 -5.83187480508051  3.52265510441044
 1 -1.17663577507751 -5.86261553475348  2.82649660256026
 1  2.66634593869387 -1.84000583648365 -1.83517748274827
 1  2.77269474707471  0.09635391499150 -2.23792694489449
 1  4.34250515611561 -1.11747396259626  0.29227244324432
 1  4.04310327382738  1.35052376277628 -2.54812318201820
 1  5.49620503220322  2.05417567646765 -1.97320378857886
 1  5.40933824142414  0.62660376787679 -3.32496122712271
 1  6.62563462636264  1.43691769176918 -0.07189454665467
 1  6.10425454485449 -0.26244428182818  0.50903061976198
 1  7.55713309800980 -1.34810404560456 -1.36874819841984
 1  7.71471390729073  0.33744695279528 -1.96749967356736
 1  9.01869392099210  1.07863574857486  0.11424905710571
 1  8.96763525222522 -0.55667117331733  0.68320618431843
 1  10.37701525292529  0.29481201890189 -1.63911880138014
 1  9.33044803030303 -1.75828380488049 -2.23452937773777
 1  10.93862641834183 -2.22312909680968 -2.15422966686669
 1  10.06305919191919 -2.72145408740874 -0.72853229292929
 1  11.40847852875287  0.76899913011301  0.41010249774978
 1  11.31290434383438 -1.03736969826983  0.84007462906291
 1  13.04436775567557 -1.66844500570057 -1.04725239283928
 1  12.96775052755275  0.16453714471447 -1.62368572987299
 1  13.83663510021002  0.74514707070707  0.62396973997400
 1  14.01881463456346 -0.81427103180318  1.00136665316532
 1  15.11427471597160  0.37978746374637 -1.46233059105911
 1  15.78849629252925 -2.24464475657566 -0.11523297719772
 1  14.92438548924892 -2.02543491909191 -1.71588900400040
 1  16.55936556595660 -1.57812333723372 -1.29746121562156
 1  16.10017521822182  1.36498433213321  0.93652019631963
 1  16.71697614481448 -0.18707788288829  1.29524228542854
 1  18.24999593829383 -0.45390193759376 -0.28332167256726
 1  17.72364942944295  1.01780909980998 -1.09595317111711
 1  18.65157595019502  2.37662181988199  0.70315832113211
 1  18.79097625792580  0.75004918591859  1.96332633293329
 1  20.53700861356136  0.37070321852185 -0.00978391439144
 1  20.32198630523052  3.12701626352635 -0.76452004540454
 1  21.51313556565657  1.71065771857186 -1.47915927922792
 1  19.50864476887689  1.76918872967297 -1.57500446944694
 1  21.03637961316132  1.32166027512751  2.16920653785379
 1  22.39867157345735  1.75123635333533  0.76970193649365
 1  21.00700042994299  2.86237632093209  1.44901534203420
>>>>>>> 8e03b5b5abfc0030b3aa597dc0de36371bfbd096

