%nproc=4
%Mem=2GB
# td=(NStates=1) CAM-B3LYP/6-31G(d,p) 

TD

0 1
12 -7.12447302030203  0.62389113721372  0.15374306170617
 6 -4.91056567456746 -1.99768094649465  0.50070660336034
 6 -4.79043897279728  2.83295174247425  1.09633599849985
 6 -9.44263899939994  3.05008050355036 -0.32189504920492
 6 -9.53021333503350 -1.64590010101010 -0.90957738683868
 7 -5.13923734833483  0.42161197929793  0.70201061936194
 6 -4.42062176827683 -0.77971779377938  0.83516153935394
 6 -2.94654365976598 -0.43143256895690  1.10029038323832
 6 -3.06427986638664  1.07316998529853  1.58145887658766
 6 -4.30942793769377  1.50303105190519  1.10916794669467
 6 -2.82671775387539  1.28112040014001  3.05450685958596
 6 -1.88723218421842 -0.69050431183118  0.11307526582658
 6 -0.45764318691869 -0.47789213641364  0.47100122942294
 6  0.55860699789979 -0.63375688858886 -0.62910829132913
 8  0.15768700880088 -0.99608501610161 -1.79556588828883
 8  1.83547535803580 -0.41862925932593 -0.28470525942594
 7 -7.01320176807681  2.61132672247225  0.25378407390739
 6 -6.04252353135314  3.40895187098710  0.73998753235324
 6 -6.33669092219222  4.81565585498550  0.78340902810281
 6 -7.70515322232223  4.85894652615262  0.47568595989599
 6 -8.15363963556356  3.44166336163616  0.13714626092609
 6 -5.33709166586659  5.79555202110211  1.09644440494049
 6 -8.57998579617962  6.01510254395440  0.20487747314731
 6 -8.35695958725873  7.19131525012501  0.76869311911191
 7 -9.15075734833483  0.71923478457846 -0.46872090579058
 6 -9.88248450815081  1.87598755185519 -0.71439776387639
 6 -11.23489258585859  1.45550388948895 -1.05414713421342
 6 -11.23134553845385  0.09719508360836 -1.40785949994999
 6 -9.83680936163616 -0.29772174647465 -0.97094211031103
 6 -12.42706152985298  2.44496506750675 -1.30738751355136
 6 -12.39678422472247 -0.75239264936494 -1.77520832933293
 6 -12.12305979437944 -1.26918933013301 -3.14662978157816
 7 -7.23208267656766 -1.38279789338934 -0.07544222122212
 6 -8.26901714151415 -2.19293446554655 -0.59358431363136
 6 -7.87638378397840 -3.62844111161116 -0.54943222052205
 6 -6.51250513461346 -3.57475181218122 -0.06598833073307
 6 -6.27107970437044 -2.20721900320032  0.26907971217122
 6 -8.54592205960596 -4.83878672107211 -0.97381585998600
 6 -5.40884535483548 -4.35198908240824  0.31324419701970
 8 -5.18315715361536 -5.56761124452445  0.36705373607361
 6 -4.18975255465547 -3.40551634143414  0.63485335063506
 6 -3.54981561246125 -3.70441566286629  1.98212858575858
 8 -3.90723232383238 -3.21016775297530  2.92068474957496
 8 -2.77381857555756 -4.83032775517552  1.88164674557456
 6 -2.32609319721972 -5.28770299939994  3.20021495699570
 6  2.82536504820482 -0.69246704130413 -1.33208440884088
 6  4.19114120312031 -0.44641281758176 -0.69735988498850
 6  5.07766125052505  0.39879614501450 -0.98935870857086
 6  5.13579200220022  1.24565721502150 -2.17764192949295
 6  6.41072540534053  0.37983983418342 -0.17078356355636
 6  7.66066360426043  0.01239089218922 -1.01050800130013
 6  8.85234710731073 -0.09269439983998 -0.14613642644264
 6  10.16889751425142 -0.56272334403440 -0.86889786028603
 6  10.12905960616061 -2.05680661676168 -1.21475494049405
 6  11.37320019691969 -0.17137091789179 -0.00545967736774
 6  12.78996390409041 -0.41288533963396 -0.81300132303230
 6  13.96608607700770 -0.06709791259126  0.14476154365437
 6  15.29704582948295 -0.18663239233923 -0.52343058285829
 6  15.65677734663466 -1.67549518331833 -0.90576019371937
 6  16.37704181008101  0.46083044304430  0.42804731193119
 6  17.76911150055005  0.50904230263026 -0.12029784438444
 6  18.74563493299330  1.30711892889289  0.69877031003100
 6  20.23547221642164  1.32085241874187  0.24803956715672
 6  20.61561291509151  2.28338663586359 -0.93678467116712
 6  21.14054498529853  1.87301023732373  1.31772713611361
 1 -3.85026651115112  3.49202472387239  1.60813540044004
 1 -10.06694708740874  3.95812664766477 -0.42602799429943
 1 -10.22148543794379 -2.34258359915992 -1.25164181638164
 1 -2.62758921582158 -1.01955026892689  2.11130182138214
 1 -2.26622022722272  1.66795037763776  1.00209085948595
 1 -2.01835629312931  0.60586103900390  3.48584229772977
 1 -2.72214727472747  2.41757581508151  3.29502166756676
 1 -3.66106954965497  1.05051973597360  3.80542295509551
 1 -2.11759424432443 -1.57487744814481 -0.40046395559556
 1 -2.23216488898890  0.11370862126213 -0.60519055865587
 1 -0.26179969736974  0.49907452135213  0.94752515161516
 1 -0.28129593159316 -0.90671518671867  1.31472542774277
 1 -5.39747852325233  6.68546719081908  0.43001871107111
 1 -5.29023601300130  5.94299766286629  2.14112040914091
 1 -4.31137509350935  5.50025119151915  1.00089326492649
 1 -9.25898795129513  5.77452360046005 -0.78418864706471
 1 -8.86429764566457  8.01913265216522  0.29961958375838
 1 -7.57797726352635  7.33474987448745  1.39146753225323
 1 -12.04346845194519  3.06673699969997 -2.02685569026903
 1 -13.36359602880288  1.91583547474747 -1.63566475797580
 1 -12.63386511761176  3.23428208290829 -0.41821306530653
 1 -12.55545032343234 -1.71335078017802 -1.24238919381938
 1 -13.25180389928993  0.15867913111311 -1.73744927242724
 1 -13.03206955955596 -1.97488217441744 -3.59566945144515
 1 -12.22558612281228 -0.40230476807681 -3.81278477417742
 1 -11.29852613191319 -1.73236810391039 -3.50168878887889
 1 -9.17207681068107 -4.57090783368337 -2.03162642674267
 1 -7.96016538133813 -5.48530853505351 -1.02504211721172
 1 -9.41532141704170 -4.84216923822382 -0.21392321492149
 1 -3.36991768766877 -3.60280353105311 -0.24696996849685
 1 -1.85416358285829 -4.53822026172617  3.48946186148615
 1 -2.99014862346235 -5.60429204680468  3.76882972187219
 1 -1.72677078857886 -6.12649192239224  2.92070602350235
 1  2.72104140824082 -1.71683351925193 -1.68696266126613
 1  2.51443892149215 -0.08006372677268 -2.26779993219322
 1  4.10863176877688 -1.15012722792279  0.15906912291229
 1  4.30856982048205  1.47370608100810 -2.67175554525453
 1  5.71222663436344  2.25858611751175 -2.16968343654365
 1  5.70498780638064  0.87374848234823 -2.94939367036704
 1  6.55042710561056  1.27945194519452  0.27382002480248
 1  6.34832895229523 -0.40038807620762  0.68246796349635
 1  7.62470985568557 -0.96709594479448 -1.71875319891989
 1  7.75127756365637  0.82304551265126 -1.92736566016602
 1  9.07910996259626  0.88934681968197  0.19687731993199
 1  8.70801929062906 -0.59548505470547  0.64705256895690
 1  10.18309586098610 -0.04765222752275 -1.73235812531253
 1  9.09437442294229 -2.15041301780178 -1.86158208300830
 1  11.06796935263526 -2.28999578347835 -1.76143038693869
 1  9.89955284128413 -2.85786772877288 -0.37164660436044
 1  11.28696637753775  0.88762099229923  0.11730321782178
 1  11.47372042544255 -0.74127008830883  0.80024064566457
 1  12.67728104700470 -1.58111627282728 -1.30430809840984
 1  12.71360511301130  0.17553824482448 -1.84403776507651
 1  13.81029246594660  0.91578413441344  0.56290363336334
 1  13.89435218831883 -0.80919052375237  0.98776529302930
 1  15.42426571507151  0.33697318231823 -1.37251160916092
 1  15.81640908380838 -2.27877816991699  0.00107865396540
 1  14.87651070177018 -2.24631700730073 -1.56631404650465
 1  16.56209583898390 -1.71998752365236 -1.28503997349735
 1  16.03692889358936  1.47014484818482  0.63636018031803
 1  16.32303675087509 -0.08200737583758  1.63027578877888
 1  18.15599653835384 -0.58126467386739 -0.35874921532153
 1  17.58105517001700  0.94545186408641 -1.13611718751875
 1  18.42392318491849  2.39388354605461  0.81809981528153
 1  18.88480564086409  0.84017819881988  1.69368936923692
 1  20.66592150485048  0.22713886208621 -0.11609454545455
 1  20.34719882648265  3.28797235913591 -0.60107370077008
 1  21.77277152925292  2.18715536833683 -1.22038340164016
 1  19.99658356275628  1.91050286108611 -1.95374234323432
 1  21.29617559275928  1.03776188528853  2.14707432463246
 1  22.19235094139414  1.89507073677368  1.14802976927693
 1  20.71818154805481  2.84536461976198  1.75276571707171

