%nproc=4
%Mem=2GB
# td=(NStates=1) CAM-B3LYP/6-31G(d,p) 

TD

0 1
12 -7.09907048004800  0.60677942604260  0.12405009240924
 6 -4.87296191419142 -1.91684286268627  0.61632816551655
 6 -4.76101603050305  2.88744719201920  1.12243860876088
 6 -9.30170490599060  3.07141263676368 -0.41750461016102
 6 -9.47988830253025 -1.79287479847985 -0.92279870897090
 7 -5.05705913051305  0.39880969906991  0.77943836213621
 6 -4.38367807390739 -0.72161198319832  0.90275829902990
 6 -2.96261526692669 -0.39501892759276  1.39561991619162
 6 -2.98329176757676  1.02382505080508  1.69994072477248
 6 -4.31055805070507  1.52333308210821  1.17798482838284
 6 -2.84081916401640  1.24203649174918  3.22176358525853
 6 -1.85860932193219 -0.73796905830583  0.28373233153315
 6 -0.42212963556356 -0.43372771997200  0.66171030033003
 6  0.48891002820282 -0.72183569646965 -0.45721110161016
 8  0.16194743484348 -1.15973138073807 -1.54597092879288
 8  1.78429023952395 -0.44298169456946 -0.04831162006201
 7 -6.90923137103710  2.59640523032303  0.28390708620862
 6 -5.99543882288229  3.34424540034003  0.71711524512451
 6 -6.37395464856486  4.77337162656266  0.83670435763576
 6 -7.63560626762676  4.77923855535554  0.32227061836184
 6 -8.05313958555856  3.44455365066507 -0.00454790849085
 6 -5.46998495519552  5.88696116201620  1.31736649714971
 6 -8.50663846144614  5.94187522122212  0.03713069846985
 6 -8.44767865916592  7.17769388798880  0.65611186098610
 7 -9.02521479407941  0.69977283838384 -0.67052108580858
 6 -9.79755601530153  1.78669862296230 -0.71992831693169
 6 -11.21149024562456  1.51948028712871 -1.18895061456146
 6 -11.19775217911791  0.15625098919892 -1.37052576657666
 6 -9.88707438813881 -0.38138011231123 -0.98049306540654
 6 -12.32023084678468  2.49806037703770 -1.46696347114711
 6 -12.27012155845584 -0.72516992709271 -1.83758456695670
 6 -12.07774526292629 -1.00565297649765 -3.37096221482148
 7 -7.21658112641264 -1.34119373297330 -0.10163484048405
 6 -8.29885012481248 -2.16205137723772 -0.52488744394439
 6 -7.80650679627963 -3.57703597109711 -0.58975625292529
 6 -6.50907479157916 -3.54526886388639 -0.15291702360236
 6 -6.15043764016402 -2.15380366166617  0.08038084228423
 6 -8.60054752215222 -4.84408725112511 -0.79216769516952
 6 -5.30890536083608 -4.32216610011001  0.23622649524952
 8 -5.17719655755576 -5.56592107550755  0.31439847054705
 6 -4.13459703910391 -3.31248703850385  0.60844070937094
 6 -3.47569820072007 -3.68960418171817  1.97673804670467
 8 -3.58301990259026 -3.09532626882688  3.02426510761076
 8 -2.68278947264726 -4.73919864226423  1.76868544944494
 6 -2.03161374927493 -5.24237846694669  2.94061899739974
 6  2.71304381608161 -0.56628442304230 -1.19387058745875
 6  4.08971106010601 -0.43668184448445 -0.56902705170517
 6  5.15938942334233  0.32421868726873 -1.02439221192119
 6  5.02631105410541  1.36521917121712 -2.16635080038004
 6  6.43752808560856  0.47287913811381 -0.29321580678068
 6  7.57238477637764  0.02439209230923 -1.08206515701570
 6  8.88635050765077 -0.14506963736374 -0.27720953375338
 6  10.03703432793279 -0.58296536823682 -1.03722469296930
 6  9.91559826002600 -2.02968390449045 -1.43272673767377
 6  11.33907678457846 -0.35462924372437 -0.06106523792379
 6  12.66143105080508 -0.58668271937194 -0.76902692559256
 6  13.80203967236724 -0.37327853065307  0.28867593509351
 6  15.20884700960096 -0.27972170127013 -0.41057929772977
 6  15.71192286118612 -1.56009364316432 -1.04224384208421
 6  16.24404851075107  0.35204956495650  0.52483699089909
 6  17.59960454985498  0.71744314271427 -0.09102491709171
 6  18.69501987148715  1.42054027102710  0.83162359535954
 6  20.14067273647365  1.38705903940394  0.12249701290129
 6  20.21121247504751  2.27962625982598 -1.12360335303530
 6  21.05744667546755  1.84542747904790  1.23429879327933
 1 -3.96834831933193  3.68152367376738  1.38641322822282
 1 -10.07077747044704  3.86075691069107 -0.84577996949695
 1 -10.32916620602060 -2.60083942474247 -1.24850150235023
 1 -2.74275073197320 -1.11195950985098  2.05387607880788
 1 -2.25218882408241  1.70738432103210  1.05260591099110
 1 -1.99488394589459  0.88918937183718  3.89935364886489
 1 -3.02487754775478  2.29909396689669  3.51608377377738
 1 -3.58659210191019  0.59846453045305  3.85296770957096
 1 -1.80337282218222 -1.90286024642464  0.04398048884889
 1 -2.16943861636164 -0.27010976057606 -0.61407144674468
 1 -0.23814733213321  0.50400501440144  0.94252465156516
 1 -0.27826562856286 -1.08755327052705  1.38687264246425
 1 -5.68369714511451  6.85259390349035  0.71846755595560
 1 -5.48696568596860  6.23284664776478  2.33794009110911
 1 -4.37228118411841  5.71294246064606  1.10948412401240
 1 -9.50428248074808  5.82316846494649 -0.55437566576658
 1 -9.13252446834684  7.89246998589859  0.48477809960996
 1 -7.68531799759976  7.31214761426143  1.40881926742674
 1 -11.96704080918092  2.85196552255226 -2.28951195589559
 1 -13.36315598479848  2.02604649584958 -1.44325551705170
 1 -12.29308103920392  3.24277293199320 -0.82709395339534
 1 -12.45574035243524 -1.90089953505350 -1.61780673557356
 1 -13.18310702960296 -0.10325706250625 -1.49035456295630
 1 -12.89142549514952 -1.75007969416942 -3.77933781828183
 1 -12.21800536473647 -0.23769830743074 -4.07824131983198
 1 -11.13943022232223 -1.66085095219522 -3.46603522352235
 1 -9.27307691069107 -4.99159990289029 -1.69061232533253
 1 -7.84533389818982 -5.65150515471547 -0.68022763576358
 1 -9.30288017291729 -5.00171519281928  0.07620579797980
 1 -3.45847654355436 -3.20202345304530 -0.30673594509451
 1 -1.75263342984298 -4.36802324202420  3.51303421872187
 1 -2.67640724932493 -5.82073369096910  3.72835567446745
 1 -1.18141625312531 -5.86925619881988  2.67381133403340
 1  2.57932723682368 -1.50865270117012 -1.61905587058706
 1  2.47604508210821  0.22725700530053 -2.01548470067007
 1  4.18592949854986 -1.12195441064106  0.31604482048205
 1  3.89437840134013  1.49850856125613 -2.47222559225923
 1  5.37880329202920  2.42470272917292 -1.83457992619262
 1  5.51331863946395  0.99080018751875 -3.15646437743774
 1  6.51237330023002  1.41296529652965  0.10719336213621
 1  6.27880199959996 -0.24202223962396  0.42244196089609
 1  7.40377776247625 -0.99424866006601 -1.43680500410041
 1  7.97798023392339  0.57314052215222 -1.89522244584458
 1  9.16912896449645  0.82079996499650  0.48249588178818
 1  8.61014950365037 -0.99210471667167  0.60193805750575
 1  10.31919947134713  0.04259679737974 -1.98799368886889
 1  9.02738772427243 -2.35951392789279 -1.93740966576658
 1  10.89936249194920 -2.66282306620662 -1.96408065196520
 1  9.98594148014802 -2.76850879287929 -0.68936837653765
 1  11.33899158005801  0.59299152935294  0.48969045654566
 1  11.26695974937494 -0.93445940724072  0.82670329192919
 1  12.89951327022702 -1.69800796199620 -1.23622128972897
 1  12.72164591709171  0.15236592759276 -1.49875323662366
 1  13.63357479417942  0.44605716171617  0.86174351735174
 1  13.70345309840984 -1.42091169586959  0.85506202270227
 1  15.00588387688769  0.51854133913391 -1.29498385638564
 1  15.75754319721972 -2.30852114421442 -0.22323377727773
 1  15.01066411711171 -1.95165754135414 -1.70625804090409
 1  16.63125275467547 -1.52776830173017 -1.41695316481648
 1  15.66129132983298  1.25096292999300  1.15286183048305
 1  16.14352880008001 -0.37484665976598  1.25169793099310
 1  18.06936787548755 -0.28060460786079 -0.48424176457646
 1  17.62641970647065  1.29980729962996 -0.96908048384838
 1  18.25193598619862  2.49624378207821  1.19853785908591
 1  18.77964512481248  0.96678085908591  1.96919691999200
 1  20.33505841854186  0.30360650885089 -0.22884582058206
 1  19.73515762236223  3.19946350825082 -0.97876146954696
 1  21.21507575967597  2.31329798259826 -1.38474983828383
 1  19.80959486388639  1.77636944774477 -2.15124209320932
 1  21.00021599679968  1.12013012211221  1.96284590179018
 1  21.92738444474447  1.84014524422442  0.86496146244625
 1  20.69597932783278  2.79507959125913  1.54385482598260

