%nproc=4
%Mem=2GB
# td=(NStates=1) CAM-B3LYP/6-31G(d,p) 

TD

0 1
12 -7.12221279427943  0.65981472957296  0.01558924632463
 6 -4.94922954095409 -1.88323950235023  0.46126265896590
 6 -4.78045797469747  2.77615606290629  1.11504786968697
 6 -9.50449518501850  3.08080357585759 -0.37265012471247
 6 -9.62878319201920 -1.79599511051105 -0.76830325942594
 7 -5.11603502810281  0.47179699779978  0.56102652095210
 6 -4.42706241234123 -0.64230405240524  0.72569059225923
 6 -2.99239824522452 -0.39851927762776  1.36736709090909
 6 -3.17848128652865  1.13349601790179  1.72603333403340
 6 -4.41014800970097  1.54884563336334  1.10094712461246
 6 -3.25704078617862  1.34565685378538  3.29779118801880
 6 -1.86533999499950 -0.63162842424242  0.24182814111411
 6 -0.45248267086709 -0.42378672587259  0.73366749604961
 6  0.51237237443744 -0.71656516941694 -0.39337471797180
 8  0.16339757985799 -0.87991339893989 -1.58941527322732
 8  1.83442525302530 -0.49814721112111 -0.08189497839784
 7 -7.11734218211821  2.64073966376638  0.19103779927993
 6 -6.07751703070307  3.37200817661766  0.63904743834383
 6 -6.40978823192319  4.75533982338234  0.62339302650265
 6 -7.75336804380438  4.76076670817082  0.27973636493649
 6 -8.16043031463146  3.49265846114611 -0.06262371607161
 6 -5.62945090179018  5.93574604050405  1.09573433393339
 6 -8.53684148174817  5.99931096479648  0.17576456185619
 6 -8.54547843914392  7.15869198779878  0.88068431823182
 7 -9.12440471307131  0.66957981908191 -0.60600463416342
 6 -9.93523978367837  1.75452540564056 -0.63715003910391
 6 -11.24248334493449  1.49133747284728 -1.06303802330233
 6 -11.34513691759176  0.03039840394039 -1.21033974797480
 6 -10.09073475417542 -0.41920389468947 -0.81098611471147
 6 -12.37440626432643  2.46089666066607 -1.24020079487949
 6 -12.49640418671867 -0.84365177527753 -1.70158096659666
 6 -12.32313980238024 -1.14512692389239 -3.20349546814681
 7 -7.14636410471047 -1.41243085668567 -0.31505618261826
 6 -8.25309554935493 -2.25834100620062 -0.54080903610361
 6 -7.75359150475048 -3.57820608810881 -0.49532680998100
 6 -6.43707759185919 -3.49386372337234 -0.12493422532253
 6 -6.13593619001900 -2.19196747804780 -0.03952114791479
 6 -8.51575904330433 -4.89013185558556 -0.76536501490149
 6 -5.18351282158216 -4.30368425192519  0.08292116471647
 8 -5.02927176507651 -5.46392087548755 -0.00029299859986
 6 -4.17813139253925 -3.19850564036404  0.66855672097210
 6 -3.56520715161516 -3.61965718701870  1.87075744864486
 8 -3.79335093569357 -3.12725946214621  2.94366704780478
 8 -2.71557275097510 -4.67275199759976  1.71284986588659
 6 -2.12299288718872 -5.12908713781378  2.86152108760876
 6  2.79807231893189 -0.75899369396940 -1.05189639003900
 6  4.15571766076608 -0.46238441474147 -0.46696684568457
 6  5.12295577997800  0.34967123252325 -1.03320309300930
 6  5.03158158115812  1.06661931123112 -2.38953311861186
 6  6.43761809460946  0.52588443864386 -0.28699518471847
 6  7.63007054495450 -0.10568091499150 -0.97684463496350
 6  8.91327319991999 -0.11562669306931 -0.17478929172917
 6  10.26425705020502 -0.57105417711771 -0.89243021352135
 6  10.19023572377238 -1.95466640274027 -1.40954441944194
 6  11.39822269916992 -0.34639842064206  0.00760162876288
 6  12.89031393909391 -0.55035908700870 -0.56952697559756
 6  14.05364483288329 -0.19700090289029  0.45304237173717
 6  15.46725285018502 -0.14162789188919 -0.39605784558456
 6  15.83766543544354 -1.52615024882488 -0.97093671137114
 6  16.54453855975597  0.29989434943494  0.40948545574557
 6  17.89658424782478  0.53086448484848 -0.25891170577058
 6  18.87027739723973  1.19770798779878  0.70717115011501
 6  20.29335800500050  1.24578491199120  0.16890165336534
 6  20.33770512431243  2.13543184038404 -1.05037603030303
 6  21.22425335613562  1.89148208450845  1.21278664206421
 1 -4.04690617511751  3.49791531293129  1.38274286118612
 1 -10.12772316501650  3.84868570357036 -0.47944333583358
 1 -10.35847913731373 -2.78082742354236 -0.87382403460346
 1 -2.69436589348935 -0.97214552845285  2.16881757295730
 1 -2.36918052325233  1.63025660826083  1.55429608000800
 1 -2.32127658515852  1.07586803970397  3.90083379687969
 1 -3.45381044104410  2.39850390789079  3.55988815421542
 1 -3.97103054575457  0.61937662166217  3.60939335213521
 1 -1.87754023892389 -1.58947890829083 -0.20881479067907
 1 -2.18137981048105  0.13724097449745 -0.50920095969597
 1 -0.29949346674667  0.63500811471147  1.12161256035604
 1 -0.15911371337134 -0.95775029022902  1.64998895409541
 1 -5.92268104350435  6.84521316541654  0.64991070027003
 1 -5.40891788118812  6.16687005010501  2.23680997809781
 1 -4.52273622962296  5.66610777717772  0.75380855645565
 1 -9.07049910241024  5.91599774787479 -0.77691791999200
 1 -9.36610782668267  7.96266700560056  0.65906552835284
 1 -8.00757022282228  7.25234163366337  1.75655404090409
 1 -12.17247135223522  3.06533685968597 -2.04364736943694
 1 -13.25760542974297  1.81430532173217 -1.31523271477148
 1 -12.37493922502250  3.07028568326833 -0.37795903990399
 1 -12.61704648304831 -1.82390183528353 -0.99824477937794
 1 -13.42641136003600 -0.31414815161516 -1.49323485098510
 1 -13.10439679227923 -1.85334002020202 -3.39265915041504
 1 -12.13334689888989 -0.17427196479648 -3.76454995069507
 1 -11.28926520582058 -1.80698556565657 -3.48994761476148
 1 -9.17462706570657 -5.06432717561756 -1.76670993509351
 1 -7.64045341014101 -5.67758776297630 -0.83594320732073
 1 -9.46472635753575 -4.97095211651165 -0.04334615721572
 1 -3.46318701460146 -3.40061331203120 -0.32177744924492
 1 -1.16901506800680 -4.41959839953995  3.24909782508251
 1 -2.84223383198320 -4.96926854445445  3.68462130103010
 1 -1.83800191169117 -6.06415568876888  2.76330028292829
 1  2.42998230233023 -1.76092792869287 -1.53805777077708
 1  2.52436991459146 -0.30198591899190 -2.01988514071407
 1  4.35986689228923 -0.82329454465447  0.54408762476248
 1  4.16546551005101  1.17397610801080 -2.93595196489649
 1  5.03430884258426  2.12514277317732 -2.16436290449045
 1  5.93630093769377  0.47573868136814 -2.93820255125513
 1  6.56551861476148  1.58478247824782 -0.07462481968197
 1  6.22547666706671  0.15195715831583  0.95000471717172
 1  7.21106849154916 -1.14011324652465 -1.23719504310431
 1  7.91464390029003  0.49747295539554 -1.94275719931993
 1  9.04320637223722  0.96595448044804  0.20212784498450
 1  8.78975746444645 -0.66940244644464  0.76051391509151
 1  10.35147269866987  0.02811534923492 -1.71292618211821
 1  9.29989497499750 -1.92318029452945 -2.20178610341034
 1  11.06838939463946 -2.32162894679468 -2.01643588748875
 1  9.65974886088609 -2.58227016901690 -0.57670711041104
 1  11.61283896479648  0.74401663186319  0.38435992349235
 1  11.40507356075608 -0.85827178847885  1.01893251485148
 1  13.11499481838184 -1.55791395259526 -0.95158282588259
 1  12.88202195469547  0.04443513451345 -1.41642500380038
 1  13.72739417611761  0.76273882988299  0.81980932393239
 1  14.17282003510351 -0.83674327902790  1.17632414891489
 1  15.24990827932793  0.41780126512651 -1.21136549454945
 1  16.07971541444144 -2.23422371447145 -0.11337279117912
 1  15.01414446514652 -1.97026940254025 -1.66428384348435
 1  16.62414204360436 -1.62627815271527 -1.83524499399940
 1  16.22554775547555  1.29022685638564  0.88681522582258
 1  16.76461090829083 -0.35768494359436  1.33676643784378
 1  18.52562350105011 -0.41620816821682 -0.39705304570457
 1  17.89169623412342  1.00693801270127 -1.26897047284728
 1  18.32150294289429  2.24325848354835  0.96283428872887
 1  18.77299445974597  0.51771595259526  1.48133813411341
 1  20.47662257495750  0.04420056825683  0.12201926592659
 1  19.86655076167617  3.00009357125713 -0.77599119251925
 1  21.15679993209321  2.29087574037404 -1.73243460676068
 1  19.73185709010901  1.98517032783278 -1.84333130213021
 1  21.35916189138914  1.19517762686269  2.10209982718272
 1  22.31664337063706  1.75776700640064  0.80250521682168
 1  20.86776650655066  2.79885996929693  1.41698213871387

