%nproc=4
%Mem=3GB
# td=(NStates=1) iop(3/107=0140000000,3/108=0140000000) CAM-B3LYP/6-31G(d,p) 

TD

0 1
12 -7.02270696239624  0.73480186368637  0.09574594459446
 6 -4.93137195369537 -1.96935416601660  0.54161956435644
 6 -4.73298932953295  2.74757347524752  1.18093819901990
 6 -9.39455622012201  3.19664721772177 -0.41480395569557
 6 -9.57954405240524 -1.73897566326633 -0.96055286018602
 7 -5.10696772797280  0.47478356895690  0.55011283528353
 6 -4.31687393469347 -0.65901704490449  0.69731762646265
 6 -2.97166338693869 -0.34805320332033  1.07221289038904
 6 -3.06245947284728  1.05177387898790  1.62479875917592
 6 -4.36049628432843  1.48621327242724  1.10622501640164
 6 -3.01116729752975  1.18811163046305  3.16336165076508
 6 -1.88123385308531 -0.52820881008101  0.00848465876588
 6 -0.37814352355236 -0.66422967096710  0.48667204950495
 6  0.56500842404240 -0.65960258215822 -0.60445023512351
 8  0.29283950075008 -0.74585836353635 -1.79974736783678
 8  1.83814241264126 -0.52200213861386 -0.22063745134513
 7 -7.17906554995500  2.62861607150715  0.53100402450245
 6 -6.01502164596460  3.41591535893589  0.95028090419042
 6 -6.38588349674967  4.83019988358836  0.81965022372237
 6 -7.62740752605260  4.92538434363436  0.30933706010601
 6 -8.10115964346435  3.48082502130213  0.09472747134713
 6 -5.35932796669667  5.90076955065507  1.18357851305131
 6 -8.51962197019702  6.06338660826083  0.20056066856686
 6 -8.37287569756976  7.25813496319632  0.73413747304730
 7 -9.18432747384738  0.68223521792179 -0.46827340124012
 6 -9.85343282958296  1.86267959225923 -0.65782859635964
 6 -11.17185113781378  1.51587103160316 -1.23219807950795
 6 -11.24864435163516  0.11132867866787 -1.24449447774778
 6 -10.01808941254125 -0.43315350875087 -0.81909411071107
 6 -12.32430336803681  2.63064830623062 -1.46200565326533
 6 -12.38363215611561 -0.70324644844484 -1.78056738733873
 6 -12.24446635553555 -1.18629882218222 -3.23485413661366
 7 -7.23430639303930 -1.37428226392639 -0.13700637573757
 6 -8.32593691999200 -2.21110965646565 -0.51435301520152
 6 -7.85359739953995 -3.62917346874687 -0.46477677747775
 6 -6.63076086658666 -3.56927991009101  0.03380129842984
 6 -6.22782651435144 -2.14770272607261  0.17387922332233
 6 -8.68341068056806 -4.81240733913391 -0.83477686078608
 6 -5.43825928882888 -4.42009557295730  0.30875584968497
 8 -5.35403639593959 -5.59046590359036  0.32645859445945
 6 -4.31195569816982 -3.28568601600160  0.58278660026003
 6 -3.73500767756776 -3.75010295299530  1.94354032253225
 8 -3.83569635303530 -3.12596995489549  2.89670302850285
 8 -2.83104845764576 -4.76780539903990  1.72792182968297
 6 -2.29336829382938 -5.41789699559956  2.96461386178618
 6  2.92114843524352 -0.70413870277028 -1.13647716491649
 6  4.15525641084108 -0.51731699959996 -0.55521808460846
 6  5.17468295959596  0.32833936193619 -0.98630150715072
 6  5.15213893949395  1.18406608190819 -2.22376651165117
 6  6.51680795949595  0.30699131513151 -0.24226475087509
 6  7.70034148674867 -0.33786233423342 -0.92081240994099
 6  8.95476318791879 -0.23413522962296 -0.20625672807281
 6  10.23206866746675 -0.69790145334533 -0.91643736373637
 6  10.11761503810381 -2.19752763266327 -1.32555952195220
 6  11.48059272307231 -0.33871876297630  0.04885692319232
 6  12.79967770327033 -0.66447648114811 -0.70830833593359
 6  14.02954422622262 -0.12795851015102  0.13220963256326
 6  15.35495148614861 -0.16939602320232 -0.68075372787279
 6  15.81495776677668 -1.65384377267727 -0.94981680798080
 6  16.44758175087509  0.41659817711771  0.39694442914291
 6  17.87692528022802  0.58736246584658 -0.20288681568157
 6  18.79307972657266  1.32112019051905  0.74813807050705
 6  20.21373417781778  1.54181361386139  0.24376108210821
 6  20.23864671047105  2.49582688778878 -1.03116781268127
 6  21.05229029602960  2.03845554545455  1.43221716171617
 1 -4.09517988148815  3.42207545894589  1.57105320112011
 1 -10.14567669096910  3.85894816931693 -0.55986051225123
 1 -10.40079450355035 -2.59337487258726 -1.15205302470247
 1 -2.73424071127113 -1.15467567026703  1.82921941264126
 1 -2.25790925722572  1.67676973807381  1.12498614761476
 1 -1.98064115051505  0.97709681608161  3.50539087648765
 1 -3.19301641074107  2.34605382818282  3.39605762796280
 1 -3.78552135263526  0.42936809110911  3.68857054225423
 1 -1.98030314931493 -1.60643131393139 -0.49658766586659
 1 -1.87735410441044  0.17058467826783 -0.75740247484749
 1 -0.32723815251525  0.15589517681768  1.33686754975498
 1 -0.24842326262626 -1.52927369396940  1.24267772607261
 1 -5.52687686538654  6.77533504550455  0.52522235353535
 1 -5.72847431873187  6.19792267366737  2.18559057155716
 1 -4.41852669726973  5.49209347734773  1.23416414901490
 1 -9.44348460826082  5.92436581858186 -0.51424277697770
 1 -9.46015507920792  7.91357107810781  0.62198197389739
 1 -7.49750768286829  7.57559439583958  1.54820378067807
 1 -11.92457293029303  3.39313846094610 -2.20535636713671
 1 -13.13723102080208  2.02936167856786 -1.78646437463746
 1 -12.52871390409041  3.20709804390439 -0.59574001350135
 1 -12.68128009290929 -1.71426234903490 -1.27815131603160
 1 -13.31513381248125 -0.05660837133713 -1.77203295769577
 1 -12.91663686288629 -2.18902256435644 -3.62526348444844
 1 -12.31692209790979 -0.50505897719772 -3.94294327272727
 1 -11.31310615001500 -1.85595662286229 -3.10780905910591
 1 -9.00027464606461 -4.74240074087409 -1.74196025902590
 1 -8.08877326252625 -5.77931388468847 -0.69197915301530
 1 -9.48350252925293 -5.05464391279128 -0.12222449114911
 1 -3.49013653215321 -3.39452605820582 -0.23060079817982
 1 -1.74646803440344 -4.58380059345935  3.62281399899990
 1 -3.12082852015202 -5.92909243414342  3.54679571727173
 1 -1.48402892339234 -6.15541632643264  2.60814417551755
 1  2.77738579337934 -1.70787741054105 -1.52271372007201
 1  2.77130357165717  0.05585367016702 -1.94173523102310
 1  4.43689417611761 -1.19974838863886  0.20819221942194
 1  4.26653196469647  1.43794933763376 -2.46225671137114
 1  5.65486241844184  2.25919634353435 -1.88597603600360
 1  5.62670223872387  0.61792298319832 -3.09511576847685
 1  6.56838502240224  1.36409639023902  0.20820043394339
 1  6.39582745484548 -0.29381671837184  0.61081727722772
 1  7.46820894369437 -1.40290096309631 -1.02696745394539
 1  7.82463502200220 -0.09118001500150 -2.04822564546455
 1  9.03421946624662  0.78785828332833  0.21444387248725
 1  8.78709182998300 -1.05969432213221  0.67632375577558
 1  10.25255988778878 -0.04908876107611 -1.76517167516752
 1  9.20191980108011 -2.43791207470747 -1.91073945584558
 1  11.14277341794179 -2.45665906520652 -1.71981733983398
 1  9.93152534963496 -2.75248936363636 -0.31776917061706
 1  11.37342898449845  0.66243267666767  0.54413218401840
 1  11.41036863236324 -1.11614291189119  0.96937325742574
 1  12.82022997549755 -1.63830124942494 -1.02978525002500
 1  12.86462229212921 -0.27482254625463 -1.51488582228223
 1  13.79668108840884  0.82637800110011  0.45003983268327
 1  14.17140545114511 -0.77149352825282  1.12485485948595
 1  15.38982938433843  0.47039043604360 -1.60251151995200
 1  15.76834063086309 -2.21149049024902  0.04239610411041
 1  15.19215085948595 -2.27365188518852 -1.72086345984598
 1  16.65716399599960 -1.71424232123212 -1.27888440174017
 1  16.10098337183718  1.41737007070707  0.72615853215321
 1  16.47956203400340 -0.28399468426843  1.23190168486849
 1  18.23853059075908 -0.24834134813481 -0.24206440204020
 1  17.62058936853685  1.14396329042904 -1.07119286288629
 1  18.53592264916492  2.46197746574657  0.79671161796180
 1  18.70557652015201  0.78118295779578  1.78069131463146
 1  20.58079791209121  0.69427042464246 -0.16084019181918
 1  19.99217603610361  3.47259803630363 -0.52731491619162
 1  21.23734753555355  2.55282642474247 -1.40975895709571
 1  19.29647804540454  2.23901419161916 -1.64512289668967
 1  20.91087494099410  1.52271791269127  2.45595926472647
 1  22.10223811661166  1.93732420312031  1.21152780638064
 1  20.63873395189519  2.97706382358236  1.87211434813481

