%nproc=4
%Mem=3GB
# td=(NStates=1) iop(3/107=0140000000,3/108=0140000000) CAM-B3LYP/6-31G(d,p) 

TD

0 1
12 -7.14759945164516  0.60508889238924  0.12592896289629
 6 -4.89282809930993 -1.95109233983398  0.54228963136314
 6 -4.70711674227423  2.86782550045005  1.10666077127713
 6 -9.23512027652765  3.13926147914791 -0.47493996929693
 6 -9.47247334533454 -1.73974574027403 -0.91345815071507
 7 -5.05630266146615  0.42721881248125  0.77305512951295
 6 -4.28972121942194 -0.72501364456446  0.82932082678268
 6 -2.81290751135114 -0.43396179417942  1.11878754785479
 6 -2.99548277517752  1.07024572617262  1.68325460476048
 6 -4.37593782848285  1.50306495759576  1.20928532243224
 6 -2.87630381118112  1.05417823712371  3.19725504010401
 6 -1.86873260296030 -0.59133512271227  0.02414622492249
 6 -0.42384809400940 -0.50791403940394  0.38359174147415
 6  0.54306622982298 -0.72263888578858 -0.79318910901090
 8  0.23919413621362 -1.00695447314731 -1.87043443654365
 8  1.79616821522152 -0.51236117451745 -0.33094848244824
 7 -7.05028267166717  2.69344255415542  0.29685060916092
 6 -5.92308245204520  3.43781754915492  0.73853973007301
 6 -6.18715362376238  4.93752061566157  0.83719197789779
 6 -7.61296608190819  4.94142594779478  0.42072819921992
 6 -8.06360588808881  3.56559349814981  0.12471046964696
 6 -5.33359539343934  5.91234070777078  1.28859901510151
 6 -8.52164217221722  6.06843711331133  0.29075968846885
 6 -8.33371178117812  7.30878002770277  0.74081814111411
 7 -8.95061410251025  0.62146914131413 -0.56506308020802
 6 -9.75258274457446  1.81907523182318 -0.70796360986099
 6 -11.10025397809781  1.59989943444344 -1.15638049774977
 6 -11.17018650585058  0.16379392519252 -1.27068709700970
 6 -9.85824342794279 -0.32598279167917 -0.95031723302330
 6 -12.20576151385139  2.47783302470247 -1.48516796949695
 6 -12.29111290419042 -0.74754087788779 -1.81819114971497
 6 -12.08920082898290 -0.91500169246925 -3.29472012321232
 7 -7.16788975137514 -1.38279311501150 -0.17781045614561
 6 -8.21409573587359 -2.24250279577958 -0.58277985788579
 6 -7.81690373017302 -3.54816536793679 -0.39037933773377
 6 -6.46008379887989 -3.52813579567957 -0.01073315501550
 6 -6.18672240394039 -2.12482043784378  0.15646748214821
 6 -8.70499283878388 -4.78587468586859 -0.73666704980498
 6 -5.38120358325833 -4.39717328072807  0.34584955905591
 8 -5.30849184148415 -5.58641549854986  0.50782673127313
 6 -4.21977648024802 -3.41265871327133  0.65425374697470
 6 -3.59202337913791 -3.74957289999000  1.89444541304130
 8 -3.84512729612961 -3.19364672257226  2.99998335653565
 8 -2.85713106590659 -4.84121273977398  1.85978501600160
 6 -2.38502745974597 -5.49340454635464  3.02877027742774
 6  2.84231055145515 -0.90715900480048 -1.23832734993499
 6  4.12271315651565 -0.55325059295930 -0.58736129892989
 6  5.01826731803180  0.35921244924492 -0.94586746374637
 6  4.97249097469747  1.16024369966997 -2.11856599159916
 6  6.38050432913291  0.38264888088809 -0.30137066146615
 6  7.54668612121212 -0.31657020502050 -1.07844817351735
 6  8.77236494809481 -0.13270508660866 -0.25179128152815
 6  10.03890935153515 -0.55129679287929 -1.02608832883288
 6  10.13079635623562 -2.04928280818082 -1.47608457445745
 6  11.36856151995199 -0.42048693979398 -0.10921888438844
 6  12.75623335883588 -0.63083311681168 -0.73544104920492
 6  13.84108538033803 -0.21106682098210  0.18950536213621
 6  15.23216920792079 -0.21031011461146 -0.54014966746675
 6  15.71467773877388 -1.57259564786479 -0.95634746104610
 6  16.32277927062706  0.50353687098710  0.44121885658566
 6  17.65735332303230  0.63138686828683 -0.24406093309331
 6  18.58487890649065  1.33952203070307  0.72983624032403
 6  20.02367517191719  1.48241767426743  0.40735744174417
 6  20.24136698249825  2.39564686978698 -0.91429612551255
 6  20.95280034703470  2.12421412131213  1.51698563856386
 1 -3.91506186968697  3.58120137153715  1.46106220202020
 1 -9.91502362566257  4.05802807730773 -0.53596812301230
 1 -10.19203362746275 -2.23193872897290 -1.33443126252625
 1 -2.50107739493949 -0.96144634733473  1.96473296399640
 1 -2.17708117441744  1.72381444254425  1.23223687268727
 1 -1.73522660906091  0.60904001040104  3.38872921032103
 1 -2.55830293939394  2.11927114991499  3.52204022622262
 1 -3.53316611711171  0.42628778307831  3.85689737493749
 1 -2.13863898289829 -1.43495416621662 -0.52130013711371
 1 -1.89482585158516  0.04121174097410 -0.80155689028903
 1 -0.38399382808281  0.47901748904891  0.74128799179918
 1 -0.15545396569657 -1.22378314491449  1.29918337663766
 1 -5.47423160086009  6.79010652265226  0.57881771307131
 1 -5.82874434573457  6.33777665906591  2.26190820332033
 1 -4.24617946254625  5.55958022602260  1.31307203980398
 1 -9.23091335113511  5.60451383338334 -0.38044939763976
 1 -9.26067513121312  7.91784150515052  0.47001677737774
 1 -7.53188112021202  7.45127196359636  1.30878983928393
 1 -11.85279575257526  3.21461060816082 -2.25269110061006
 1 -12.95900319801980  1.92989173157316 -1.65441116931693
 1 -12.41043207590759  3.10877821192119 -0.60843128262826
 1 -12.30833279817982 -1.72237316011601 -1.35864936583658
 1 -13.30187248634864 -0.30258296879688 -1.55208096249625
 1 -12.76666186538654 -1.68061172327233 -3.69933089118912
 1 -12.20503090879088  0.20984251295130 -3.95299427782778
 1 -11.12427726712671 -1.31682270947095 -3.62952123032303
 1 -8.70075469406941 -4.87166366716672 -1.86286234923492
 1 -7.94493887908791 -5.71609756305631 -0.41625158025803
 1 -9.69186336533653 -4.83523197159716 -0.20764303300330
 1 -3.59753727222722 -3.68934554015402 -0.19843758185819
 1 -1.77340072767277 -4.82046425982598  3.42356407400740
 1 -3.04204064136414 -5.85056458135814  3.91645268296830
 1 -1.78521904240424 -6.55166595139514  2.62456581768177
 1  2.58729678447845 -1.90863748654866 -1.47193864256426
 1  2.74317075837584 -0.48394030923092 -2.23556461396140
 1  4.49788027472747 -1.16285469926993  0.37724912511251
 1  4.03462877437744  1.03702924562456 -2.80830131583158
 1  5.14587151935194  2.33812423632363 -1.82271971037104
 1  5.92415198369837  0.84653584448445 -2.71355761266127
 1  6.51348953285329  1.56659664026403 -0.09042942904290
 1  6.24342221432143 -0.19417675437544  0.69012520802080
 1  7.35862798559856 -1.41613228622862 -1.31294605180518
 1  7.70611316981698  0.41888099109911 -1.96320714361436
 1  8.83876992129213  0.74661415891589  0.33368579667967
 1  8.58297141794180 -0.77579593229323  0.62856898029803
 1  10.20017464926493 -0.00161401360136 -1.93722888088809
 1  9.18102771187119 -2.22887117061706 -2.18739712161216
 1  10.99287842844284 -2.35773917321732 -2.16819217731773
 1  9.94701689878988 -2.51935605030503 -0.69487688138814
 1  11.46213785538554  0.65166159955996  0.40838860966097
 1  11.12476007150715 -1.01113241084108  0.73811013111311
 1  12.68911686418642 -1.69079649894989 -1.15640791229123
 1  12.90067589748975 -0.15874093809381 -1.82512684638464
 1  13.55972739303930  0.84785014831483  0.67819264796480
 1  13.99190750135013 -1.11102748164817  0.98696107010701
 1  15.27860826222622  0.40083348034804 -1.35172644144414
 1  15.81703550035004 -2.33216255745574 -0.01343947944794
 1  14.78366001040104 -2.21940646064606 -1.49568094159416
 1  16.58596687628763 -1.78459935693569 -1.51957847114711
 1  15.64657793129313  1.30519885358536  0.85237115341534
 1  16.46160023782378 -0.21152743754375  1.24686318101810
 1  17.98666540424043 -0.35041155515552 -0.52638283388339
 1  17.57327463706370  1.37949684378438 -1.16466220982098
 1  18.29665872277227  2.34066533453345  1.05816776357636
 1  18.67953391589159  0.82347718721872  1.86229947544754
 1  20.55962579487949  0.51155215281528  0.28427431963196
 1  19.66051286978698  3.28963974047405 -0.82568475317532
 1  21.26674047484748  2.58118926102610 -1.07268524972497
 1  19.91567996559656  1.89690998119812 -1.92522090649065
 1  21.03778763226322  1.35076071697170  2.48321198999900
 1  21.88323621642164  2.47546801750175  1.10870752435243
 1  20.44163424192419  3.09820593779378  1.63101023772377

