%nproc=4
%Mem=2GB
# td=(NStates=1) CAM-B3LYP/6-31G(d,p) 

TD

0 1
<<<<<<< HEAD
12 -7.20534110711071  0.64065281338134  0.07911559895990
 6 -4.81715633363336 -1.97908908730873  0.55352188488849
 6 -4.95958588748875  2.91081952925293  1.11050741564156
 6 -9.52735747124713  3.09992548804880 -0.44717757745775
 6 -9.54467478117812 -1.84080959195920 -0.99487591669167
 7 -5.22753617821782  0.50922074017402  0.69029944824482
 6 -4.34436414251425 -0.62671249324932  0.80480850405041
 6 -2.89943894929493 -0.34241366706671  1.15195554975498
 6 -3.07475091349135  1.17338000630063  1.67219795049505
 6 -4.45739273417342  1.59367011581158  1.09953698359836
 6 -3.05224030613061  1.23118540664066  3.31243265216522
 6 -1.93941740274027 -0.48672393379338 -0.00787682938294
 6 -0.46052347494749 -0.26246059325933  0.46814094339434
 6  0.53529466666667 -0.56227974087409 -0.65480086058606
 8  0.19063030313031 -0.91633704130413 -1.70205653735374
 8  1.80812262276228 -0.23248064446445 -0.17667445634563
 7 -7.25749619751975  2.67652324212421  0.30455915141514
 6 -6.17865714471447  3.42426340214021  0.78673220682068
 6 -6.51314856795680  4.80080436983698  0.86423711091109
 6 -7.82739544654465  4.82110274177418  0.36926531783178
 6 -8.30785505710571  3.46518571387139  0.09538208450845
 6 -5.69933789048905  5.93951641754175  1.18200296079608
 6 -8.64795259285929  6.03084411811181  0.29937692309231
 6 -8.50388427972797  7.16951306990699  0.88197444724472
 7 -9.22202447504750  0.56652951405141 -0.56840087378738
 6 -9.93820007970797  1.76527648074807 -0.66137246134613
 6 -11.29332842944294  1.40129846894689 -1.12353407290729
 6 -11.31059346324632  0.08691405550555 -1.37589630363036
 6 -9.96545222592259 -0.44708668296830 -0.91223623972397
 6 -12.40996982068207  2.38683925492549 -1.43498027282728
 6 -12.31466601290129 -0.89700711081108 -1.79211001950195
 6 -12.24182167056706 -1.16611902310231 -3.27106222482248
 7 -7.25581504980498 -1.41290090369037 -0.12381705870587
 6 -8.21214145394540 -2.24950012211221 -0.56454140934093
 6 -7.84453059865987 -3.64799306680668 -0.41800907820782
 6 -6.49168305240524 -3.53387772477248 -0.10459219111911
 6 -6.23950654705471 -2.17495577687769  0.16808961316132
 6 -8.63227069446945 -4.90231307370737 -0.88770724912491
 6 -5.32280675097510 -4.30062394589459  0.22716558915892
 8 -5.23082192009201 -5.52876736013601  0.20459749044905
 6 -4.11562514191419 -3.24120991079108  0.61813167846785
 6 -3.52711334223422 -3.64962018331833  2.02355272817282
 8 -3.69305090569057 -3.13302003820382  3.04145682678268
 8 -2.66053724742474 -4.63648837123712  1.81083966486649
 6 -1.89242983088309 -5.17020124922492  2.87570250575058
 6  2.86333884558456 -0.55977377197720 -1.17524872527253
 6  4.22505459445945 -0.42268044434443 -0.60192034103410
 6  5.15502898729873  0.39564582998300 -1.01010078277828
 6  5.15260368336834  1.18481113041304 -2.27715188048805
 6  6.56951128392839  0.31639348954895 -0.18401488668867
 6  7.75214275217522 -0.34167451435144 -0.95062201270127
 6  8.97379925252525 -0.32675780618062 -0.04987680048005
 6  10.22787341184118 -0.78277534923492 -0.85834680518052
 6  10.20221692189219 -2.25139607570757 -1.18601206620662
 6  11.48750162706271 -0.37592137293729  0.04902577117712
 6  12.83589849754975 -0.62017606870687 -0.68197822072207
 6  14.05157462586259 -0.24929613241324  0.20350741824182
 6  15.50145627052705 -0.30319404850485 -0.58273651345135
 6  15.81526319521952 -1.71862949674967 -0.86873649134913
 6  16.48075218111811  0.47501186118612  0.30792529972997
 6  17.96089067846784  0.67902930133013 -0.29880569516952
 6  18.83137350685069  1.26229444644464  0.71264169716972
 6  20.25459412861286  1.35488582208221  0.13411817501750
 6  20.39535088888889  2.16057435463546 -1.05303629632963
 6  21.14294522532253  1.97656059235924  1.38605396879688
 1 -4.29277076157616  3.75119064046405  1.58301288818882
 1 -10.10942133483348  3.94351518651865 -0.69434482598260
 1 -10.42246553595360 -2.49808914971497 -1.21406805900590
 1 -2.56834329122912 -0.84831314521452  1.88333902510251
 1 -2.22066567176718  1.95343892649265  1.34859550995100
 1 -2.04150860836084  1.07762821572157  3.62117583108311
 1 -3.24220928092809  2.23091714921492  3.71853401880188
 1 -3.66473991669167  0.37421210521052  3.73329574237424
 1 -1.82213469836984 -1.55109506990699 -0.47368127732773
 1 -2.16126779927993  0.23481073147315 -0.80885092469247
 1 -0.38968248564856  0.69869448334834  0.84207460656066
 1 -0.27976577857786 -1.04071858705871  1.26041999719972
 1 -6.05611438683868  6.78501714581458  0.59764547374737
 1 -5.63855084448445  6.33805716881688  2.20382667976798
 1 -4.69868382438244  5.74486565296530  1.08339151475148
 1 -9.45069712221222  6.05903205130513 -0.45612584078408
 1 -9.10656187208721  7.92733347224722  0.60865048684869
 1 -7.89903936973697  7.40827722722272  1.78249663516352
 1 -12.36820092519252  2.93880420642064 -2.28075107980798
 1 -13.37125679487949  1.92513640484048 -1.59602079357936
 1 -12.50755248634863  3.18795745044504 -0.59977122112211
 1 -12.43765854425443 -1.77988743384338 -1.33194814971497
 1 -13.25149386828683 -0.34711144794479 -1.78866439393939
 1 -13.09882623522352 -1.96435112131213 -3.56828671317132
 1 -12.18243180738074 -0.31438597619762 -3.86422991869187
 1 -11.34553083238324 -1.71469633673367 -3.60707932793279
 1 -8.87554715771577 -4.86460720362036 -2.08982224632463
 1 -7.86231559635964 -5.68176818101810 -0.51309092209221
 1 -9.68208809370937 -4.89479450075008 -0.47303912651265
 1 -3.39804049994999 -3.20425367606761 -0.16268153965397
 1 -1.18843701020102 -4.64538097779778  3.31619453475348
 1 -2.56445605420542 -5.39668128572857  3.52618545744575
 1 -1.47635574707471 -6.19695896909691  2.42346629952995
 1  2.77667697179718 -1.53148498439844 -1.48062202720272
 1  2.59586706430643  0.22606688628863 -1.98486163836384
 1  4.14810571617162 -0.88446066126613  0.25936915291529
 1  4.16520548404841  1.17083579397940 -2.71137950765076
 1  5.76844225592559  2.25516577547755 -2.11291775997600
 1  5.85845315291529  0.36863797129713 -2.89460819181918
 1  6.76236829972997  1.38494249424943  0.14593723652365
 1  6.35941006040604 -0.13428146554655  0.73362307900790
 1  7.55078246294629 -1.15391462666267 -1.62805412901290
 1  7.92236467236724  0.38718192629263 -1.64802772637264
 1  8.87760981258126  0.84142202720272  0.14064169636964
 1  8.76612510121012 -0.90739624582458  0.76164402810281
 1  10.18903645504550 -0.31322878517852 -1.75883077257726
 1  9.19034401990199 -2.46442441894189 -1.64879080388039
 1  11.10087264296430 -2.43704048794880 -1.96601084498450
 1  10.48622150815082 -2.80439238123812 -0.20189962966297
 1  11.46340402130213  0.85057728792879  0.15659714721472
 1  11.35360841424142 -0.86510247154715  1.02870349194920
 1  13.16213953285328 -1.59288744994499 -0.97676534413441
 1  13.09479323182318 -0.04000330933093 -1.71304466576658
 1  13.84483592029203  0.74284684068407  0.50662800580058
 1  14.18542129522952 -0.80063966866687  0.98798531503150
 1  15.54092738123812  0.13682316731673 -1.49814417241724
 1  15.84568201110111 -2.30951124322432  0.06314486058606
 1  14.95705875657566 -2.10994336993699 -1.35649306440644
 1  16.76204583398340 -1.80760628552855 -1.41852332183218
 1  16.14307950865086  1.63166099979998  0.57768431273127
 1  16.47203165036504  0.01809263416342  1.23244600580058
 1  18.24470540924093 -0.23872041944194 -0.47701104150415
 1  17.86563362786279  0.89773709260926 -1.54441801760176
 1  18.45047584018402  2.21919607730773  0.77820582588259
 1  18.87630479077908  0.92555673667367  1.88843884418442
 1  20.62355726842684  0.30968711691169  0.22923998799880
 1  20.22489659625962  3.09085264716472 -0.82808640204020
 1  21.49881413351335  2.17085373817382 -1.50282164546455
 1  19.75797970237024  1.74539635043504 -1.90885785478548
 1  21.17555353055306  1.46512462156216  2.16302591979198
 1  22.31329303560356  2.04877610731073  1.04115908220822
 1  20.82350208010801  2.96533661696170  1.82048248874887
=======
12 -7.08025859885989  0.63235198329833 -0.02514482708271
 6 -4.91454607260726 -2.00705188358836  0.51637817051705
 6 -4.77579750865087  2.90013846114611  1.03876024092409
 6 -9.48611334683468  3.17144263976398 -0.33957681738174
 6 -9.51909222292229 -1.73261877287729 -0.86837326642664
 7 -5.08189161376138  0.44148396649665  0.56288670697070
 6 -4.39303901000100 -0.64553437543754  0.75999402260226
 6 -2.94068307370737 -0.35467489318932  1.15433578777878
 6 -2.99312275067507  1.16294896319632  1.55935666636664
 6 -4.37975497039704  1.58626937573757  1.01095812571257
 6 -3.00734581668167  1.32974526262626  3.10687209610961
 6 -1.91179464046405 -0.61474673607361  0.07950190849085
 6 -0.57175459805981 -0.37048139533953  0.51526565586559
 6  0.52371350855086 -0.60393390629063 -0.58989436993699
 8  0.26822806290629 -0.85117052465247 -1.78443477517752
 8  1.79708151865187 -0.44774217061706 -0.17454424332433
 7 -7.13094354225423  2.61591718151815  0.24686338183818
 6 -6.05186446544654  3.41150212601260  0.64786832043204
 6 -6.40502775587559  4.73675796519652  0.73037372457246
 6 -7.77200990799080  4.77459809130913  0.37351574287429
 6 -8.20791506310631  3.55233442874287  0.08298084438444
 6 -5.48900685738574  5.96207867376738  1.07594235473547
 6 -8.61836963456346  5.94760579427943  0.22737972337234
 6 -8.37350124142414  7.22895901450145  0.77921417121712
 7 -9.18597086968697  0.59336219731973 -0.52856689038904
 6 -9.92199845954595  1.81540149324932 -0.60552687678768
 6 -11.23202229882988  1.48563690279028 -1.07659937943794
 6 -11.22115451935193  0.15815117921792 -1.24909362336234
 6 -9.92986866756676 -0.39007098139814 -0.84337935403540
 6 -12.40004882858286  2.41328189918992 -1.16102287708771
 6 -12.46978152445245 -0.70144755485549 -1.58173898239824
 6 -12.47611509990999 -1.20961337253725 -3.08580369896990
 7 -7.23967343564356 -1.39108872247225 -0.10396507350735
 6 -8.33331357115712 -2.18450362246225 -0.49011396659666
 6 -7.88714486008601 -3.64053232073207 -0.42292957025703
 6 -6.52580646474648 -3.59019335633563 -0.04703643554355
 6 -6.18003059945995 -2.16518479977998  0.08586139033903
 6 -8.69253672107211 -4.83466630903090 -0.75117359575958
 6 -5.28175264556456 -4.40453433693369  0.24406727932793
 8 -5.19113795169517 -5.54659914331433  0.28616564726473
 6 -4.20097367676768 -3.32889867966797  0.57464733003300
 6 -3.55451608250825 -3.65988120942094  1.88304867776778
 8 -3.67829943054305 -3.13562029822982  2.94004668576858
 8 -2.68942013571357 -4.67175189758976  1.70552913381338
 6 -2.09704029192919 -5.33121735083508  2.89947488298830
 6  2.82060457215722 -0.63423121772177 -1.30362156255626
 6  4.12868495749575 -0.59202737903790 -0.61013116211621
 6  5.21544502890289  0.17317358275828 -0.92693246594659
 6  5.05478390139014  1.07635028432843 -2.20795496079608
 6  6.46841117391739  0.12607445764576 -0.13589007420742
 6  7.67985552345235 -0.28158850575058 -1.04836178667867
 6  9.02822469506951 -0.21239637003700 -0.23670548334834
 6  10.24572519701970 -0.63088015971597 -0.98241921242124
 6  10.24889158935894 -2.08112904900490 -1.34039750475048
 6  11.53623650055006 -0.44438821962196 -0.03491262266227
 6  12.77388229592959 -0.56082013311331 -0.80998102100210
 6  13.97520698909891 -0.07924912771277 -0.00027295979598
 6  15.45351147604761 -0.26218994809481 -0.46225446524652
 6  15.73562523142314 -1.79218685248525 -0.85478509620962
 6  16.36881098699870  0.46687104710471  0.46815132233223
 6  17.82052664206421  0.66364776317632 -0.11969778437844
 6  18.78483885338534  1.29851806880688  0.82599303230323
 6  20.27888655785578  1.48731906540654  0.30144490769077
 6  20.43308466226623  2.47272556975698 -0.89074006670667
 6  21.15381631243124  1.94652758905891  1.48860422382238
 1 -4.05843732823282  3.62881840324032  1.49726431333133
 1 -10.01050144284429  4.03912474747475 -0.54020941244124
 1 -10.44529781918192 -2.56992633343334 -1.12828948114812
 1 -2.76802325922592 -1.18855716961696  1.96437712891289
 1 -2.09425303050305  1.63977756035604  1.04228487888789
 1 -2.18398285578558  0.92289274217422  3.74098781228123
 1 -3.08592365236524  2.56052010951095  3.46100826622662
 1 -3.61712515521552  0.76350103410341  3.71036344914491
 1 -2.08611109600960 -1.65434539493949 -0.17364127332733
 1 -2.33833550605060  0.00274752515252 -0.59825986558656
 1 -0.55985950335034  0.64432904680468  0.77000739983998
 1 -0.23870167216722 -0.81771628682868  1.49157311251125
 1 -5.53030180558056  6.83393203730373  0.42192790199020
 1 -5.72871986138614  6.31570493359336  2.17266356345635
 1 -4.40124408040804  5.56190735713571  1.11042421802180
 1 -9.45709776227623  6.11988813691369 -0.39625985418542
 1 -9.09420063596360  7.93262400130013  0.63069269106911
 1 -7.58618808460846  7.30062646214621  1.53510189568957
 1 -12.13864796989699  2.97537786378638 -1.96894989968997
 1 -13.35797546674667  1.91213510471047 -1.33854504600460
 1 -12.45873760486049  3.22654130883088 -0.35391663566357
 1 -12.77014179257926 -1.62252169726973 -1.00360531543154
 1 -13.34366308520852 -0.23047978477848 -1.65568109560956
 1 -13.20426677927793 -1.87785247144714 -3.54658454295430
 1 -12.34737830203020 -0.26440097769777 -3.63830732643264
 1 -11.51061734103410 -1.67277214431443 -3.24797341734173
 1 -8.98261786478648 -4.61969271217122 -1.85522878697870
 1 -8.03684304910491 -5.79587959215922 -0.63989360236024
 1 -9.68455834073407 -4.92021704300430 -0.11578340094009
 1 -3.43138383428343 -3.51701495219522 -0.16215148664867
 1 -1.32632079857986 -4.68639507920792  3.22525544084408
 1 -2.81885149374937 -5.39709132673267  3.82085492439244
 1 -1.64102221372137 -6.20262953615362  2.51164511741174
 1  2.63789309340934 -1.69163099899990 -1.86831079607961
 1  2.61971944954495  0.14011829142914 -2.14922807500750
 1  4.47316822242224 -1.21965418061806  0.30578379437944
 1  3.99545850935094  1.35484419481948 -2.21909027872787
 1  5.53995940764076  2.17154741364136 -2.20015648384838
 1  5.31737904550455  0.45956706420642 -3.11946067706771
 1  6.44513657655766  1.00852485248525  0.40945358815882
 1  6.39228334773477 -0.57780581798180  0.67911762846285
 1  7.37744512921292 -1.32195143034303 -1.43932525612561
 1  7.67536997289729  0.27961116921692 -1.77146006960696
 1  9.11308335993599  0.75891377637764  0.31679931213121
 1  8.80113860256026 -0.72704821102110  0.57684554825483
 1  10.47305485688569  0.06820935863586 -1.89805469496950
 1  9.32179716521652 -2.32969094559456 -1.93382930773077
 1  11.21758431413141 -2.44337112101210 -1.69880412431243
 1  10.01997488348835 -2.58896083808381 -0.45716515621562
 1  11.44828250915092  0.63190542074207  0.43837532503250
 1  11.54459751315132 -1.07778373967397  0.86235685728573
 1  13.13637695659566 -1.64008216941694 -1.23353102070207
 1  12.69841359385939 -0.05998530753075 -1.79078243954395
 1  13.82082351905191  1.11903445944594  0.10321766476648
 1  14.04617737083708 -0.55688529322932  1.21577809430943
 1  15.44049733823382  0.18328781378138 -1.33754811281128
 1  15.86513395629563 -2.44399469156916  0.13469201530153
 1  15.10696374707471 -2.10981335693569 -1.52692010711071
 1  16.74392402180218 -1.84629015391539 -1.32246371587159
 1  15.80794599529953  1.58583641734173  0.42269881418142
 1  16.58001244844484  0.01018184308431  1.59457221842184
 1  18.27585852455245 -0.33993054045404 -0.38789212961296
 1  17.77919498399840  1.13287060596060 -1.16553012881288
 1  18.51246203880388  2.30112427012701  1.28871687698770
 1  18.75321248154816  0.59897407840784  1.80924092439244
 1  20.76845175787579  0.43138928712871 -0.04858779477948
 1  20.12775688228823  3.50622418431843 -0.62190578397840
 1  21.34493874597460  2.54501115391539 -1.15855721902190
 1  19.79626353075308  2.28253006380638 -1.77284425342534
 1  21.12032800800080  1.41896000510051  2.49018863606361
 1  22.07112881918192  2.13696492619262  1.13024799109911
 1  20.91444117401740  3.08946903020302  1.74896533703370
>>>>>>> 8e03b5b5abfc0030b3aa597dc0de36371bfbd096

