%nproc=4
%Mem=2GB
# td=(NStates=1) CAM-B3LYP/6-31G(d,p) 

TD

0 1
12 -7.16853742674267  0.57702645074507  0.02078976637664
 6 -4.80790540854085 -2.01166234463446  0.38647518021802
 6 -4.86822675157516  2.82047049434943  1.16527289218922
 6 -9.52561729722972  3.11635713121312 -0.42508536823682
 6 -9.45236555025503 -1.74055956695670 -0.83917034613461
 7 -5.11541496609661  0.42703252135214  0.53124354265427
 6 -4.32515222132213 -0.69706952895290  0.63377140034003
 6 -2.94140314571457 -0.29283870957096  1.20591094529453
 6 -3.04692813121312  1.17065973427343  1.69869059975998
 6 -4.47892488738874  1.52443319211921  1.11095812571257
 6 -3.11463654575458  1.32388467656766  3.27577898679868
 6 -1.88793225422542 -0.55950121152115  0.15881984028403
 6 -0.44480190279028 -0.19750409760976  0.61415554485449
 6  0.55070620782078 -0.49325283818382 -0.44090947144714
 8  0.15192643274327 -0.92154756235624 -1.57935426712671
 8  1.77543935443544 -0.27261465786579 -0.23300008890889
 7 -7.17001744964497  2.61301689148915  0.30654935043504
 6 -6.19695897489749  3.34142511831183  0.78393192679268
 6 -6.50048730183018  4.74024831423142  0.99791047824782
 6 -7.78074078107811  4.85755638713871  0.36587497879788
 6 -8.29025329692969  3.45801499679968  0.08508105440544
 6 -5.65958391509151  5.92801526742674  1.26089084958496
 6 -8.51621941954195  5.96418745244524  0.09458644404440
 6 -8.52486637793779  7.15216133473347  0.76756300610061
 7 -9.13190546314631  0.63259612071207 -0.56520055375538
 6 -9.82325858555856  1.78176812991299 -0.63800012411241
 6 -11.15939503610361  1.39961830093009 -1.04011573107311
 6 -11.24588699259926 -0.00170480638064 -1.16089480348035
 6 -9.87621330203020 -0.41151312561256 -0.83827884398440
 6 -12.21967079077908  2.33361393239324 -1.47502427722772
 6 -12.30953549984999 -0.82234964506451 -1.70362117061706
 6 -12.20218770717072 -1.25141755295530 -3.14808992759276
 7 -7.13189265756576 -1.41411102470247 -0.31601627862786
 6 -8.22999323912391 -2.25079025112511 -0.51043599879988
 6 -7.79643578917892 -3.64009227672767 -0.62203948124813
 6 -6.54798868296830 -3.55188952595260 -0.13619535143514
 6 -6.07202979937994 -2.19030731203120 -0.09310650645064
 6 -8.67848531593159 -4.81155399779978 -0.91352983138314
 6 -5.28208267856786 -4.40461434493449  0.24864773737374
 8 -5.11464030193019 -5.59757424082408  0.19224625532553
 6 -4.09442302170217 -3.36940273007301  0.44924478977898
 6 -3.58184881578158 -3.56837205850585  1.88408878177818
 8 -3.84966656725673 -3.03061979817982  2.86308898999900
 8 -2.65818701240124 -4.65964068646865  1.84372295319532
 6 -2.16125671357136 -5.12792702180218  3.07289222472247
 6  2.78224073577358 -0.61073886848685 -1.17471867226723
 6  4.16104819381938 -0.30663884018402 -0.47733788278828
 6  5.13115660006001  0.45509177457746 -0.94558433113311
 6  5.14274269726973  1.15599824912491 -2.26049021432143
 6  6.52701703450345  0.45175702590259 -0.17532401760176
 6  7.74047158505851 -0.07004735163516 -1.01211816231623
 6  8.90493236583658 -0.09205433583358 -0.17458927172717
 6  10.21924254875488 -0.60078715041504 -0.86445741624162
 6  10.20878757895789 -2.15012594869487 -1.28813227822782
 6  11.48448132503250 -0.26621040184018  0.06539740834083
 6  12.83942885058506 -0.51090514161416 -0.64980500340034
 6  13.97742721112111 -0.15301650445045  0.31402847034703
 6  15.28220434533453 -0.27404113321332 -0.42530076987699
 6  15.67433910281028 -1.66744437823782 -0.97974759245925
 6  16.35342944884489  0.25328968896890  0.46909141634163
 6  17.72567715711571  0.61397279567957 -0.24304011861186
 6  18.82643301280128  1.11037925492549  0.70237067006701
 6  20.26461513071307  1.24984531803180  0.14223898709871
 6  20.29266061986199  2.03673197039704 -1.10359135183518
 6  21.18960989178918  1.90746368266827  1.16085144854485
 1 -4.08729021352135  3.51270679207921  1.59918450535054
 1 -10.31246163886389  3.80644147914791 -0.70592598409841
 1 -10.29061235063506 -2.36643598439844 -0.97111376357636
 1 -2.66292274917492 -0.91388970287029  2.19028972017202
 1 -2.37847145234523  1.82284586718672  1.21407205760576
 1 -2.08853331083108  1.05702615551555  3.68273198669867
 1 -3.46553161316132  2.47900195769577  3.44908707410741
 1 -3.88652209490949  0.85285996999700  3.62917533033303
 1 -2.12418490339034 -1.63428338873887 -0.05616952615262
 1 -1.98523019551955  0.08744599499950 -0.60609064866487
 1 -0.28491200860086  0.79944455835584  1.03133353245325
 1 -0.09351715371537 -0.86290080528053  1.40927488268827
 1 -5.62717149254925  6.77395603970397  0.52661837103710
 1 -5.91333832323232  6.11778514161416  2.44947124422442
 1 -4.59969392539254  5.55130629702970  1.35802897849785
 1 -9.23109516201620  5.95848199629963 -0.74344457265727
 1 -9.10098131403140  7.91615235413541  0.33389301110111
 1 -7.89456892269227  7.24764116361636  1.65472385788579
 1 -11.91356546164617  3.08131845784578 -2.20151315601560
 1 -13.12356202540254  1.81122501370137 -1.88080927242724
 1 -12.57119885098510  2.67136579127913 -0.40277152115212
 1 -12.51271605000500 -1.73770321542154 -0.99445440034003
 1 -13.02724144304430 -0.23884062086209 -1.47984351185119
 1 -12.91124747734774 -2.01557624382438 -3.30066995149515
 1 -12.34062762696270 -0.35064960256026 -3.94440793649365
 1 -11.30135641494149 -1.74091895899590 -3.31510013001300
 1 -9.28380798379838 -4.52797354025403 -1.78521178527853
 1 -7.85335470027003 -5.56991699589959 -1.12983259625963
 1 -9.32801268616862 -5.09762478377838 -0.08165998859886
 1 -3.31261195709571 -3.67256050675068 -0.21723699519952
 1 -1.35711387788779 -4.40877731743174  3.52677559285929
 1 -2.92336194479448 -5.39025064266427  3.79357219611961
 1 -1.47179529102910 -5.83516278947895  2.86747069997000
 1  2.72716202030203 -1.79402123802380 -1.36357032203220
 1  2.62208968656866 -0.18020374077408 -2.14595774797480
 1  4.11282218781878 -0.95484769997000  0.36737995399540
 1  4.17595655915592  1.26362507290729 -2.57522589228923
 1  5.66912232393239  2.14168442734273 -1.90276674487449
 1  5.61559886748675  0.69994110161016 -3.21871060206021
 1  6.82089415231523  1.47035103510351 -0.02513987118712
 1  6.52241636103610 -0.28754679207921  0.82260197689769
 1  7.36743412811281 -1.20916015121512 -1.19729105270527
 1  7.59224166006601  0.58478168626863 -1.91102402600260
 1  9.07152920452045  0.93399128412841  0.25156278847885
 1  8.73457194589459 -0.75078058425843  0.72793065676568
 1  10.16823437483748 -0.21091855415542 -1.85399028852885
 1  9.43261824732473 -2.27520549704971 -2.20818674347435
 1  11.23435599129913 -2.27574435833583 -1.71312555645565
 1  10.21000388638864 -2.64960690269027 -0.50556999669967
 1  11.31948962986299  0.71254348454846  0.37662915041504
 1  11.26531958535854 -0.95138109940994  0.96429705130513
 1  12.89906322522252 -1.60093825502550 -1.05570323792379
 1  12.87651140364036  0.12288297929793 -1.43357671897190
 1  13.99265070177018  0.77516007200720  0.75690303330333
 1  13.64377713081308 -0.78123772847285  1.20598711521152
 1  15.15928921742174  0.39362884788479 -1.34104846284628
 1  15.83608105100510 -2.54240453255326 -0.13423487738774
 1  14.93033608430843 -1.90964333993399 -1.65283269836984
 1  16.63866349574958 -1.45516104100410 -1.50767223672367
 1  15.81698689938994  1.09463729742974  1.05203174747475
 1  16.60279472667267 -0.20871004610461  1.38576133733373
 1  18.07306824552455 -0.22384893229323 -0.73618695909591
 1  17.46740380488049  1.28570588948895 -1.31766534233423
 1  18.79361015361536  2.15651980968097  0.98588659395940
 1  18.82560972127213  0.49495367636764  1.65867586788679
 1  20.70135504820482  0.07330347854785 -0.04506744274427
 1  19.88512261886189  3.05581914381438 -1.03430702410241
 1  21.21770602270227  2.24263091589159 -1.53101446474647
 1  19.81574547894790  1.39430124092409 -1.80579754875488
 1  21.19858583378338  1.60910902000200  2.12836245344534
 1  22.28766047234723  1.92534376407641  0.92795776207621
 1  20.78039776967697  2.83188327162716  1.42435287578758

