%nproc=4
%Mem=3GB
# td=(NStates=1) iop(3/107=0140000000,3/108=0140000000) CAM-B3LYP/6-31G(d,p) 

TD

0 1
12 -7.10135482718272  0.58342672617262  0.14846121612161
 6 -4.90380919741974 -1.96870410101010  0.56772217461746
 6 -4.74241027162716  2.84686340424042  1.08312841804180
 6 -9.41558832333233  3.16369392239224 -0.45117759305931
 6 -9.60600669866987 -1.77737950365037 -0.86497330223022
 7 -5.04278130933093  0.39285537613761  0.62827065106511
 6 -4.30336258355836 -0.73395453865387  0.78037593229323
 6 -2.94584080468047 -0.40276867486749  1.27473314241424
 6 -3.04013724062406  1.03249195079508  1.71528780808081
 6 -4.28154838953895  1.54687933903390  1.13197759165917
 6 -3.02709889068907  1.15229804910491  3.21334664926493
 6 -1.92130786048605 -0.63637962716272  0.11624543484348
 6 -0.45559126832683 -0.48336158415842  0.61191457375738
 6  0.53668559175918 -0.72002862476248 -0.49952974307431
 8  0.05215543234323 -1.03150692839284 -1.58314570767077
 8  1.81193979237924 -0.46302624102410 -0.06926231383138
 7 -7.11538918231823  2.57281049094910  0.43129405350535
 6 -6.01418156195620  3.37700146754675  0.74755063116312
 6 -6.31668657705771  4.78092495609561  0.72230048874887
 6 -7.67521230653065  4.86592839803980  0.26673279967997
 6 -8.12363189068907  3.44743168196820 -0.06255825722572
 6 -5.42626466036604  5.87751722542254  1.14313446864686
 6 -8.47595760376038  6.09949021862186 -0.00064945244524
 6 -8.48788719871987  7.26054520422042  0.72254631393139
 7 -9.14480352145215  0.63301029542954 -0.60613718761876
 6 -9.91982946924692  1.82592591689169 -0.77178999249925
 6 -11.22350630333033  1.46960640514051 -1.15995085478548
 6 -11.32421190839084  0.16007355315532 -1.22606263456346
 6 -9.94005160876088 -0.36318651205120 -0.93388558985899
 6 -12.32638357605761  2.49985522692269 -1.35366481918192
 6 -12.48494228712871 -0.71730785458546 -1.58200753135314
 6 -12.32238414731473 -1.01984217651765 -3.12449310051005
 7 -7.17719068146815 -1.36988182388239 -0.23757643274327
 6 -8.32225655195520 -2.16099464496450 -0.53043462336234
 6 -7.90949298909891 -3.58841939333933 -0.47320762056206
 6 -6.56207399789979 -3.63194617671767 -0.18561064276428
 6 -6.16123985568557 -2.22776073187319 -0.00380854545455
 6 -8.73804614411441 -4.75584168256826 -0.77884126722672
 6 -5.37826328922892 -4.49322288568857  0.13432840694069
 8 -5.18029902220222 -5.66273313031303  0.25508145674567
 6 -4.22449695229523 -3.41805925332533  0.54974329592959
 6 -3.65290946774677 -3.77557550025002  1.90597656615662
 8 -3.90483326672667 -3.26075343324332  2.97974133233323
 8 -2.77118247104710 -4.73613223172317  1.76856589408941
 6 -2.24668362536254 -5.31005621152115  3.03805120552055
 6  2.80617693809381 -0.65442373127313 -1.00851436863686
 6  4.13522440764076 -0.29655492339234 -0.36458902170217
 6  5.10007549884989  0.45208173617362 -0.96272914991499
 6  4.93802752835284  1.11002867816782 -2.27495163016302
 6  6.47347362606261  0.52497311331133 -0.28428895329533
 6  7.64692614521452 -0.04232278027803 -1.10927125582558
 6  8.86759447104710 -0.00737255335534 -0.25376147854785
 6  10.30487594819482 -0.44109577277728 -0.96037175717572
 6  10.09870314691469 -1.76761464136414 -1.45051201720172
 6  11.45791045484548 -0.19746463756376  0.02129416691669
 6  12.86859459495950 -0.37449748324832 -0.71307881298130
 6  14.03201447324732 -0.04633034733473  0.11165757735774
 6  15.38761475247525 -0.16560564416442 -0.52300795329533
 6  15.59959623062306 -1.62303069136914 -1.09707153345335
 6  16.56546353905390  0.32326884418442  0.34539927462746
 6  17.85058264596460  0.72822655225523 -0.32744927192719
 6  18.90695111371137  1.18353643214321  0.74580783748375
 6  20.30698350275027  1.19817925042504  0.34580128612861
 6  20.60094294009401  2.10926823192319 -0.86845154105411
 6  21.25711077807781  1.63262496239624  1.51994593459346
 1 -3.97916828032803  3.71232448384838  1.19121521732173
 1 -9.99159128242824  4.15313758825883 -0.84417894409441
 1 -10.34732915701570 -2.51983751885188 -1.44570238963896
 1 -2.59337662486249 -1.13575377807781  2.10976746744674
 1 -2.14799826612661  1.81283334443444  1.47617126612661
 1 -1.99108219461946  0.94506361276128  3.44138447584758
 1 -3.27149425852585  2.01477069986999  3.58602662486249
 1 -3.64817761826183  0.51748690299030  3.75747743294329
 1 -1.83414853385339 -1.71757242804280 -0.50878888598860
 1 -2.05640200920092 -0.02328470867087 -0.80059679427943
 1 -0.36595202390239  0.50013960126013  0.93617748074807
 1 -0.06346476677668 -1.10801156775678  1.44260771907191
 1 -5.53010718841884  6.80022753475347  0.53535336663666
 1 -5.60222169346935  6.23492637403740  2.18404041654165
 1 -4.39601444604460  5.49607387538754  1.10930166276628
 1 -9.11500175997600  5.91640502250225 -0.73550490319032
 1 -9.18719778347835  8.18261798279828  0.59486926262626
 1 -7.80384831693169  7.38689552595260  1.61472043234323
 1 -11.98348882188219  3.09153830093009 -2.22557838933893
 1 -13.34330162786279  2.05062380478048 -1.69634536273627
 1 -12.33577461016102  3.16862419651965 -0.54480491999200
 1 -12.37692965786579 -1.85286620942094 -1.17882138303830
 1 -13.52543484258426 -0.34037674817482 -1.39856561096110
 1 -13.04931013021302 -1.84733839593959 -3.50030098819882
 1 -12.45231563726372 -0.10751922322232 -3.70947992639264
 1 -11.36952179157916 -1.51702272947295 -3.39216749494949
 1 -9.33226784538454 -4.83565006580658 -1.76539260226023
 1 -8.18074245944594 -5.61222717601760 -0.69701965706571
 1 -9.43417759675968 -4.98248669706971  0.08615634693469
 1 -3.38469598809881 -3.38588519411941 -0.16384412251225
 1 -1.66095948354835 -4.55794800820082  3.60275199279928
 1 -2.99626606390639 -5.84459398429843  3.50394143184318
 1 -1.76173669416942 -6.27222800760076  2.78815217631763
 1  2.76572462726273 -1.66186280908091 -1.33680512921292
 1  2.41674811611161 -0.20448236343634 -1.90644170167017
 1  4.48623911061106 -0.64733314711471  0.55127652785278
 1  3.82552786428643  1.03418896159616 -2.80293077877788
 1  5.11613854605461  2.21578200210021 -1.77468490689069
 1  5.60941050955095  0.67385857675768 -3.22619887678768
 1  6.74483266716672  1.59217919851985 -0.05606599269927
 1  6.27068494059406 -0.07332466916692  0.68221441694169
 1  7.34372649544955 -1.02233290629063 -1.42700745794579
 1  7.67210976947695  0.49725882888289 -2.07769859275928
 1  9.01121716601660  1.07564706220622  0.15529795789579
 1  8.67023014381438 -0.55891424412441  0.58410453385339
 1  10.44253888568857  0.25283143094309 -1.78918407640764
 1  9.35097470657066 -2.10971925542554 -2.28164654655466
 1  10.93425256585659 -2.12126552585258 -2.15432079017902
 1  9.90684288138814 -2.54962907760776 -0.70862825652565
 1  11.35697733933393  0.79069550295029  0.41196896769677
 1  11.42298989448945 -0.85250654825483  0.87585390549055
 1  12.74590254275428 -1.47620503980398 -0.85938821032103
 1  12.77615344524452  0.05661059705971 -1.93113744744474
 1  13.74629604990499  1.09357472077208  0.46332116081608
 1  14.11270958155816 -0.72874925382538  0.98725109910991
 1  15.33728412981298  0.66383978097810 -1.26976824562456
 1  15.63196699349935 -2.23119246044604 -0.29980811631163
 1  14.72203384778478 -1.85320984098410 -1.71553292679268
 1  16.47034531413141 -1.89285018201820 -1.67210372367237
 1  16.22691596509651  1.28908724242424  0.88011392769277
 1  16.76133021082108 -0.56736302110211  0.99545804050405
 1  18.30033677137714 -0.12132864686469 -1.02899309490949
 1  17.81388869846985  1.49716861096110 -1.02969871347135
 1  18.79280833773377  2.04142541054105  1.23623557035704
 1  18.67067302980298  0.49027386688669  1.56699994549455
 1  20.62380221252125  0.26440743834383 -0.12232634043404
 1  20.15901271977198  3.21898267476748 -0.63074525922592
 1  21.54878867966797  2.07394853695369 -1.32585056625663
 1  19.97715611321132  1.85110540074007 -1.87178556295630
 1  21.11035488898890  1.09352499339934  2.39364303310331
 1  22.37002489528953  1.59220969166917  1.46160281388139
 1  20.94788486698670  2.76599271647165  1.99336647334733

