%nproc=4
%Mem=2GB
# td=(NStates=1) CAM-B3LYP/6-31G(d,p) 

TD

0 1
12 -7.10844141714171  0.61030977907791  0.06273396079608
 6 -4.87358197619762 -1.88554973337334  0.48304483718372
 6 -4.73920384928493  2.91061950925093  1.12638900380038
 6 -9.44534927042704  3.17465296079608 -0.46450931063106
 6 -9.52532284598460 -1.71895740674067 -0.79416584568457
 7 -5.14582800740074  0.50598041614161  0.66094651295130
 6 -4.42536224232423 -0.72653247524752  0.77903592679268
 6 -2.99056806220622 -0.45919534523452  1.21387174137414
 6 -3.03927736613661  1.08070073837384  1.64369510021002
 6 -4.44680167506751  1.57579832863286  1.08447547744774
 6 -3.00695577767777  1.20234252235224  3.23697510641064
 6 -1.87648110911091 -0.77878313971397  0.10806476477648
 6 -0.44571199379938 -0.33908825602560  0.43213734303430
 6  0.42845398259826 -0.61856536943694 -0.59783516401640
 8  0.18360960106011 -1.15849125672567 -1.74850118181818
 8  1.72338414891489 -0.38403579998000 -0.32017880678068
 7 -7.14558500640064  2.61045663546355  0.24269296479648
 6 -6.06672595159516  3.33535451125113  0.71114464806481
 6 -6.39209646274627  4.76767105650565  0.82735342254225
 6 -7.78938164516452  4.81440207170717  0.26079447074707
 6 -8.13818809040904  3.42767196249625  0.00693323962396
 6 -5.54526248294829  5.91406387228723  1.25414017451745
 6 -8.56000379797980  5.97363839753975  0.13207019241924
 6 -8.55219911121112  7.21305742434243  0.72142839263926
 7 -9.10450272287229  0.67952081318132 -0.45119915361536
 6 -9.81532779247925  1.76967692079208 -0.67949427352735
 6 -11.23727282388239  1.41320966006601 -1.09113083258326
 6 -11.20246265016502  0.04915027912791 -1.27814652865287
 6 -9.91345702640264 -0.35057703200320 -0.77316233233323
 6 -12.31052987668767  2.36587715871587 -1.15964273907391
 6 -12.32369691599160 -0.74314172427243 -1.66566737523752
 6 -12.29925741414142 -1.30134254545455 -3.20155527412741
 7 -7.21941140944094 -1.38302791639164 -0.18887356435644
 6 -8.26341658145815 -2.23788896099610 -0.53615857105711
 6 -7.79476562216222 -3.60825909340934 -0.57023430073007
 6 -6.47504138823882 -3.56644098109811 -0.14995672757276
 6 -6.17120971737174 -2.13877215851585  0.05595840004000
 6 -8.72244971237124 -4.84889773217322 -0.78454693309331
 6 -5.34517898819882 -4.34915879937994  0.26417929052905
 8 -5.19168800670067 -5.57250173357336  0.25549257995800
 6 -4.16180976037604 -3.35218100790079  0.61993185848585
 6 -3.49493012391239 -3.69719494079408  1.89153952685269
 8 -3.76212781338134 -3.17535427162716  2.95424810591059
 8 -2.70263145684568 -4.73093781618162  1.68400698159816
 6 -2.10560114801480 -5.24063829292929  2.87405234073407
 6  2.72135464716472 -0.47426522112211 -1.33818501890189
 6  4.03526561556156 -0.29722789908991 -0.61236138513851
 6  5.15590907530753  0.39166543194319 -0.97723749644964
 6  5.16810523352335  1.25238788808881 -2.26176034133413
 6  6.48130246304630  0.42065391559156 -0.25130161536154
 6  7.58985652355236 -0.12085243214321 -0.92180913141314
 6  8.91717358995900 -0.16943207360736 -0.16513832663266
 6  10.30379100360036 -0.52112918461846 -0.88766973747375
 6  10.09898659885988 -1.85152608870887 -1.25287875287529
 6  11.41144402130213 -0.28296207700770  0.04307517611761
 6  12.77243215091509 -0.51880593169317 -0.67859788268827
 6  13.94794426282628  0.03483228042804  0.14892195969597
 6  15.36744286918692 -0.19188291739174 -0.45355359515952
 6  15.73858552745275 -1.62072970677068 -0.61764138183818
 6  16.46202030793079  0.53443780378038  0.48427293449345
 6  17.85616020542054  0.50607200560056 -0.10153596819682
 6  18.81665203470347  1.33337155415542  0.73713414641464
 6  20.26357502670267  1.18181851535154  0.23070783398340
 6  20.42519387318732  1.87457575477548 -1.15342633533353
 6  21.21584251505151  1.82713564986499  1.23712907630763
 1 -3.92506399089909  3.54937045844584  1.43538812571257
 1 -10.13675406810681  3.90047088208821 -0.49485487698770
 1 -10.42252554195420 -2.34776411721172 -1.43330998319832
 1 -2.92316877377738 -1.00133844774478  2.25550624182418
 1 -2.08343194839484  1.63725730833083  1.29036968736874
 1 -2.10378483598360  0.73243369626963  3.59899361286129
 1 -3.26687174717472  2.31212527002700  3.55969813521352
 1 -3.90483392609261  0.56202088608861  3.59340175297530
 1 -1.85602808770877 -1.89885984638464 -0.06636054525452
 1 -2.11785345784578 -0.17923067266727 -0.91289132873287
 1 -0.19185270267027  0.58125273917392  0.84411481058106
 1 -0.13714151615162 -0.92030654585459  1.27296125132513
 1 -6.04543331873187  6.99455809990999  1.28103381258126
 1 -5.28829581898190  5.77822118521852  2.51694799189919
 1 -4.55791974797480  5.99613077947795  0.66651982758276
 1 -9.20333238573857  5.81175732383238 -0.62995322352235
 1 -9.30628184408441  7.95517625652565  0.36702632443244
 1 -7.90462992879288  7.31685808530853  1.49729811531153
 1 -12.00256436153615  3.22712303830383 -1.79911291599160
 1 -13.34396406560656  1.87462135333533 -1.60224141564156
 1 -12.40255198629863  3.12809146384638 -0.25626687068707
 1 -12.15414019241924 -1.55739518461846 -0.89246420132013
 1 -13.29981870077008 -0.12735947274727 -1.34909043654365
 1 -13.45972232483248 -1.71448613481348 -3.17702758725873
 1 -12.26456002020202 -0.45269980758076 -3.84172766846685
 1 -11.60815709500950 -1.97957282438244 -3.48241686168617
 1 -9.35374497749775 -4.72508325122512 -1.67810107420742
 1 -8.09398876367637 -5.80791079527953 -0.88668828182818
 1 -9.19219910481048 -4.91987700900090  0.16102427982798
 1 -3.46975767166717 -3.57874112481248 -0.18353362486249
 1 -1.38546671317132 -4.65527196689669  3.32085500080008
 1 -2.98124773337334 -5.30764238183818  3.47778061696170
 1 -1.55639375087509 -6.37789706290629  2.61265521842184
 1  2.84809411351135 -1.55049688558856 -1.58795276027603
 1  2.60834831243124  0.22372665226523 -2.20436358855885
 1  4.09280018561856 -0.89716193139314  0.24862807880788
 1  4.24847381088109  1.48651736213621 -2.79133750345034
 1  5.57609302100210  2.17807806670667 -2.19587605580558
 1  5.78726603420342  0.84168527602760 -2.92284101510151
 1  6.75081714461446  1.46302030203020 -0.00344770197020
 1  6.45747986738674 -0.05477351475148  0.71445116181618
 1  7.24111149584958 -1.07118635383538 -1.18942026562656
 1  7.90654309020902  0.47235044314431 -1.81396432003200
 1  8.97538959055906  1.08571645664566 -0.09341170897090
 1  9.00024851355136 -0.68479398559856  0.86268413211321
 1  10.44020157155716  0.15246778447845 -1.76573146264626
 1  9.42189717521752 -2.02757073357336 -1.93384930973097
 1  11.11242379807981 -2.12275905980598 -1.63629787368737
 1  10.18660154615462 -2.27491943394339  0.00125068536854
 1  11.46455413631363  0.78234046424642  0.57162865036504
 1  11.34830788418842 -1.02467842914291  1.03617423902390
 1  12.93770708960896 -1.62934109530953 -0.79039670727073
 1  12.80686443894389  0.12330302130213 -1.68642200350035
 1  13.95161659835984  1.16611916791679  0.32117946094609
 1  14.13027578067807 -0.38725833053305  1.25094161066107
 1  15.33338662716272  0.55685517051705 -1.34167852585258
 1  15.80103754665467 -2.19456974907491  0.34947349344934
 1  14.97824087478748 -2.34723709930993 -1.25137255235524
 1  16.70156978637864 -1.87477300220022 -1.21520298979898
 1  16.23608880958096  1.67481531523152  0.64039058335834
 1  16.47600204740474 -0.01506068116812  1.34699746094609
 1  18.42811375007501 -0.43321986938694 -0.10939427982798
 1  17.64703176767677  0.70614793369337 -1.22360593639364
 1  18.45179597219722  2.48582273997400  0.62034003930393
 1  19.02220938123812  0.88305248624862  1.80305030533053
 1  20.36381129382938  0.00605675387539  0.32700976497650
 1  20.31802590919092  2.93125668756876 -0.91402499589959
 1  21.37818207030703  1.53284993779378 -1.52111347464746
 1  19.68699260366037  1.63099491029103 -1.88526549554955
 1  21.35182115731573  1.29814792389239  2.13765338253825
 1  22.28329003530353  1.66275750545054  0.67356232253225
 1  21.22282201210121  2.90205028832883  1.43271371187119

