%nproc=4
%Mem=2GB
# td=(NStates=1) CAM-B3LYP/6-31G(d,p) 

TD

0 1
12 -7.15548612161216  0.56906565466547  0.06181386878688
 6 -4.81993661166117 -1.90545172357236  0.59532606530653
 6 -4.77790771967197  2.90078852615262  1.22250861576158
 6 -9.36763149864986  2.95956145164516 -0.37293015271527
 6 -9.45444575827583 -1.78588409940994 -0.98326475557556
 7 -5.12960638523852  0.45329514761476  0.63316373467347
 6 -4.29804951105111 -0.71121094309431  0.77205522872287
 6 -2.92611161656166 -0.31204062976298  1.28393874807481
 6 -2.96659009740974  1.12384505280528  1.78107883858386
 6 -4.34222121702170  1.56084683348335  1.20669769966997
 6 -2.93422850495050  1.22332462056206  3.26262767166717
 6 -1.94638809980998 -0.43685894729473  0.05589954825483
 6 -0.47401482408241 -0.24190853805381  0.48861299059906
 6  0.46011714891489 -0.52382589548955 -0.63179856035604
 8  0.11634287438744 -0.83774918251825 -1.74077040874087
 8  1.70452226272627 -0.33305070147015 -0.15705249414941
 7 -7.08743919181918  2.59152474227423  0.46265496099610
 6 -5.98074735373537  3.33793476927693  0.72134566816682
 6 -6.35592284538454  4.77377166656666  0.72666335353535
 6 -7.68272097909791  4.79560019151915  0.47833622492249
 6 -8.13385765736574  3.40152934823482  0.09360190649065
 6 -5.41461941864186  5.84530699659966  1.07002176267627
 6 -8.52511030863086  5.91255228892889  0.14953193859386
 6 -8.41055494679468  7.21241736033603  0.59794604440444
 7 -9.09977224982498  0.58689155025503 -0.60539457315732
 6 -9.77136339603960  1.78915886898690 -0.67526385048505
 6 -11.12699179577958  1.44863320242024 -1.08672039153915
 6 -11.21696410031003  0.08721408550855 -1.22606132013201
 6 -9.87311299199920 -0.42958493279328 -0.92619763586359
 6 -12.23719254295430  2.39127969896990 -1.36454322912291
 6 -12.43297784408441 -0.85952336243624 -1.67394820332033
 6 -12.22759024742474 -1.11900431163116 -3.17167228582858
 7 -7.15703517181718 -1.43479309290929 -0.19560423742374
 6 -8.21581182098210 -2.34334950705070 -0.54731968716872
 6 -7.78624477007701 -3.60277854535454 -0.64835211251125
 6 -6.45194907900790 -3.47635197219722 -0.08598032993299
 6 -6.17829042544254 -2.24425270657066  0.18125092929293
 6 -8.59088655605560 -4.81679452185219 -1.12293077147715
 6 -5.30243471377138 -4.31297518101810  0.16524939753975
 8 -5.22889172707271 -5.51483596699670  0.21868889958996
 6 -4.22865644504450 -3.31478726852685  0.64398426372637
 6 -3.56058668956896 -3.62939816111611  1.96967734063406
 8 -3.95781738233823 -3.16560329652965  3.04865754685469
 8 -2.68914010771077 -4.58468319071907  1.77873645454545
 6 -2.03975456335634 -5.16884111321132  2.99020395589559
 6  2.75919843154315 -0.60437823242324 -1.19069026942694
 6  4.07964005300530 -0.46750492679268 -0.50266041504150
 6  5.03892737713771  0.36959322472247 -0.96707648034803
 6  5.10069849284928  1.33667631693169 -2.15956012131213
 6  6.41042537533753  0.41306315651565 -0.27284376957696
 6  7.63212074997500 -0.23411375827583 -1.02747969846985
 6  8.96905877847785 -0.17992312271227 -0.17143895669567
 6  10.20501112561256 -0.65184225592559 -0.81278224872487
 6  10.23144984518452 -2.11787272337234 -1.17131059605961
 6  11.43562643954395 -0.26414019481948  0.05758662726273
 6  12.76062096979698 -0.59962401350135 -0.64000402330233
 6  13.91095056345634 -0.21308251105111  0.30723779127913
 6  15.20894701960196 -0.25639936903690 -0.48294653445345
 6  15.65171684058406 -1.64003163696370 -1.08125774347435
 6  16.39195330123012  0.22989734973497  0.47837234443444
 6  17.69010359975998  0.56952835123512 -0.26890270487049
 6  18.64883525302530  1.20476869386939  0.68091852485249
 6  20.14057272647264  1.30535086858686  0.19901466466647
 6  20.32673402720272  2.30290858805881 -1.04056504920492
 6  21.11459239003900  1.96723966026603  1.21787715111511
 1 -4.16415790029003  3.57647316871687  1.54542912981298
 1 -10.08209860256026  3.80976181118112 -0.58864425592559
 1 -10.27620090949095 -2.38828816961696 -1.20532718491849
 1 -2.64727118401840 -0.77324563846385  2.14987567876788
 1 -2.16176978217822  1.82715629822982  1.44233488388839
 1 -1.95551000850085  0.83072352525253  3.68707242074207
 1 -2.98686374637464  2.34083814131413  3.47063922932293
 1 -3.82042548524853  0.76542122612261  3.73750616341634
 1 -1.86631911681168 -1.44769472987299 -0.27447135633563
 1 -2.15160683318332  0.07178442884288 -0.94825486508651
 1 -0.39454297169717  0.63280789468947  0.94490488958896
 1 -0.18907670967097 -0.90527504270427  1.21419537473747
 1 -5.80677945334533  6.74532317641764  0.49405511471147
 1 -5.37950493989399  6.08565192829283  2.22212850995100
 1 -4.59993394939494  5.41394256065607  0.47935111071107
 1 -9.45538759125913  5.79229537763776 -0.59743997219722
 1 -9.16455767166717  7.99674041294129  0.17468709050905
 1 -7.91666113191319  7.73165956545655  1.35528391389139
 1 -12.15493959905991  2.85166549254925 -2.49358236293629
 1 -13.13219288848885  1.72731662286229 -1.47423861536154
 1 -12.54974670577058  3.17983663836384 -0.66077732173217
 1 -12.47106188458846 -1.76320576567657 -1.00672562746275
 1 -13.41342006090609 -0.42243898069807 -1.58628415591559
 1 -13.09043539613961 -1.66068075427543 -3.62091197569757
 1 -12.02749631383138 -0.38191272887289 -3.83665716141614
 1 -11.45235151445145 -1.79559442654265 -3.21413003300330
 1 -8.88712831583158 -5.18463920682068 -2.25654891899190
 1 -8.10943030783078 -5.81968197239724 -0.70738035103510
 1 -9.49825971087109 -4.89231425272527 -0.59179100170017
 1 -3.38335903180318 -3.40073332403240 -0.11949722122212
 1 -1.15901406790679 -4.59036547624762  3.41748466376638
 1 -2.88105771437144 -5.21720333793379  3.67532037093709
 1 -1.51128924042404 -6.27631690489049  2.69692364526453
 1  2.80943024712471 -1.51134297019702 -1.72821678667867
 1  2.58749622722272  0.18320259985999 -2.02659581178118
 1  4.37907881348135 -1.03201541674167  0.35634885088509
 1  4.02781174467447  1.17432614301430 -2.49285765546555
 1  5.37508291999200  2.30291054995500 -1.68894536273627
 1  5.82353966156616  1.10760186768677 -2.85356408740874
 1  6.91974403730373  1.37437143714371 -0.18761611881188
 1  6.37185130453045  0.04631659425943  0.78721843854385
 1  7.51126851155115 -1.36216545174517 -1.30157148074807
 1  7.75293772967297  0.42214542264226 -1.95072799639964
 1  8.95975802740274  0.90347823282328  0.25171280348035
 1  8.75423391209121 -0.78912441864186  0.65489335303530
 1  10.36598414981498 -0.12475993829383 -1.82773766326633
 1  9.33438842434243 -2.40736871337134 -1.84090001480148
 1  11.15608816451645 -2.33771055495550 -1.69921416531653
 1  10.19744263026303 -2.80251219321932 -0.12395183488349
 1  11.52927060796080  0.85523775397540  0.14708619611961
 1  11.24577763116312 -0.69599556085609  0.94092471407141
 1  12.71369468836884 -1.67796595779578 -0.97125479307931
 1  12.77898165066506  0.11495218621862 -1.60087344864486
 1  13.45057649434944  0.86412896889689  0.65934327732773
 1  13.79371212431243 -0.99907951265127  1.18088460496050
 1  15.26452974147415  0.36606609160916 -1.37480183818382
 1  15.37456489938994 -2.56691698379838 -0.37324877877788
 1  15.04338738943894 -1.90668304390439 -1.92528994409441
 1  16.78240787018702 -1.50350587548755 -1.26043751325133
 1  15.90441564226423  1.08936677037704  1.17374391869187
 1  16.56492093929393 -0.45366454155416  1.30301306250625
 1  18.06747768646865 -0.27859440684068 -0.92723606400640
 1  17.25480254475448  1.24697201610161 -1.12952652845285
 1  18.47531832443244  2.31390554825483  0.71925993129313
 1  18.79226638693870  0.65806998799880  1.59888988928893
 1  20.53600851355136  0.35506165436544 -0.01708464446445
 1  19.79429353595359  3.20053361526153 -0.77425101850185
 1  21.17592184428443  2.58389504230423 -1.31493285658566
 1  19.80757466186619  1.94755656645665 -2.03668063706371
 1  21.06601257645764  1.29993810291029  2.07590720792079
 1  22.16590829712971  1.89080030973097  0.76473143944394
 1  21.09038876877688  3.15286536983698  1.47204764526453

