%nproc=4
%Mem=2GB
# td=(NStates=1) CAM-B3LYP/6-31G(d,p) 

TD

0 1
12 -7.14305487848785  0.60987973607361 -0.00886319891989
 6 -4.84107872587259 -1.98605978437844  0.50711724442444
 6 -4.75214514341434  2.80073852115211  1.08519488438844
 6 -9.41641637713771  3.11299679517952 -0.35038789848985
 6 -9.51881219491949 -1.62353786478648 -0.92172860196020
 7 -5.07695111971197  0.40063988208821  0.74083450175017
 6 -4.32516222232223 -0.76594641664166  0.78574659785979
 6 -2.85820482588259 -0.50764018971897  1.19054940914091
 6 -3.05888932733273  1.01595426372637  1.60504123482348
 6 -4.44718171307131  1.44454520332033  1.16194322422242
 6 -2.84538962106211  1.24237652575258  3.12408381728173
 6 -1.79847330833083 -0.66654191559156  0.08576253455346
 6 -0.45309273187319 -0.45999034623462  0.55255938523852
 6  0.55209634683468 -0.73872738563856 -0.52191757225723
 8  0.25120636073607 -1.09995540314031 -1.71908824052405
 8  1.77228903940394 -0.44277167356736 -0.13274006290629
 7 -7.01483193109311  2.62142773257326  0.27097579307931
 6 -6.01096037503750  3.38774975077508  0.65613914751475
 6 -6.31645889898990  4.73687797719772  0.72822350955096
 6 -7.62025473247325  4.88538917041704  0.27727611891189
 6 -8.09166343794380  3.49486868216822  0.03413595989599
 6 -5.32324028072807  5.82500496639664  0.89764452495250
 6 -8.46218401600160  6.13423445714572  0.07054403980398
 6 -8.31188507980798  7.22287840644064  0.90252650245024
 7 -9.14224649724973  0.76245910701070 -0.47402143584358
 6 -10.00110637033703  1.84911486458646 -0.57419374347435
 6 -11.21883097969797  1.49168750785078 -1.06334805430543
 6 -11.25243764766477  0.14112947704770 -1.30699941394139
 6 -9.88627430813081 -0.29399137343734 -0.84635965206521
 6 -12.31821064476448  2.52867343834383 -1.32062883768377
 6 -12.44372891919192 -0.81599901000100 -1.73773458195820
 6 -12.30992848124813 -1.24890730193019 -3.10819593819382
 7 -7.26401586988699 -1.32778239183918 -0.16300097709771
 6 -8.31443168296830 -2.18236340844084 -0.51746670187019
 6 -7.88665481108111 -3.61540980848085 -0.44094137143714
 6 -6.53545742984298 -3.50786512351235 -0.06391812371237
 6 -6.23535613201320 -2.12373065436544  0.13557636183618
 6 -8.70879834723472 -4.75698854125413 -0.73208168656866
 6 -5.32403687398740 -4.42758664216422  0.09483235583558
 8 -5.30609944784478 -5.61773625702570  0.18299533023302
 6 -4.19345292469247 -3.35821161096110  0.57565743104310
 6 -3.61848247914791 -3.79576479777978  1.89966033893389
 8 -3.76721832243224 -3.21925866206621  2.94340702180218
 8 -2.92221341504150 -4.87168189058906  1.74318289918992
 6 -2.33931451935194 -5.44674890399040  2.98016295179518
 6  2.74389690139014 -0.63576137073707 -1.24557575797580
 6  4.17774986398640 -0.48984716101610 -0.62344249324933
 6  5.10842432683268  0.33834009940994 -0.95494526722672
 6  5.25497392039204  1.27264991429143 -2.26423058835884
 6  6.47340167296730  0.40188203840384 -0.14642112731273
 6  7.57433497139714 -0.22815316221622 -0.86485343584358
 6  8.89286115871587 -0.03473860426043 -0.11307312011201
 6  10.17934855935593 -0.53607067876788 -0.74781575207521
 6  10.14917161736174 -1.93230416651665 -1.31148461346135
 6  11.40918379527953 -0.26908068886889  0.11308217681768
 6  12.82903781148115 -0.44479853095310 -0.62097212011201
 6  14.00694016241624 -0.12705390819082  0.22576964446445
 6  15.31640776567657 -0.30407413651365 -0.54721296109611
 6  15.68323999289929 -1.74245187898790 -0.77129674737474
 6  16.36221032693269  0.41213557355736  0.24800930813081
 6  17.83279786918692  0.68495989438944 -0.30524633923392
 6  18.82002237173717  1.36094431143114  0.73627406040604
 6  20.22031070027003  1.44700503400340  0.24356912011201
 6  20.26827818161816  2.29752805000500 -1.01411240394039
 6  21.20101103190319  2.08265120142014  1.27863322672267
 1 -4.06810829532953  3.47216273767377  1.31853644054405
 1 -10.14442483518352  4.01942277727773 -0.39955534703470
 1 -10.21116440584058 -2.55710505130513 -1.32573922612261
 1 -2.64773123002300 -1.09797811171117  2.13516420762076
 1 -2.33654725992599  1.53874745734573  1.24973562396240
 1 -1.92091654915491  0.85493594649465  3.48831254475447
 1 -2.83806886688669  2.27628168566857  3.36826899229923
 1 -3.66869031173117  0.67400208420842  3.54481689448945
 1 -1.97318980388039 -1.58414837523752 -0.45563947314731
 1 -2.00939261176118  0.05399264966497 -0.54978501810181
 1 -0.50078359575958  0.55117973187319  0.98776917601760
 1 -0.25674347634763 -1.13214772997300  1.39601355655566
 1 -5.69096787218722  6.76641528562856  0.53762947214721
 1 -5.29813680308031  6.16559992309231  1.81828812591259
 1 -4.18382233823382  5.70075124152415  0.70067324292429
 1 -9.12401445394540  6.09437558565857 -0.68421865006501
 1 -8.78302951885188  8.12358309720972  0.40894051585159
 1 -7.47418688448845  7.28417481698170  1.62494087958796
 1 -12.11832593769377  3.33744407040704 -1.98606161086109
 1 -13.19927959715971  1.92980687188719 -1.57938913041304
 1 -12.76839857095710  3.13782243694369 -0.54731597559756
 1 -12.49735451385138 -1.43309275437544 -0.95165011991199
 1 -13.16975569446945 -0.42204894169417 -1.22350787828783
 1 -13.21802815541554 -1.93951863806381 -3.33018290279028
 1 -12.16641020522052 -0.23396793439344 -3.69250274597460
 1 -11.49283556285629 -1.72165703280328 -3.37296591659166
 1 -8.98561816481648 -4.64927567046705 -1.83029629372937
 1 -8.07242660746074 -5.73022302650265 -0.42001161416142
 1 -9.57992787768777 -4.46439146044604 -0.00864268686869
 1 -3.52113280918092 -3.58263151385139 -0.40687595909591
 1 -1.56787495399540 -4.80806724642464  3.36727964326433
 1 -2.92731233983398 -6.00011162876288  3.63477631653165
 1 -1.78221633313331 -6.33460273347335  2.49332328522852
 1  2.45446475057506 -1.84895673157316 -1.59439340434043
 1  2.55028250585059  0.03411769136914 -2.06857000920092
 1  4.43854476007601 -1.11523373857386  0.27369058505851
 1  4.20611957545755  1.71302001240124 -2.46393476317632
 1  5.84811022272227  2.24294455335534 -2.00986745494549
 1  5.70789809740974  0.46277738523852 -3.04860359135914
 1  6.76663872677268  1.53974797479748  0.04529717251725
 1  6.07081120052005 -0.09199723712371  0.71725144184418
 1  7.26074345904591 -1.23625286048605 -1.19981130473047
 1  7.80650308620862  0.46362957105711 -1.59320224382438
 1  8.99673172477248  0.84004188918892  0.10445807800780
 1  8.77697618631863 -0.64046955315532  0.71659952365237
 1  10.25809336073607  0.16345888358836 -1.57696258575858
 1  9.44434942044204 -2.14300227672767 -2.13976990179018
 1  10.86328888458846 -2.17191397529753 -1.89552379627963
 1  10.11757464346435 -2.84241618361836 -0.61126056575658
 1  11.17114479537954  0.78284051425143  0.49645113261326
 1  11.41780483388339 -1.09007496879688  1.04128475007501
 1  12.69894321322132 -1.38857701890189 -0.84772243984398
 1  12.75679943244324  0.16674736573657 -1.51651501280128
 1  13.80446188288829  0.89123167916792  0.64659200220022
 1  13.97861061416142 -0.67984758945895  1.11885840234023
 1  15.24553784228423  0.35475496049605 -1.33525788378838
 1  15.87119456235624 -2.38243853595360  0.22272081818182
 1  14.83356640734073 -2.28811118671867 -1.36508392349235
 1  16.44757438683869 -1.82604812971297 -1.22274374387439
 1  15.84829002970297  1.37589542324232  0.46071261556156
 1  16.51471591879188 -0.08909808490849  1.30821358255826
 1  18.26599753845385 -0.34980152755276 -0.58773211361136
 1  17.68297536203621  1.07942526142614 -1.26094967076708
 1  18.52058285088509  2.43431758945895  0.76761476677668
 1  18.95071223152316  0.61847602860286  1.72631263156316
 1  20.58574348704871  0.34812096029603 -0.27385032103210
 1  19.91021512811281  3.44480804270427 -0.87702129552955
 1  21.27969222132213  2.37737439023902 -1.17872923622362
 1  19.87358126252625  1.81953376417642 -2.01278824782478
 1  21.16757273247325  1.59993810291029  2.06301591879188
 1  22.24675638193819  2.20128135783578  0.98795376167617
 1  20.73885361526153  3.09239932323232  1.39813025352535

