%nproc=4
%Mem=2GB
# td=(NStates=1) CAM-B3LYP/6-31G(d,p) 

TD

0 1
12 -7.14777535053505  0.54079282738274  0.17105479287929
 6 -4.84276889488949 -1.97145832423242  0.53780031273127
 6 -4.80900082898290  2.82021046834683  1.20320668556856
 6 -9.39532426792679  3.13761925742574 -0.35711857155716
 6 -9.50609092279228 -1.80367587858786 -0.89510593969397
 7 -5.17678110271027  0.39465928402840  0.74718513681368
 6 -4.42285199129913 -0.72252207420742  0.82585060826083
 6 -2.92410141554155 -0.39946937263726  1.19791014521452
 6 -3.06891032943294  1.03027569586959  1.68606933763376
 6 -4.38869586448645  1.51505225402540  1.12839986988699
 6 -3.05679076117612  1.12389467756776  3.31233264216422
 6 -1.92989645064506 -0.51016627802780  0.06982094039404
 6 -0.50551797439744 -0.44472882008201  0.36630075937594
 6  0.40538167536754 -0.63467698059806 -0.81413679417942
 8  0.19578081818182 -1.08294370197020 -1.91846817851785
 8  1.63476528702870 -0.47822521892189 -0.26848363726373
 7 -7.11585203310331  2.57362295209521  0.36459515501550
 6 -6.01550082908291  3.28407938373837  0.74989852345234
 6 -6.38504575767577  4.73199748914891  0.81340202740274
 6 -7.68305101210121  4.79739037053705  0.28414680598060
 6 -8.21081535313531  3.44606380168017  0.02641518781878
 6 -5.39177713441344  5.83180564646465  1.11232599309931
 6 -8.48949674727473  5.84692572627263 -0.01992500710071
 6 -8.40931482278228  7.10368648724872  0.71244749454946
 7 -9.06940921352135  0.66659952105211 -0.57942197589759
 6 -9.79611587128713  1.82727268036804 -0.68558488258826
 6 -11.13771286788679  1.44856319541954 -1.14000572007201
 6 -11.17150955485548  0.13086845094509 -1.26329504350435
 6 -9.87899358005800 -0.38464043834383 -0.90896591269127
 6 -12.39908873257326  2.43336390739074 -1.31184795959596
 6 -12.32809735603560 -0.65948335843584 -1.77353816231623
 6 -12.22145963436344 -1.15778819001900 -3.35104022262226
 7 -7.27924739303930 -1.40251986558656 -0.19130380738074
 6 -8.31200143994399 -2.26347151925193 -0.52830778597860
 6 -7.79920606620662 -3.55562382988299 -0.48908618591859
 6 -6.47470135423542 -3.61400573757376 -0.03966569846985
 6 -6.25321791819182 -2.17769605090509  0.10403320752075
 6 -8.62595006240624 -4.86683952635264 -0.77253573197320
 6 -5.35224969526953 -4.38127201070107  0.19542241484148
 8 -5.09790862876288 -5.59479396279628  0.26332336303630
 6 -4.15139871927193 -3.28171396119612  0.57587745304530
 6 -3.61508213911391 -3.66908212951295  1.94871524442444
 8 -3.76990859145915 -3.05264200040004  2.97345002610261
 8 -2.69256044974497 -4.69018374077408  1.92756133703370
 6 -2.15600618851885 -5.09906413551355  3.15549048454846
 6  2.70479299099910 -0.57326512111211 -1.22012321272127
 6  4.09506159515952 -0.36538471477148 -0.58197834683468
 6  5.11150463486349  0.40192645804580 -0.93933370607061
 6  5.14818324132413  1.34232688198820 -2.15923008830883
 6  6.40606493929393  0.50979282948295 -0.12601908710871
 6  7.58762630053005  0.01257091019102 -0.91111806230623
 6  8.84132600520052  0.11811668126813 -0.08383019581958
 6  10.11730235473547 -0.37958503020302 -0.85660663116312
 6  10.09367606780678 -1.82663359945995 -1.43642710771077
 6  11.44158703560356 -0.14016779757976 -0.08958809020902
 6  12.77227213491349 -0.47686173727373 -0.58252827572757
 6  13.94653412181218 -0.01346254905491  0.13900096759676
 6  15.28477460236024 -0.15249897899790 -0.57927616741674
 6  15.63575524442444 -1.59024665846585 -1.02882249995000
 6  16.41837594349435  0.39253361336134  0.43689819701970
 6  17.81354594399440  0.53869526792679 -0.15212102670267
 6  18.88128849834984  1.08437665466547  0.74813524652465
 6  20.37687635683568  1.12816314981498  0.23540830403040
 6  20.38842019581958  2.06431472867287 -1.07804879757976
 6  21.32471340214022  1.56088902520252  1.36428179157916
 1 -4.08169965446545  3.53035855725573  1.49296388328833
 1 -10.21304169686969  3.96126696169617 -0.47961335283528
 1 -10.42793608300830 -2.49901924272427 -1.16160281248125
 1 -2.54474093099310 -0.87399571347135  1.96491718291829
 1 -2.13315692089209  1.79513309590959  1.47921857225723
 1 -2.09968442594259  0.83345379827983  3.75570928442844
 1 -3.31533659365937  2.20267432493249  3.72301446684668
 1 -3.64219766246625  0.49949463346335  3.71146355915592
 1 -2.29191167606761 -1.60821078147815 -0.56725063426343
 1 -2.05348702120212  0.14594184458446 -0.75532557215722
 1 -0.36546006340634  0.47785239913991  0.92808320742074
 1 -0.22717051905191 -1.41504601980198  1.06168012321232
 1 -5.47734651005101  6.68783742784278  0.38140384958496
 1 -5.56918390779078  6.35643900700070  2.10603690079008
 1 -4.24549850585058  5.45948711511151  1.05607878347835
 1 -9.48903095559556  5.60544669276928 -0.53732396059606
 1 -9.12537375327533  7.86765750465046  0.37327694949495
 1 -7.65712517831783  7.45412181168117  1.43070145564556
 1 -12.09459356445645  2.94458478447845 -2.27251025572557
 1 -13.23653332253225  1.71034492569257 -1.27732892439244
 1 -12.39738146924693  3.16779543424342 -0.51566281028103
 1 -12.54666944534453 -1.71660110521052 -1.22649760466047
 1 -13.28813753265326 -0.21295803260326 -1.80048557605761
 1 -12.90799715231523 -1.74350903710371 -3.51833171767177
 1 -12.37238080228023 -0.31681621922192 -4.00436393209321
 1 -11.23933021232123 -1.53628849594960 -3.72065068506851
 1 -9.13047265026503 -4.72984372727273 -1.77471073517352
 1 -8.04672403720372 -5.82074207840784 -0.65139475247525
 1 -9.63541342624262 -4.99358437973797 -0.04628645124513
 1 -3.20745144104410 -3.55128837953795 -0.15661093259326
 1 -1.51632979947995 -4.44965140484048  3.70087300260026
 1 -3.03823343194319 -5.73920553815381  3.64932777167717
 1 -1.32316042754275 -5.97881715491549  2.71882583548355
 1  2.87734703880388 -1.69091092699270 -1.49797376237624
 1  2.70732821042104  0.10094437403740 -2.12084523672367
 1  4.30580148574857 -0.71603381858186  0.56790000600060
 1  4.06443540704070  1.48437714811481 -2.64359272897290
 1  5.36143155485549  2.47527778667867 -2.19617608580858
 1  5.75173248084808  0.85511661916192 -2.98889762076208
 1  6.67314937783778  1.54004800480048  0.23069571237124
 1  6.44559867926793 -0.19754779217922  0.65690540724072
 1  7.48057544224422 -1.02035127032703 -1.22932425602560
 1  7.87795023092309  0.66221943004300 -1.58260118371837
 1  9.25191724332433  1.10303818881888  0.24841247344735
 1  8.91007949664967 -0.31390689688969  1.00332819651965
 1  10.03682123352335  0.29848238593859 -1.79805469496950
 1  9.27835282078208 -2.07790576707671 -2.06742266706671
 1  11.01606416211621 -2.26058284218422 -1.55802004590459
 1  9.71929481548155 -2.57335927792779 -0.47354679437944
 1  11.35403308420842  0.80480271047105  0.21603309080908
 1  11.26174922832283 -0.76040200150015  1.03468409000900
 1  12.98686200510051 -1.50649881108111 -1.05970363796380
 1  12.90847459996000 -0.06357566656666 -1.59349271057106
 1  13.91697313401340  0.98654121012101  0.50790813381338
 1  14.14773752685269 -0.47624722942294  1.14325084158416
 1  15.39750303880388  0.68835832083208 -1.49822418041804
 1  15.56404384728473 -2.02234252635263  0.01833037913791
 1  15.05925897659766 -2.02819519511951 -1.72444986008601
 1  16.64543417281728 -1.53438896379638 -1.30462193169317
 1  15.95367056775678  1.36258409210921  0.79200574487449
 1  16.43983843104310 -0.20834000910091  1.52929569076908
 1  18.02147308600860 -0.27723427082708 -0.52430577097710
 1  17.72973003750375  1.08913623252325 -1.08977255305531
 1  18.82580337293729  2.21672583028303  0.89235724102410
 1  18.86673383368337  0.76374055505551  1.81355135543554
 1  20.53643855655566  0.06250239843984 -0.09260219621962
 1  20.08381248784878  3.08772233413341 -0.81433502690269
 1  21.32817706980698  2.33150980378038 -1.37920928422842
 1  19.75044894929493  1.67450926172617 -1.89875684468447
 1  21.21783775897590  1.04573268236824  2.33943356055606
 1  22.36125783208321  1.57747897759776  0.94206917321732
 1  21.03816354625463  2.58907899119912  1.80732117261726

