%nproc=4
%Mem=3GB
# td=(NStates=1) iop(3/107=0140000000,3/108=0140000000) CAM-B3LYP/6-31G(d,p) 

TD

0 1
12 -7.14148884058406  0.57837622112211  0.06079244924492
 6 -4.95708452495250 -2.02987021762176  0.55080048244824
 6 -4.82863889448945  2.79541825972597  1.25758586378638
 6 -9.35950271477148  3.14829238223822 -0.46936941224122
 6 -9.50783688168817 -1.69637140284028 -1.00516732163216
 7 -5.23997102830283  0.36026211681168  0.84885270927093
 6 -4.39416166346635 -0.79906104930493  0.86146404110411
 6 -3.03308952955296 -0.45405380338034  1.28462413151315
 6 -3.11407463436344  1.07750645224522  1.81603788308831
 6 -4.43497373207321  1.42362701380138  1.25008940284028
 6 -3.03082926372637  1.22067488678868  3.29751506610661
 6 -2.01206693639364 -0.54318030723072  0.20696450675068
 6 -0.59898560776078 -0.53754700270027  0.67572095439544
 6  0.47453937713771 -0.78259488138814 -0.44114390449045
 8  0.13060327712771 -1.17730150785078 -1.49596698979898
 8  1.69008760716072 -0.54451438983898 -0.01585697329733
 7 -7.01164880828083  2.62061527142714  0.28873979807981
 6 -5.96319646344635  3.31488525592559  0.79938581468147
 6 -6.34176908530853  4.73094995859586  0.76521478017802
 6 -7.59888467376738  4.89903170837084  0.29877600400040
 6 -8.05918544604461  3.50903784258426 -0.08268026942694
 6 -5.36985901980198  5.82463193689369  1.33233338853885
 6 -8.45788579657966  6.07767803740374  0.20179079157916
 6 -8.45457386738674  7.23606275597560  0.76907096639664
 7 -9.09112815391539  0.64111110551055 -0.76692326622662
 6 -9.90512799909991  1.85831915621562 -0.74547736123612
 6 -11.19055300800080  1.48483792829283 -1.22145700540054
 6 -11.22732221942194  0.11202874867487 -1.50097012531253
 6 -9.92715031863186 -0.36091628502850 -1.02785498679868
 6 -12.17735867356736  2.62520776217622 -1.49935938863886
 6 -12.44390818371837 -0.57509363316332 -1.85604493509351
 6 -12.38183009190919 -1.03421361366137 -3.33074372557256
 7 -7.35131809420942 -1.34864970067007 -0.12843551865187
 6 -8.37294162046205 -2.24761330683068 -0.50880246014601
 6 -7.94903694349435 -3.60033058445845 -0.54872517231723
 6 -6.57856564706471 -3.50337331943194 -0.06047812951295
 6 -6.27214094579458 -2.18801675747575  0.06046788218822
 6 -8.80120245974597 -4.81340743914391 -0.91478486158616
 6 -5.39143460636064 -4.36286985038504  0.31248622272227
 8 -5.35746673897390 -5.62157901490149  0.21664761336134
 6 -4.27465196779678 -3.35372281968197  0.52801112271227
 6 -3.55926010281028 -3.62268021072107  1.89998596709671
 8 -3.74748753215322 -3.07985534343434  2.95118847704771
 8 -2.84836018881888 -4.84525314381438  1.78989802730273
 6 -2.27534649164916 -5.20745595149515  3.03698109850985
 6  2.72318863926393 -0.71269955885589 -0.98733225042504
 6  4.00851173637364 -0.38376364426443 -0.27372993579358
 6  5.03219871117112  0.22463899189919 -0.78968184518452
 6  5.15763948954895  0.93526120142014 -2.09417355235524
 6  6.44782106080608  0.12450306630663 -0.06071659605961
 6  7.67182863546355 -0.28773732173217 -1.03615394409441
 6  8.92497020862086 -0.23343515961596 -0.20976707910791
 6  10.22273773437344 -0.52290395359536 -1.05402112211221
 6  10.24387766436644 -1.93034091399140 -1.43242020802080
 6  11.56791145494549 -0.23467835893589 -0.22663062556256
 6  12.86169390489049 -0.28176821032103 -0.89310681578158
 6  14.07114838663866  0.05333961966197 -0.00331391979198
 6  15.52650864186419 -0.03684276787679 -0.63210886338634
 6  15.76136240724072 -1.45234362266227 -1.03125495179518
 6  16.43143013571357  0.61614813211321  0.31498623332333
 6  17.94567215491549  0.58897262686269 -0.29812633963396
 6  18.90478089668967  1.26235431393139  0.72032528922892
 6  20.47999080348035  1.31926135863586  0.31292799879988
 6  20.71784463026303  2.09562686778678 -1.04537923382338
 6  21.29923499049905  1.90824252415242  1.43113705370537
 1 -4.17442780628063  3.40128337973797  1.70396649244924
 1 -10.07656978027803  3.87551982648265 -0.39913443964396
 1 -10.42976740084008 -2.29114464956496 -1.41186900630063
 1 -2.80953824102410 -1.21540174287429  2.06740323102310
 1 -2.20428389468947  1.61967402850285  1.15905955495549
 1 -2.00950403680368  1.15432453885389  3.64541487888789
 1 -3.33254036313631  2.22193141594159  3.51065908810881
 1 -3.88171097159716  0.56900205450545  3.62572425762576
 1 -2.07136225522552 -1.44135480628063 -0.29759776687669
 1 -2.15113148214822  0.11313893369337 -0.64926166076608
 1 -0.38727415611561  0.40162975027503  1.24678854185419
 1 -0.20850927122712 -1.15478624522452  1.41606506480648
 1 -5.70598477617762  6.70242775477548  0.64950478177818
 1 -5.47749922122212  6.05462834423442  2.27659967246725
 1 -4.39418426302630  5.75061932993299  1.06938767136714
 1 -9.23752401220122  5.86266964896490 -0.68929028172817
 1 -9.12547161086109  7.91861158215822  0.58685846154615
 1 -7.53776170827083  7.35490232663266  1.54487344764476
 1 -11.81549202220222  3.31922106920692 -2.16787261876188
 1 -13.03482077977798  2.13783252565256 -2.13293902210221
 1 -12.38393942664266  3.05520285438544 -0.36551699119912
 1 -12.59126109100910 -1.46876779957996 -1.22274577547755
 1 -13.37540984008401 -0.05734844534453 -1.79531528592859
 1 -13.23401860106011 -1.80856451855185 -3.65950690879088
 1 -12.33409381508151 -0.18860733203320 -4.05339431783178
 1 -11.23695853525352 -1.51120214741474 -3.41056933513351
 1 -8.88406302490249 -4.68382488328833 -1.93435949894989
 1 -8.01589597479748 -5.68971492479248 -0.58834878997900
 1 -9.66672085108511 -4.72701114951495 -0.34890715941594
 1 -3.66813433193319 -3.50047665326533 -0.45087282538254
 1 -1.83334672227223 -4.24109632303230  3.63481519911991
 1 -3.19201563886389 -5.56492601750175  3.52223326102610
 1 -1.59969048954895 -6.05995678047805  2.80977433853385
 1  2.51657971277128 -1.69587621042104 -1.41025247394739
 1  2.59761620292029 -0.20376229142914 -1.87053811131113
 1  4.28698918561856 -1.00662907670767  0.67199860006001
 1  4.24378969046905  1.12316785948595 -2.46515700140014
 1  5.84489142134213  1.87166759065907 -1.90514795319532
 1  5.89813938243824  0.42302349324932 -2.67996425332533
 1  6.39307749164916  1.11777175777578  0.30872048594860
 1  6.37605547764776 -0.36800413711371  0.86681287678768
 1  7.48304042684268 -1.13832450545054 -1.57368212541254
 1  7.63542610111011  0.67000610361036 -1.70744156705671
 1  8.99591563586359  0.67237673517352  0.19034146224622
 1  9.01785490629063 -0.80998935163516  0.74049017241724
 1  10.25756038783878  0.09210535833583 -2.04925008300830
 1  9.58879848894889 -2.11165944944494 -2.35535391729173
 1  11.05605474607461 -2.38633203250325 -1.83735909400940
 1  10.06665886298630 -2.55394950965097 -0.59463685738574
 1  11.25592723432343  1.01106754015402  0.27413518431843
 1  11.66578417391739 -0.87905920352035  0.54276059615962
 1  13.04347229972997 -1.26553397269727 -1.34107637913791
 1  12.93886971687169  0.17818275427543 -1.80654498819882
 1  13.86067748804881  1.01350671397140  0.48884371307131
 1  14.06646495709571 -0.74225060396040  0.81329370337034
 1  15.53372377377738  0.62868626562656 -1.46713798259826
 1  15.77182097889789 -2.25319466066607 -0.26716485198520
 1  15.06545819021902 -1.89548406840684 -1.75777715121512
 1  16.92130040964096 -1.44482537953795 -1.42304881818182
 1  16.03692696619662  1.67731606530653  0.51395731203120
 1  16.34875895369537  0.12792650785079  1.22150064476448
 1  18.33491022872287 -0.33156967096710 -0.77737793339334
 1  18.02466977657766  1.16617551165117 -1.18627437103710
 1  18.52132118901890  2.43303457145715  0.90974292109211
 1  18.61456741924193  0.77374221372137  1.69711295679568
 1  20.61537136943695  0.24165516311631  0.00594648684868
 1  20.12269908840884  3.08652942944294 -1.01250343504350
 1  21.76327012781278  2.16909805190519 -1.59236721792179
 1  19.92590098769877  1.60635092529253 -1.73751213561356
 1  21.30738459195920  1.35381102200220  2.55051872067207
 1  22.41078897169717  1.98668913961396  1.24199085268527
 1  21.06213629212921  2.96979309650965  1.45917305400540

