%nproc=4
%Mem=2GB
# td=(NStates=1) CAM-B3LYP/6-31G(d,p) 

TD

0 1
12 -7.16367694069407  0.61401014911491  0.04127181458146
 6 -4.80176479447945 -1.89579075747575  0.55766229892989
 6 -4.88094802370237  2.89590803810381  1.25675204010401
 6 -9.42818755425542  3.06064155965597 -0.40342320202020
 6 -9.54236455015502 -1.75177068806881 -0.83673010211021
 7 -5.08633205780578  0.52842266036604  0.62292271057106
 6 -4.31455116121612 -0.63845366736674  0.70568859205921
 6 -2.88638764416442 -0.32438186388639  1.14835518971897
 6 -3.09890332873287  1.12669533783378  1.67514824552455
 6 -4.45648264316432  1.61836258505851  1.15264229412941
 6 -2.88140322242224  1.31673396149615  3.16101751065107
 6 -1.83242670367037 -0.51854711611161 -0.02006804850485
 6 -0.44192161476148 -0.35721006820682  0.61416554585459
 6  0.62807394459446 -0.56955046794679 -0.61163654415442
 8  0.28481972207221 -0.77987339493949 -1.74223055475548
 8  1.86471828232823 -0.38355575197520 -0.21210799969997
 7 -7.19342979087909  2.57905349514951  0.33097179267927
 6 -6.11957123612361  3.32456343214321  0.80746428002800
 6 -6.57381463456346  4.69556384578458  0.81058174537454
 6 -7.78511121812181  4.80729136063606  0.40926931823182
 6 -8.26276054765477  3.45907510281028 -0.00251770547055
 6 -5.64486244294429  5.79537200310031  1.13846860736074
 6 -8.63682147974797  6.01950298399840  0.23414039943994
 6 -8.67077096839684  7.21252737133713  0.84014026382638
 7 -9.07557983058306  0.68343120422042 -0.58306233993399
 6 -9.91520778047805  1.82738269136914 -0.67530385448545
 6 -11.24832392899290  1.46446478557856 -1.15378709820982
 6 -11.20086249014902  0.00138550265027 -1.23530224422442
 6 -9.90559624032403 -0.41908388268827 -0.97285230133013
 6 -12.32141096479648  2.32300287128713 -1.35011178597860
 6 -12.34172871917192 -0.81090850095009 -1.76821763026303
 6 -12.07423491189119 -1.18795120632063 -3.22922804140414
 7 -7.29273874217422 -1.40140975457546 -0.03390806780678
 6 -8.28163840364036 -2.27027219931993 -0.53345830103010
 6 -7.79447559315932 -3.59705797329733 -0.52587986528653
 6 -6.49301318541854 -3.54501883888389 -0.05644737663766
 6 -6.19640223662366 -2.20522880418042  0.18964176837684
 6 -8.60343781118112 -4.83411625402540 -0.87074555295530
 6 -5.29442391269127 -4.38074195769577  0.21010388298830
 8 -5.14316315421542 -5.57687217061706  0.22559959065907
 6 -4.13131671107111 -3.26727251705171  0.54310417571757
 6 -3.58321895279528 -3.69749497079708  1.97062743564356
 8 -3.84481608220822 -3.23658039423942  3.05956863796380
 8 -2.68650984468447 -4.57674239663966  1.69941852275228
 6 -2.14813540144014 -5.14907913701370  2.91323625912591
 6  2.85110762246225 -0.57226502110211 -1.26718791919192
 6  4.14671676067607 -0.48340651695170 -0.60258040704070
 6  5.15165865026503  0.25118138353835 -1.00385015771577
 6  5.08170659365937  1.23594624392439 -2.17204136943694
 6  6.43758809160916  0.33107495769577 -0.23626011121112
 6  7.67471500940094 -0.29838018491849 -0.85441239173917
 6  8.96995886848685 -0.13713884428443 -0.16609842264226
 6  10.19928055255525 -0.47441451315131 -0.98559953045305
 6  10.19083578377838 -2.03247418351835 -1.32430589558956
 6  11.43469634653465 -0.18881266206621  0.04148501710171
 6  12.74615952365236 -0.33357740884088 -0.67226724962496
 6  13.89759922832283 -0.13270447324732  0.32320938843884
 6  15.46519264416442 -0.25292902200220 -0.40698893869387
 6  15.61915358425843 -1.65530316411641 -0.68767838553855
 6  16.44940904680468  0.35158951895190  0.52776728392839
 6  17.84659924932493  0.37048844724472 -0.25401121572157
 6  18.92570293979398  1.07132534953495  0.74227466046605
 6  20.34172284148415  1.26130646414641  0.10983574677468
 6  20.26676803060306  2.14892318951895 -1.17971896459646
 6  21.27272820362036  1.93643657995800  1.13212857625763
 1 -4.31595307980798  3.67023254465447  1.52930751765177
 1 -10.22457284998500  3.82770360536054 -0.51304669616962
 1 -10.34438772817282 -2.53036237703770 -1.05856250845084
 1 -2.65015147204720 -0.96687500140014  1.94710540174017
 1 -2.12492609780978  1.72426600920092  1.26796744714471
 1 -1.84725918341834  1.06323677657766  3.41993570707071
 1 -2.98051311131113  2.37981203870387  3.52049421482148
 1 -3.73533697639764  0.91538622262226  3.77750016281628
 1 -2.19511199609961 -1.43210317071707 -0.67865177437744
 1 -2.10934260676068  0.23513076347635 -0.76909694929493
 1 -0.18910242764276  0.65617023092309  1.14455485458546
 1 -0.29853765576558 -1.25143965916592  1.32710666586659
 1 -5.93623239863986  6.67986663076308  0.58947465666567
 1 -5.74062105150515  6.06406977007701  2.07839413651365
 1 -4.76673062906291  5.67253842024202  0.83096627222722
 1 -9.28348040054005  6.05469161726173 -0.68655888408841
 1 -9.31261247714771  7.92866360526053  0.39961958375838
 1 -8.00418988478848  7.27607400690069  1.59851823732373
 1 -12.06732083718372  2.99261958795880 -2.25956896159616
 1 -13.47775744494449  2.00297418861886 -1.58161935343534
 1 -12.17259899099910  3.19685834053405 -0.56427767176718
 1 -12.54566934533453 -1.66096554165417 -1.16798175307531
 1 -13.34098281718172 -0.22835957275728 -1.84271979947995
 1 -12.89830618321832 -1.82117680388039 -3.61202108660866
 1 -12.17673123732373 -0.36369090669067 -3.85619911561156
 1 -11.27936421572157 -2.07155202230223 -3.47552617261726
 1 -9.05780538353835 -4.73510425332533 -1.77569083318332
 1 -8.08366773157316 -5.69390939513951 -0.40205981898190
 1 -9.62808269316932 -4.67453247454745 -0.25852767536754
 1 -3.27947864376438 -3.15006825752575  0.01775650415041
 1 -1.68161632813281 -4.37666410611061  3.55123803910391
 1 -2.84280388898890 -5.47944956255626  3.55926876577658
 1 -1.70464857635764 -6.00485975917592  2.38568252115212
 1  2.69279858395840 -1.49359119501950 -1.66776074107411
 1  2.61760923852385  0.05878015761576 -2.10924407660766
 1  4.18708961456146 -1.26865908110811  0.16666988298830
 1  4.04313327682768  1.31353006340634 -2.79716808650865
 1  5.42981839353935  2.20568082698270 -1.92603907210721
 1  5.68690599819982  0.81037214471447 -3.08092682368237
 1  6.38959102200220  1.35185918591859  0.06629927272727
 1  6.35865998539854 -0.29315735313531  0.72098181488149
 1  7.48996638133813 -1.36174540974097 -0.91297262086209
 1  7.80449288518852  0.16578978707871 -1.85840876447645
 1  8.94613666526653  0.87952583758376  0.20414804700470
 1  8.73652214091409 -0.87638314451445  0.60497836153615
 1  10.19179673107311  0.01400393809381 -1.80899578907891
 1  9.38221320682068 -2.37652562906291 -1.81977790259026
 1  10.91700425612561 -2.44277106100610 -1.86410065396540
 1  10.23288617461746 -2.56510845284528 -0.27609704940494
 1  11.36645432633263  0.73223545374537  0.37268875637564
 1  11.08631168456846 -0.86757271857186  0.91627224882488
 1  12.76285960486049 -1.46213437463746 -0.97953562116212
 1  12.85793954645465  0.15421611261126 -1.47265062636264
 1  13.53358479517952  0.79231178717872  0.69656699969997
 1  14.02331508460846 -0.62726233093309  1.28477499399940
 1  15.22313560206021  0.35004448944894 -1.21823618161816
 1  15.68745618851885 -2.34899519161916  0.01189973607361
 1  15.15146819751975 -2.17361973757376 -1.42626004110411
 1  16.58391802120212 -1.78308383328333 -0.95555702520252
 1  16.10922612331233  1.39743757745775  0.75515205950595
 1  16.49493394059406 -0.17210638573857  1.50532329352935
 1  18.27017795649565 -0.63873042044204 -0.45013835423542
 1  17.76130319481948  1.13160047894790 -1.35362893869387
 1  18.46957775037504  2.03651780948095  1.12801080638064
 1  19.11455861616162  0.37693187418742  1.63948394869487
 1  20.61304621732173  0.25818196639664 -0.17351028702870
 1  19.95756986358636  3.12127568946895 -0.93996759015902
 1  21.27151140324032  2.17222387518752 -1.71844320762076
 1  19.60291419581958  1.72913472427243 -1.81463843284328
 1  21.33625960116012  1.26045415451545  1.99289890709071
 1  22.31525323162316  2.26308753845385  0.74339930623062
 1  20.89305903580358  2.93337342064206  1.71642208270827

