%nproc=4
%Mem=2GB
# td=(NStates=1) CAM-B3LYP/6-31G(d,p) 

TD

0 1
12 -7.18072864586459  0.65069381748175  0.08151583898390
 6 -4.82576719471947 -1.90590176857686  0.44808134083408
 6 -4.76052598149815  2.88970741804180  1.10556692159216
 6 -9.31317605310531  3.11399689518952 -0.35590845054505
 6 -9.56903721742174 -1.81250676167617 -0.79741617071707
 7 -5.15772919751975  0.46591640974097  0.75406582488249
 6 -4.39694940104010 -0.65355517751775  0.82132015521552
 6 -2.91816082148215 -0.45713513921392  1.10025037923792
 6 -3.06442988138814  1.03522619091909  1.65697642834283
 6 -4.44875187008701  1.58186893569357  1.19722675257526
 6 -2.99695477757776  1.16874916301630  3.12013342224222
 6 -1.90533399439944 -0.63879914131413 -0.04865090679068
 6 -0.49214663726373 -0.52827717491749  0.46282041134113
 6  0.50720185738574 -0.77925143804380 -0.76851223172317
 8  0.22408364846485 -1.10538594619462 -1.81044737643764
 8  1.73142495299530 -0.53864126052605 -0.40097688658866
 7 -7.04007445534554  2.68174376417642  0.30781947744774
 6 -5.96377565656566  3.36795777157716  0.70020355395540
 6 -6.30592784588459  4.81922621202120  0.68813950115011
 6 -7.61953466046605  4.79835046654665  0.30787917921792
 6 -8.02966723832383  3.45049424472447  0.03125567186719
 6 -5.40571852855286  5.98157062296230  1.08567332783278
 6 -8.48382618021802  6.10348138183818  0.05581256665667
 6 -8.41592548384839  7.15003112171217  0.78323457325733
 7 -9.09955222782278  0.67583044414441 -0.41115514921492
 6 -9.81494775447545  1.80103005610561 -0.69434575867587
 6 -11.10919001560156  1.53347168626863 -1.11114283378338
 6 -11.21769417331733  0.10956632073207 -1.24620333433343
 6 -9.93235891659166 -0.39182115641564 -0.74241925802580
 6 -12.20506933063306  2.48868943994399 -1.36042281708171
 6 -12.41307585388539 -0.65256266636664 -1.77101791029103
 6 -12.41836932533253 -1.04491690289029 -3.21817693629363
 7 -7.27758722702270 -1.38700831443144 -0.04141881888189
 6 -8.28309854965497 -2.26883205530553 -0.45493044824482
 6 -7.83870001560156 -3.64758302580258 -0.38087536483648
 6 -6.55582946704671 -3.55627996499650 -0.02619435133513
 6 -6.17571016741674 -2.17561584288429  0.11987479167917
 6 -8.64914238163816 -4.86454929732973 -0.77372585098510
 6 -5.28182265256526 -4.39520340384038  0.28839171177118
 8 -5.22897173507351 -5.62398688208821  0.12121915261526
 6 -4.14954853425343 -3.32494828462846  0.51166103140314
 6 -3.61782241314131 -3.67994321562156  1.88782915581558
 8 -3.75102670327033 -3.02208894509451  2.89867254835484
 8 -2.67560875457546 -4.70652537493749  1.77758633953395
 6 -2.29665025292529 -5.44084831393139  2.87960289578958
 6  2.77077958965897 -0.68545634023402 -1.32274347474747
 6  4.11063315231523 -0.56490466676668 -0.51687183618362
 6  5.11875535993599  0.30068633403340 -0.86487626032603
 6  5.10637906090609  1.07905055435544 -2.09996416171617
 6  6.39915424822482  0.29862171237124 -0.08975546074607
 6  7.62534007190719 -0.15904625152515 -0.83034998549855
 6  8.86577845044505 -0.01505663606361  0.03011119831983
 6  10.18534915941594 -0.59884695639564 -0.81873284378438
 6  10.02023872407241 -2.06719765586559 -1.32023548854885
 6  11.50834371127113 -0.39712349314931  0.16754762336234
 6  12.77716262396240 -0.44632868396840 -0.63969399229923
 6  14.00992046044604 -0.09980118291829  0.27409447694769
 6  15.27689381428143 -0.17256098519852 -0.49757799759976
 6  15.70821249014901 -1.52739037283728 -0.99874949264927
 6  16.40864497039704  0.44136849684968  0.43364787198720
 6  17.84207879727973  0.56992839123912 -0.20717653225323
 6  18.72667303680368  1.42218043504350  0.70487092009201
 6  20.21118978817882  1.40994132763276  0.16946170937094
 6  20.35590694449445  2.24601289848985 -1.09015000770077
 6  21.17024795559556  2.08026096239624  1.27001236463646
 1 -4.08237972247225  3.57942346374637  1.55147973487349
 1 -10.07686807950795  3.90034086908691 -0.62179757125713
 1 -10.31519480888089 -2.43394273507351 -1.16042269446945
 1 -2.71456791369137 -0.98410672457246  2.11251194239424
 1 -2.12514611981198  1.72944652725273  1.31833248364836
 1 -2.00658511601160  0.81267172007201  3.55306902040204
 1 -2.95942100210021  2.20555461296130  3.48641080648065
 1 -3.72592603530353  0.64068875287529  3.62060447324733
 1 -1.94910739563956 -1.70883084348435 -0.47411132033203
 1 -2.06957863036304  0.11530878127813 -0.84230427002700
 1 -0.43860737813781  0.33711832573257  0.99459985908591
 1 -0.26828463046305 -1.31821633683368  1.20006396159616
 1 -5.62206098149815  6.77222586668667  0.59528523772377
 1 -5.57297428682868  6.01589495259526  2.25108140524052
 1 -4.36940089608961  5.71690285668567  0.77449062466247
 1 -9.03766581908191  6.04545069316932 -1.06220644884488
 1 -9.02074329022902  8.14766550545055  0.36147576937694
 1 -7.83693315911591  7.09059545904590  1.69021740724072
 1 -11.82426653175318  3.20558088408841 -2.05167817251725
 1 -13.24378404760476  2.07906179737974 -1.67461865336534
 1 -12.52121385248525  3.17340599529953 -0.40167141114111
 1 -12.36382116051605 -1.65958540364036 -1.35831078597860
 1 -13.37551627052705 -0.09788652545255 -1.51325685318532
 1 -13.12440879347935 -1.86389107530753 -3.52587247174717
 1 -12.44779834403440 -0.17904244184418 -3.83313680938094
 1 -11.45832211151115 -1.41371623872387 -3.37822644264426
 1 -9.26778638163816 -4.78225896879688 -1.82879614371437
 1 -7.85136450125013 -5.78094809900990 -0.59506911991199
 1 -9.67877776267627 -5.03279830113011 -0.23139496209621
 1 -3.35893658955896 -3.58035128582858 -0.31537680918092
 1 -1.55380354685469 -4.71721816151615  3.61626454175418
 1 -3.30968057665767 -5.66566818441844  3.33962680158016
 1 -1.64208231973197 -6.20418969216922  2.54061801470147
 1  2.60424972907291 -1.68906074197420 -1.90444440944094
 1  2.70921839943994  0.14450873047305 -1.88657180938094
 1  4.37567847344735 -1.33333554875487  0.25589880588059
 1  4.14747371087109  0.98422713311331 -2.74785315501550
 1  5.47395280698070  2.20133039193919 -1.75312178037804
 1  6.03194050165017  0.74845595309531 -2.81518024902490
 1  6.46989905280528  1.33637763776378  0.27485012781278
 1  6.31989610901090 -0.51476951435144  0.72225194189419
 1  7.28197558225823 -1.24136337153715 -1.04932625622562
 1  7.77766020192019  0.30959416751675 -1.81414433803380
 1  9.14769682128213  0.95468335333533  0.45811344354435
 1  8.71520000870087 -0.77631313751375  0.78547641134113
 1  10.39053660506051 -0.12684014631463 -1.68993388288829
 1  9.30074506000600 -2.15038301480148 -2.16211213601360
 1  11.13859641534154 -2.23837062096210 -1.77233147704770
 1  9.93429631563156 -2.61735367736774 -0.31356079577958
 1  11.33645132603260  0.53914614481448  0.72238372587259
 1  11.54421747514752 -1.18281424272427  1.04660528212821
 1  12.67056037493749 -1.49788794999500 -1.22816048364836
 1  12.73515726822682  0.11185187618762 -1.57207056835684
 1  13.65584702140214  0.98792134813481  0.72117946094609
 1  14.19105185828583 -0.76739634433443  1.19015553205321
 1  15.24944823332333  0.59452893789379 -1.32233659165917
 1  15.88620606350635 -2.14987527962796 -0.03025447934793
 1  15.03337638833883 -2.13454583018302 -1.51972938803880
 1  16.73005263466347 -1.35001052595260 -1.52455392489249
 1  16.10916611731173  1.49703753745375  0.74227077137714
 1  16.31524597179718 -0.18453762886289  1.30076283748375
 1  18.12853379207921 -0.47228377577758 -0.24727806820682
 1  17.73623068756876  1.07146446534653 -1.33048662446245
 1  18.31412220482048  2.34243840154015  0.84144214951495
 1  18.67345450575058  0.97394157515752  1.63183318361836
 1  20.72518743144315  0.33589973817382 -0.17037997399740
 1  20.16524063066306  3.20483404530453 -0.68674226762676
 1  21.38130238233823  2.21751840464046 -1.43706506980698
 1  19.63204710911091  2.04275608640864 -2.03303027202720
 1  21.31720769596960  1.25199330843084  2.08046766396640
 1  22.10237194349435  2.36376760646065  0.68252321862186
 1  20.57568729862987  2.91731181448145  1.76962740324032

