%nproc=4
%Mem=2GB
# td=(NStates=1) CAM-B3LYP/6-31G(d,p) 

TD

0 1
<<<<<<< HEAD
12 -7.14964553755375  0.60631938003800  0.08560624802480
 6 -4.81357597559756 -1.94348552695270  0.50688722142214
 6 -4.86943687258726  2.76597504480448  1.14547091199120
 6 -9.34779951545154  3.15307080258026 -0.41576443614361
 6 -9.55145545924593 -1.74220973197320 -0.87555398449845
 7 -5.12297572217222  0.43552337043704  0.64240465876588
 6 -4.31922162826283 -0.61338116011601  0.75911393459346
 6 -2.85818482388239 -0.32311173687369  1.20640099429943
 6 -2.98028146654665  1.04496716501650  1.55690642134213
 6 -4.40364735963596  1.52054280308031  1.11922895279528
 6 -2.86516159825983  1.20690297839784  3.12281369026903
 6 -1.89999346034603 -0.73793905530553  0.06543050135014
 6 -0.44006142874287 -0.71056540374037  0.51123525282528
 6  0.57457859505951 -0.81356486938694 -0.61778715921592
 8  0.27523876397640 -1.02657806540654 -1.72317864956496
 8  1.75802761326133 -0.66726412281228 -0.10181697059706
 7 -7.11952240014001  2.58846443624362  0.33089178467847
 6 -6.08454773377338  3.26683765956596  0.70819435303530
 6 -6.40481773487349  4.69430371977198  0.63808449564957
 6 -7.74545725272527  4.92101273277328  0.29444783608361
 6 -8.08961323292329  3.49325852115212  0.01011355765577
 6 -5.44155211191119  5.83453591949195  1.02666742724272
 6 -8.56114391199120  6.06481751545155  0.08780576597660
 6 -8.30812470377038  7.35421153975398  0.71706795659566
 7 -9.08783105570557  0.70097295839584 -0.48525255895590
 6 -9.83495975567557  1.82944289738974 -0.60584690879088
 6 -11.17123622022202  1.48954729382938 -0.93065478497850
 6 -11.25067747164716  0.12013737783778 -1.16685539953995
 6 -9.88758443914391 -0.37688966326633 -0.87546256235624
 6 -12.32796161986199  2.42333290429043 -1.45289206400640
 6 -12.46979152545255 -0.73888129822982 -1.57278808730873
 6 -12.52807029542954 -1.09785219641964 -3.04403952255226
 7 -7.19932940124012 -1.35854546814681 -0.18743342034203
 6 -8.27424766456646 -2.20105527762776 -0.45132008720872
 6 -7.84257040264026 -3.60575884338434 -0.42962023932393
 6 -6.52663654775478 -3.57205154215422 -0.03017474937494
 6 -6.10403299969997 -2.19279756105611  0.07637044124412
 6 -8.71736920432043 -4.87179002140214 -0.76621509990999
 6 -5.37804227452745 -4.30828471197120  0.20171304390439
 8 -5.20773961186119 -5.54454893829383  0.30411744244424
 6 -4.19232281168117 -3.29219500930093  0.53678354365437
 6 -3.50878150905091 -3.63631885318532  1.82577295019502
 8 -3.67951955255526 -3.16467320352035  2.90041272237224
 8 -2.65628682238224 -4.71009573197320  1.61249983088309
 6 -2.20473106100610 -5.24155838493849  2.86986192169217
 6  2.80294280598060 -0.71948974357436 -1.18724992539254
 6  4.12924501350135 -0.48881705800580 -0.58390853985399
 6  5.09613309770977  0.42890915631563 -0.84340411311131
 6  5.00648907190719  1.27590023932393 -2.17341150645064
 6  6.36042037483748  0.44742659285929 -0.11743822902290
 6  7.59536707460746 -0.21164151105110 -1.01477842834283
 6  8.84248612121212 -0.14696982738274 -0.25762757555756
 6  10.21039166366637 -0.50138721042104 -0.83605457595760
 6  10.11550825102510 -1.89525046114611 -1.41994545954595
 6  11.45038791569157 -0.24517829862986 -0.00118925032503
 6  12.81949685738574 -0.59446349744974 -0.66123614651465
 6  13.93396286468647 -0.15049625242524  0.17392445994599
 6  15.32551867676768 -0.13436716581658 -0.50879911971197
 6  15.74868653755376 -1.59648728252825 -0.95037465516552
 6  16.43804791069107  0.54892925292529  0.40043455065507
 6  17.80607519691969  0.65863726212621 -0.25020083468347
 6  18.76520689018902  1.21432964996500  0.80926135913591
 6  20.24940360956095  1.27418775227523  0.39384414761476
 6  20.36949830363036  2.17979627682768 -0.97303829652965
 6  21.07192812361236  1.91380431673167  1.36048141154115
 1 -4.29768125262526  3.70697621902190  1.68115270217022
 1 -10.14881527422742  3.86696753175318 -0.56191158265827
 1 -10.23947723712371 -2.40941028182818 -1.36683333553355
 1 -2.65403186008601 -0.88057637153715  2.13762445364536
 1 -2.17770137533753  1.64625820842084  1.20643129352935
 1 -1.91914637213721  0.69631008390839  3.44411812531253
 1 -2.82331739173917  2.22661671917192  3.24659682508251
 1 -3.70003344604460  0.55311999599960  3.56695910871087
 1 -2.23460594549455 -1.46983694409441 -0.63181709090909
 1 -1.91363303580358  0.31245849624962 -0.69240928052805
 1 -0.26740025742574  0.22939755365537  1.10916131523152
 1 -0.25606340834083 -1.52352686788679  1.25414937013701
 1 -5.95216399179918  6.65391403550355  0.44266997619762
 1 -5.37943493289329  6.01215457855786  2.10607690479048
 1 -4.36017997399740  5.58192935933593  0.65163833943394
 1 -9.32341439393939  5.97081322942294 -0.63849407760776
 1 -8.94054527042704  8.24263500240024  0.36945656745675
 1 -7.63175264106411  7.38480487998800  1.44015240074007
 1 -11.86796090119012  3.19602992899290 -2.33491649634963
 1 -13.04675434463446  1.87218110931093 -1.81947313881388
 1 -12.71181291239124  3.14090274497450 -0.68895013901390
 1 -12.54787956635664 -1.71200064516452 -0.87527248214821
 1 -13.31461017991799 -0.03730046684668 -1.51464699219922
 1 -13.52990934353435 -1.47381206740674 -3.30659054355436
 1 -12.36614017821782 -0.19555409300930 -3.60606410211021
 1 -11.86340261956196 -1.83357822492249 -3.34138275827583
 1 -9.16333593659366 -4.85282602550255 -1.76580984508451
 1 -7.86363572837284 -5.63288329252925 -0.75391500450045
 1 -9.48911879677968 -5.22062708400840 -0.07480930353035
 1 -3.51561225712571 -3.42804605530553 -0.33011828332833
 1 -1.59302746924692 -4.40016645634563  3.38923183848385
 1 -2.95945555415542 -5.71077269486949  3.58787162606261
 1 -1.32042015351535 -6.05223449664966  2.69426337923792
 1  2.70383968806881 -1.83635547144714 -1.44959892489249
 1  2.39272675027503 -0.01522724312431 -1.93137628982898
 1  4.46507741334133 -1.13059527472747  0.28806202220222
 1  3.75776473997400  1.71247995839584 -2.35054342404240
 1  5.30375578727873  2.30041029992999 -2.14005047324732
 1  5.48850615821582  0.87073818131813 -3.06767549854986
 1  6.72545460836084  1.56946094609461  0.16794943774377
 1  6.19507362676268 -0.06645468286829  0.79869958665867
 1  7.30034741944194 -1.20506974217422 -1.38719004260426
 1  7.45727816371637  0.35501870997100 -1.99570249384939
 1  8.80620267186718  0.92258014301430  0.03576120832083
 1  8.81377986668667 -0.63344885108511  0.66641450515051
 1  10.27379493089309  0.35587812551255 -1.75681057055706
 1  9.31175616111611 -1.98288626512651 -1.95661158595860
 1  11.01055361106111 -1.97739452335233 -1.97037128102810
 1  10.27545043104310 -2.54574651665166 -0.58385782548255
 1  11.46041372227223  1.02765499569957  0.22968445594559
 1  11.28910196359636 -0.72658862016202  0.84648527012701
 1  12.85602892179218 -1.68845700690069 -0.77384505210521
 1  12.88726247874787 -0.23571288028803 -1.77812117341734
 1  13.60284172087209  0.97663021902190  0.49410675367537
 1  13.91032378547855 -0.69689929462946  1.16808332483248
 1  15.25628891739174  0.64285377037704 -1.34590894889489
 1  15.68093553645365 -2.28343863596360 -0.05696715061506
 1  14.82508555925592 -2.01411378697870 -1.63395081018102
 1  16.67374700410041 -1.66255178007801 -1.57843931343134
 1  16.07406260696069  1.62059989368937  0.57786433073307
 1  16.39433388058806 -0.06314548964897  1.28526128732873
 1  18.16031697039704 -0.33948049544954 -0.46028936933693
 1  18.02353941844185  1.08352567146715 -1.29339291509151
 1  18.45040583318332  2.32224638233823  1.17449545484549
 1  18.59807696799680  0.69549373037304  1.74750475077508
 1  20.52882779547955  0.32142829102910  0.15383244724472
 1  19.88017212381238  3.15902946484648 -0.64404799819982
 1  21.36041029312931  2.40132678547855 -1.19949131243124
 1  19.89437334173417  1.82908471927193 -1.95314228322832
 1  20.99353532873287  1.41622973207321  2.39832945014501
 1  22.11222292859286  1.64451568126813  1.20411537783778
 1  21.04324405430543  2.93922400570057  1.54873531403140
=======
12 -7.17886845984598  0.64037278537854 -0.00539285188519
 6 -4.85664028202820 -1.99720089848985  0.52702923562356
 6 -4.88076800570057  2.87064551185119  1.11603796869687
 6 -9.36512124762476  3.12108760426043 -0.33544640434043
 6 -9.44922523622362 -1.67051256225623 -1.00846727582758
 7 -5.13846727132713  0.38341815991599  0.63727414571457
 6 -4.36069577567757 -0.67739756175618  0.74944296749675
 6 -2.88467747314731 -0.40077950365036  1.15482583678368
 6 -3.09675311371137  1.09063173147315  1.55701643234323
 6 -4.49680667556756  1.52335308410841  1.11475850575058
 6 -2.99157423952395  1.27370965906591  3.04544595349535
 6 -1.88512197319732 -0.47726298769877 -0.15039108080808
 6 -0.45860328292829 -0.35672001920192  0.39904403370337
 6  0.55049618681868 -0.64052756565657 -0.65429080958096
 8  0.33981522162216 -0.93980938853885 -1.87344367606761
 8  1.82067387788779 -0.51503890029003 -0.06930371927193
 7 -7.13079352725273  2.66296188598860  0.33009170467047
 6 -6.04564384338434  3.37807878367837  0.73488702230223
 6 -6.42716997009701  4.79380366976698  0.81719240644064
 6 -7.80501320832083  4.84520515201520  0.36557494879488
 6 -8.18410268186819  3.48297749304931  0.06970951725173
 6 -5.51380933763376  5.90301276717672  1.30505526602660
 6 -8.60678847644764  5.95139617331733  0.08344532993299
 6 -8.60113400470047  7.01822794139414  0.97614386418642
 7 -9.11571384398440  0.66156901800180 -0.58265229892989
 6 -9.88828508820882  1.84773472657266 -0.62564888898890
 6 -11.23257235383538  1.46377471657166 -1.16310803030303
 6 -11.15993839773977  0.07443280738074 -1.28380709470947
 6 -9.94258993969397 -0.36901887618762 -0.94249926602660
 6 -12.47202602630263  2.34902547354735 -1.33412018681868
 6 -12.31267581388139 -0.79022643274327 -1.74219502800280
 6 -12.19174666306631 -1.06267867906791 -3.32697781638164
 7 -7.24537400570057 -1.27029664326433 -0.16142081908191
 6 -8.20560079987999 -2.14219939203920 -0.65234018921892
 6 -7.76634277987799 -3.61560982848285 -0.66816409370937
 6 -6.49669355345535 -3.53878821582158 -0.19770150205020
 6 -6.16273887028703 -2.13230151145115  0.13053585778578
 6 -8.67599506690669 -4.66547939033903 -1.02534101250125
 6 -5.32842731303130 -4.35413929742974  0.26025889848985
 8 -5.10550938883888 -5.53752823622362  0.14426145684568
 6 -4.20782436183618 -3.40799658945895  0.61945181048105
 6 -3.66467709860986 -3.65108032933293  2.06638701160116
 8 -3.81545314591459 -3.04983171937194  3.08632131323132
 8 -2.89260045374537 -4.85025974837484  1.88166674757476
 6 -2.35124571247125 -5.41353558265827  3.16390132563256
 6  2.89998250995099 -0.80897869246925 -1.05057625802580
 6  4.14955704470447 -0.61065924222422 -0.41361151015102
 6  5.12217570197020  0.11165743114311 -0.74254402710271
 6  5.07711613461346  1.05040769006901 -1.93577774307431
 6  6.45089942274227  0.29585143534353  0.02861637643764
 6  7.59993753165317 -0.30119046594659 -0.78069502000200
 6  8.84769664226423 -0.14930006040604  0.06366455365537
 6  10.17540816531653 -0.51211828352835 -0.65419639013901
 6  10.30123682388239 -1.94105504160416 -1.21127459245925
 6  11.47616049294930 -0.13912769356936  0.04044491309131
 6  12.76756166386639 -0.45615966706671 -0.61964198709871
 6  14.03239270767077 -0.04076527932793  0.25323239073907
 6  15.39942606750675 -0.25148887798780 -0.51421966176618
 6  15.61317298619862 -1.73639127292729 -0.75407502520252
 6  16.50002410831083  0.47805216521652  0.34522903010301
 6  17.86430101950195  0.70608200660066 -0.38310412501250
 6  18.83180354985499  1.44680289728973  0.55204563756376
 6  20.30871954115412  1.38766910041004  0.09148391159116
 6  20.42400375417542  1.97863616081608 -1.36123711641164
 6  21.33987491829183  2.01974491079108  1.05037040044004
 1 -4.05234671917192  3.50552607400740  1.49912449934993
 1 -9.96070646334633  3.80642147714771 -0.37786317781778
 1 -10.23444673407341 -2.35201454225423 -1.23009966216622
 1 -2.61849830673067 -1.26862517641764  1.81959265046505
 1 -2.46298990419042  1.68518210081008  1.02674332473247
 1 -1.94903936143614  0.78052850575057  3.40252396589659
 1 -3.23996905690569  2.42316637413741  3.27280944634463
 1 -3.80149359205921  0.77565224922492  3.60163257605761
 1 -1.98218070297030 -1.32718267866787 -0.57291120032003
 1 -2.37218889138914  0.29660691109111 -0.82376241584158
 1 -0.28000151755176  0.57482209610961  0.80801120022002
 1 -0.37066486848685 -1.12974748994900  1.32204615981598
 1 -5.95203397879788  6.83893253735374  0.91784749394939
 1 -5.37742473187319  5.95632899599960  2.56907320442044
 1 -4.49679363536354  5.54849601600160  0.84716789238924
 1 -9.16756880938094  5.79972612071207 -0.92359258745875
 1 -9.19274048994899  8.10987172607261  0.62469209100910
 1 -7.95154462026203  7.28841524102410  1.81976036153615
 1 -12.35775988108811  3.27439776577658 -1.90391339603960
 1 -13.35504517371737  1.95352924412441 -1.74083527502750
 1 -12.49803153425343  2.67393604830483 -0.24939618361836
 1 -12.03042782118212 -1.88449789488949 -1.39325428032803
 1 -13.31863058195820 -0.28996573337334 -1.40204573207321
 1 -12.86702305490549 -1.70880556675668 -3.77171705620562
 1 -12.49521308550855 -0.10441497909791 -3.85013850955096
 1 -11.16907318661866 -1.27876274337434 -3.72994161416142
 1 -8.91402100510051 -4.59847058995900 -1.97389065316532
 1 -8.04796416121612 -5.69366937113711 -0.87249686268627
 1 -9.58803868876888 -4.68356337763776 -0.36845866846685
 1 -3.39455015091509 -3.64149740044005  0.02473720222022
 1 -1.67050521702170 -4.64541098079808  3.61766468176818
 1 -3.17291690029003 -5.44003562116212  3.97695053395340
 1 -1.87547565906591 -6.41007028022802  2.89053300620062
 1  2.72238154225423 -1.74482631853185 -1.47496146114612
 1  2.68617609520952 -0.24359007940794 -2.04235738793879
 1  4.22666357195720 -1.19601181638164  0.55429864586459
 1  4.13484244774477  1.08892760316032 -2.43840220992099
 1  5.39182459415942  2.09856011491149 -1.76559302750275
 1  5.43392069966997  0.63458456595660 -2.85116384738474
 1  6.61888395129513  1.53548754875488  0.21195383818382
 1  6.28095221462146 -0.23928196559656  1.01720143684368
 1  7.36325371007101 -1.43360259545955 -0.94490581418142
 1  7.84049648554856  0.16406961506151 -1.67314023762376
 1  8.88429048064807  0.85145303030303  0.53636126832683
 1  8.81845033373337 -1.06904241044104  0.90768863256326
 1  10.21926947834783  0.24530706840684 -1.42193708320832
 1  9.44708969446945 -2.11608958545855 -1.80115604040404
 1  11.30847340304030 -1.88282506640664 -1.95480972487249
 1  10.51704459045905 -2.50155209720972 -0.32753219291929
 1  11.34893257415742  0.93186541674167  0.30975246274627
 1  11.59340239363936 -0.74869083038304  0.99899052065206
 1  12.85379869876988 -1.69479764096410 -0.93320098769877
 1  13.01290504300430  0.08308899989999 -1.68666202750275
 1  13.77990942764276  0.89762231823182  0.51310865386539
 1  13.91786453955396 -0.86700630533053  1.05835235173517
 1  15.24589787828783  0.23930341534153 -1.39243360136014
 1  15.59787723062306 -2.27320761286129  0.13362190829083
 1  14.88573162386239 -2.23613598919892 -1.13904131923192
 1  16.49526915631563 -2.07154267916792 -1.39858132763276
 1  16.03971917261726  1.56371420512051  0.59400594489449
 1  16.56189063626362 -0.13082225732573  1.20750351155115
 1  18.39339027772777 -0.17184373177318 -0.57898123852385
 1  17.71933899839984  1.28403572247225 -1.09721329712971
 1  18.59608040064007  2.53111726942694  0.74445245054505
 1  18.87895505580558  0.80357453845385  1.38943894419442
 1  20.56938185088509  0.34525067326733 -0.20723365936594
 1  20.27331143774377  3.01580514241424 -1.24389798319832
 1  21.39245349744974  1.95548220102010 -1.85141650495049
 1  19.97429133353335  1.72257406820682 -2.21639860886089
 1  21.20366634183418  1.61012912201220  2.05673529072907
 1  22.41043274957496  1.79646087578758  0.67592255855586
 1  21.08090782068207  3.07913799709971  1.08545898639864
>>>>>>> 8e03b5b5abfc0030b3aa597dc0de36371bfbd096

