%nproc=4
%Mem=2GB
# td=(NStates=1) CAM-B3LYP/6-31G(d,p) 

TD

0 1
12 -7.10242081508151  0.64744349244924  0.14162184958496
 6 -4.81840645864586 -2.00830200860086  0.57462399509951
 6 -4.80845077397740  2.77476592389239  1.18082444734473
 6 -9.41572630813081  3.11548704420442 -0.55764862456246
 6 -9.51908222192219 -1.66547205820582 -0.86997342644264
 7 -5.17836126072607  0.40319013711371  0.69829024732473
 6 -4.38781848794880 -0.73144296629663  0.85436345954595
 6 -2.98532753815382 -0.34346377207721  1.15256561076108
 6 -2.97464090249025  1.01443411171117  1.58326905760576
 6 -4.39895689058906  1.52323307210721  1.17081411131113
 6 -2.84575965806581  1.18252054015402  3.14517592649265
 6 -2.06494995599560 -0.64328959035904  0.04086804510451
 6 -0.48522594519452 -0.47349169636964  0.48474260356036
 6  0.53301443864386 -0.78910242314231 -0.55118049854985
 8  0.26854809490949 -1.11654706230623 -1.71089742144214
 8  1.79550136063606 -0.53787118351835 -0.13114990389039
 7 -7.08324877277728  2.56460205000500  0.31591028652865
 6 -6.02555183418342  3.29910088588859  0.72327586118612
 6 -6.42043929702970  4.69113340274027  0.79242993019302
 6 -7.79269197619762  4.76031666316632  0.31649004030403
 6 -8.15620989258926  3.39620881618162  0.00961350765077
 6 -5.54868282498250  5.88538100400040  1.16607136763676
 6 -8.47664546214621  6.04187522122212  0.17822480788079
 6 -8.41262515381538  7.18044416301630  0.99396564636464
 7 -9.10107237983798  0.75171803290329 -0.53473750745075
 6 -9.89719597929793  1.87220717381738 -0.64279060316032
 6 -11.20735983258326  1.44822316141614 -1.18420013951395
 6 -11.26954935883588  0.16090145424542 -1.34423313731373
 6 -9.89166484718472 -0.33014498879888 -0.94779979607961
 6 -12.28468729242924  2.52283285428543 -1.47502427722772
 6 -12.33421796809681 -0.75060247034703 -1.77211802030203
 6 -12.20107759615962 -1.02188459965997 -3.26764188278828
 7 -7.12598206650665 -1.39870948454845 -0.25668034503450
 6 -8.20010024982498 -2.23074824692469 -0.56644159935994
 6 -7.81769791539154 -3.61689995749575 -0.60964824212421
 6 -6.49997388148815 -3.50277461446145 -0.31556328822882
 6 -6.08736133253325 -2.18751703300330  0.07450025422542
 6 -8.65915338273827 -4.88014085648565 -0.87588606700670
 6 -5.31165563586359 -4.29233311681168  0.19593246584658
 8 -5.11585042294229 -5.56296077947795  0.19802683338334
 6 -4.17859143854385 -3.33029881968197  0.68694856015602
 6 -3.50425105600560 -3.69658487978798  1.99817018991899
 8 -3.72066366696670 -3.00882761896190  2.99938261936194
 8 -2.74410560426043 -4.68639336173617  1.84893347424742
 6 -2.10227081498150 -5.22460668976898  2.99403433893389
 6  2.76459897159716 -0.76760455505551 -1.20468166856686
 6  4.05606769576958 -0.43048122442244 -0.52548269726973
 6  5.00420390479048  0.32769903530353 -0.88291806450645
 6  4.90848927192719  1.22781543084308 -2.07914207950795
 6  6.32455678847885  0.36773862406241 -0.19102558775878
 6  7.59970750865086 -0.17502784968497 -0.90886783728373
 6  8.84846671927193 -0.08714384478448 -0.10969278207821
 6  10.21293191769177 -0.48147521922192 -0.81642261276128
 6  10.15128182838284 -1.99393032913291 -1.23635710071007
 6  11.39920279717972 -0.20299408020802  0.08147901650165
 6  12.76181108880888 -0.31147519861986 -0.67720774367437
 6  13.95483495189519 -0.00488169096910  0.19782685018502
 6  15.33201932683268 -0.21802553165317 -0.36740498029803
 6  15.51769343824382 -1.81650928472847 -0.71736135383538
 6  16.38904301020102  0.40662502250225  0.45485999319932
 6  17.82044663406340  0.45887728612861 -0.34125994059406
 6  18.75639600910091  1.27895611261126  0.61790222322232
 6  20.34176284548455  1.37333766726673  0.14306907010701
 6  20.44265561936194  2.15737403460346 -1.28910990369037
 6  21.23381431223122  1.99882281858186  1.14834019741974
 1 -4.11403288778878  3.52998852025203  1.40892547944794
 1 -10.04266465916592  3.87145798079808 -0.73452884438444
 1 -10.28799208860886 -2.42317165796580 -1.22367902010201
 1 -2.79239569646965 -0.98911722562256  2.06032672387239
 1 -2.42869647484749  1.85108869146915  0.97269792019202
 1 -1.88683314081408  0.93931438433843  3.54817853135314
 1 -3.06291135113511  2.08080213771377  3.63261542694269
 1 -3.59730317301730  0.50092477647765  3.64025643844384
 1 -2.25152763766377 -1.84319427982798 -0.29441335053505
 1 -2.55112678517852 -0.07481023062306 -0.76341638123812
 1 -0.24225774317432  0.38580319421942  0.93776417551755
 1 -0.24900270227023 -1.27131164636464  1.37030098529853
 1 -5.92821159655966  6.77445608970897  0.68757446664666
 1 -5.79422641204120  6.18634199729973  2.23597989508951
 1 -4.43356731273127  5.79892105850585  1.09714288988899
 1 -9.11148320082008  5.99520566866687 -0.61942217041704
 1 -9.11705292119212  8.18859959885989  0.96664628642864
 1 -7.79278874467447  7.32537893739374  1.92886127162716
 1 -12.21101520662066  2.98990931693169 -2.65182818751875
 1 -13.15231490069007  1.89492338353835 -1.50200139163916
 1 -12.47960969206921  3.34423307800780 -0.86512775677568
 1 -12.59951472987299 -1.69998944404440 -1.18892384728473
 1 -13.24832355125512 -0.24604134093409 -1.58331385888589
 1 -12.82383873647365 -1.90468515471547 -3.64245412991299
 1 -12.17831139533953 -0.16399093669367 -3.96654014971497
 1 -11.17634391369137 -1.36805167226723 -3.39998861886189
 1 -9.25066466946695 -4.85746648954896 -1.72520578467847
 1 -8.06268563336334 -5.90019002320232 -0.85578519151915
 1 -9.30057994289429 -5.01888690999100 -0.02373419601960
 1 -3.25553624952495 -3.46000925162516 -0.00477574907491
 1 -1.61914008050805 -4.37174361406141  3.57740065536554
 1 -2.99053866246625 -5.59678129572957  3.70925376427643
 1 -1.54582269376938 -5.96705597879788  2.72693664656466
 1  2.56346565066507 -1.81866370227023 -1.42170613561356
 1  2.77087456505651 -0.19438515891589 -2.11362451465147
 1  4.22387329292929 -1.07566978217822  0.36610982698270
 1  3.85656461996200  1.38421713211321 -2.21921029072907
 1  5.65493090479048  2.06835709460946 -1.96502297049705
 1  5.37319462706271  0.69031013851385 -3.11294002500250
 1  6.40981304420442  1.33312731273127  0.31390403320332
 1  6.52199631903190 -0.27720575797580  0.63911362806281
 1  7.44560194489449 -1.10038927412741 -1.23735505910591
 1  7.67412984888489  0.42243545164516 -1.80214313791379
 1  8.74725677727773  0.99316720172017  0.26982461466147
 1  8.78936742544254 -0.73699920612061  0.85025288898890
 1  10.46471402280228  0.05506804450445 -1.77708259775978
 1  9.35009999549955 -2.21465944244424 -1.96956288108811
 1  10.93234579027903 -2.54429121302130 -1.68192243614361
 1  9.93532641864187 -2.58590053205320 -0.34096353605361
 1  11.28959664056406  0.99831206140614  0.59397088458846
 1  11.66659971337134 -0.91343730503050  0.98464908650865
 1  12.71649496839684 -1.34904306550655 -1.13778144574457
 1  12.78691244374437  0.53089378037804 -1.39980334163416
 1  13.80603203990399  0.95264782078208  0.36161350435044
 1  13.85222797589759 -0.43446305100510  1.28916543304330
 1  15.17984127262726  0.41268075307531 -1.27546190419042
 1  15.62628007090709 -2.45488578067807  0.21586013211321
 1  14.54664771547155 -2.12689506510651 -1.40762817791779
 1  16.49297892729273 -1.93290881578158 -1.30484195369537
 1  16.26474167486749  1.57471530523052  0.57364390869087
 1  16.70084453165316 -0.03381255635564  1.47430019121912
 1  18.37052799149915 -0.63946049344935 -0.34125746614661
 1  18.00987805230523  0.97201452035203 -1.38857243304330
 1  18.51779257185719  2.18058221592159  1.11045905120512
 1  18.92528968926893  0.59502368336834  1.60165016531653
 1  20.69748466116612  0.43506965516552 -0.07700063606361
 1  20.13734784138414  3.22591615351535 -1.07604119751975
 1  21.59129338143815  2.01113776657666 -1.45272663596360
 1  19.81518542294230  1.74853666446645 -2.20336730573057
 1  21.16329230443044  1.65795390449045  2.24995461266127
 1  22.13088479477948  1.91004223392339  0.60812577887789
 1  21.09743947384739  3.01486156945695  1.20483092359236

