%nproc=4
%Mem=2GB
# td=(NStates=1) CAM-B3LYP/6-31G(d,p) 

TD

0 1
12 -7.14637521052105  0.63629237733773  0.03569125652565
 6 -4.92718733673367 -1.87713889228923  0.49504603730373
 6 -4.67824775367537  2.89114756205621  1.11003736863686
 6 -9.38399313481348  2.99670516601660 -0.40847370707071
 6 -9.57186750045005 -1.76629214021402 -0.88291472057206
 7 -5.13975740034003  0.46389620772077  0.74580499879988
 6 -4.36264597069707 -0.75218504050405  0.82991101430143
 6 -2.95183418881888 -0.31991141684168  1.21280163436344
 6 -3.03432687108711  1.17717038533853  1.65970670137014
 6 -4.38710570547055  1.55358610741074  1.11455848574857
 6 -2.81809689178918  1.20482277037704  3.12715412431243
 6 -1.88870233123312 -0.61290655205521  0.04575853415342
 6 -0.49181660426043 -0.41096544374437  0.55607973727373
 6  0.50284142134213 -0.67189070197020 -0.64019940044004
 8  0.32492373247325 -1.04261966956696 -1.74005033673367
 8  1.73499531003100 -0.33570096649665 -0.12575936483648
 7 -7.01434188208821  2.58742433223322  0.28364706020602
 6 -5.96715599459946  3.39089006480648  0.65840937453745
 6 -6.45733298639864  4.75943023242324  0.84768545574557
 6 -7.78052075907591  4.76827745924592  0.47063545484548
 6 -8.13686795839584  3.37153634893489  0.06249879617962
 6 -5.58062601930193  5.94110657655766  1.15535029552955
 6 -8.66404420202020  5.92946398009801  0.25662264766477
 6 -8.56956084738474  7.12436855545555  0.88908515831583
 7 -9.11297356995700  0.63910677177718 -0.53446748044804
 6 -9.79801606130613  1.75007496059606 -0.67013333743374
 6 -11.14248334493449  1.43263160226023 -1.16386810631063
 6 -11.23958636253625  0.08894425852585 -1.22442115611561
 6 -9.94627030773077 -0.38230020432043 -0.95153016911691
 6 -12.11439026272627  2.49767033803380 -1.53077985278528
 6 -12.27557210351035 -0.80314772487249 -1.76958776727673
 6 -12.19267675607561 -1.26573898509851 -3.20094521312131
 7 -7.31483095139514 -1.36713632723272 -0.12469714671467
 6 -8.33801404120412 -2.28302347444744 -0.53251820702070
 6 -7.89252539813981 -3.61873014051405 -0.46696397369737
 6 -6.60156404050405 -3.57309164616462 -0.09846157805781
 6 -6.30606320272027 -2.16242452375238  0.03800660486049
 6 -8.62099956735674 -4.89703254565457 -0.91174965336534
 6 -5.44498896919692 -4.36478036153615  0.27742061466147
 8 -5.25779461736174 -5.57348183158316  0.30150718141814
 6 -4.21375495489549 -3.27547333713371  0.58614848014801
 6 -3.61923255415542 -3.58026324762476  1.95492586548655
 8 -3.91786338693869 -3.04740147634763  2.97369005010501
 8 -2.74649584328433 -4.68863358575858  1.77444602550255
 6 -2.18843943184318 -5.19947417651765  2.97706264176418
 6  2.78715122682268 -0.64829262386239 -1.07543874427443
 6  4.08628071707171 -0.36908508480848 -0.33822397139714
 6  5.11387487188719  0.23732999839984 -0.91868164086409
 6  5.08682710571057  1.06390904020402 -2.24129829512951
 6  6.40659499229923  0.30605245544554 -0.18684516971697
 6  7.66609414731473 -0.03323367026703 -0.99585653615362
 6  8.92116398899890 -0.10056518691869 -0.15704751755176
 6  10.18205883038304 -0.47733480518052 -0.99711068156816
 6  10.23078977917792 -1.94268520462046 -1.38839230423042
 6  11.39887276417642 -0.07554133493349 -0.14392352375238
 6  12.80296520422042 -0.26927097819782 -0.78459848274827
 6  13.95518498689869  0.06995579277928  0.06067313481348
 6  15.46398252315232 -0.18536226532653 -0.57226546634663
 6  15.56294796369637 -1.76620425422542 -0.82543216091609
 6  16.41241534743475  0.40467482748275  0.47741224842484
 6  17.96027061646165  0.40892229062906 -0.07474328892889
 6  18.84260462996300  1.30553877087709  0.84259469246925
 6  20.30704937413741  1.25035536903690  0.30259502270227
 6  20.41917327112711  1.98295659285929 -1.17111810451045
 6  21.33182411321132  1.84687762406241  1.30892625602560
 1 -3.91943342784278  3.59004452585259  1.13972855975598
 1 -10.17422781548155  3.73531436643664 -0.38414380588059
 1 -10.31031432083208 -2.50524986578658 -1.21956860906091
 1 -2.57312376927693 -0.91458977287729  1.99223991519152
 1 -2.07525113031303  1.81933551615162  1.41855250565056
 1 -2.05712016951695  0.65329578247825  3.67161087458746
 1 -2.84963002300230  2.12327638513851  3.70166233163316
 1 -3.67090053275328  0.54383906790679  3.52656506930693
 1 -1.89127161206121 -1.50618057845785 -0.40192410161016
 1 -2.13065473797380  0.04851210161016 -0.70589062866287
 1 -0.45183870127013  0.53253786768677  0.87866826592659
 1 -0.24967276927693 -1.21680619581958  1.32906686188619
 1 -6.02229100450045  6.89583822792279  0.79080478967897
 1 -5.51233822322232  6.12588595169517  2.30779707680768
 1 -4.64029798579858  5.44589575597560  0.98459163476348
 1 -9.61641369386939  5.85435158325832 -0.31689191739174
 1 -9.46895811171117  7.82982372127213  0.70844046584659
 1 -7.76096556235624  7.36685308480848  1.58855724122412
 1 -11.75371947704770  2.85210553655366 -2.56445945064506
 1 -13.26718638783878  2.12819671087109 -1.62056324782478
 1 -12.16977870897090  3.44304295899590 -0.96460770477048
 1 -12.10927570597060 -1.77906735183518 -1.12820777567757
 1 -13.42343106200620 -0.39748648544854 -1.77333286078608
 1 -13.14049040164016 -1.94593928012801 -3.41880176467647
 1 -12.20422398659866 -0.55589012661266 -3.95151864756476
 1 -11.25789206850685 -1.63816868396840 -3.43152177217722
 1 -8.56913651665167 -5.10533127602760 -2.04554781888189
 1 -8.13581294609461 -5.56983698789879 -0.41523113611361
 1 -9.79842972787279 -4.63359838113811 -0.64020584318432
 1 -3.58433912981298 -3.41869512021202 -0.31306657815782
 1 -1.69768793529353 -4.49160560026003  3.70544345964596
 1 -3.00874048264826 -5.89123074067407  3.43870670957096
 1 -1.43694180568057 -5.96294556775678  2.67283123602360
 1  2.58912821692169 -1.61510334623462 -1.46101006600660
 1  2.64438191579158  0.25373965356536 -1.98860201240124
 1  4.37250815641564 -0.90211242644264  0.62885610161016
 1  4.10831979547955  1.54411312171217 -2.53142151185119
 1  5.73359877157716  1.95620587948795 -2.03958042624262
 1  5.64035134273427  0.45515662316232 -3.05176390739074
 1  6.67130919381938  1.47707170717072 -0.01765912311231
 1  6.48158227762776 -0.31682972037204  0.73337305400540
 1  7.44704208890889 -1.03741297649765 -1.39007033063306
 1  8.00394283018302  0.47866107420742 -1.81867479107911
 1  9.03452550415041  0.99238712371237  0.25884351655165
 1  8.77695618431843 -0.80566607280728  0.57848571227123
 1  10.16397394879488  0.05117765546555 -1.91838672817282
 1  9.20759574507451 -2.01810978747875 -1.93946987178718
 1  11.13201575727573 -2.14856164006401 -1.87988223212321
 1  10.09319220522052 -2.63664560656066 -0.55826526622662
 1  11.42900058095810  1.01445367556756  0.23312479998000
 1  11.50604365776578 -0.64799076037604  0.74356497809781
 1  12.73363668256826 -1.29925808700870 -1.19987765536554
 1  12.85891964446445  0.49914060506051 -1.60565392669267
 1  13.99571100780078  0.99975253125313  0.41197854085408
 1  14.11609436253625 -0.53260286498650  0.90733725022502
 1  15.80856414491449  0.26678616361636 -1.50533489148915
 1  15.54403184608461 -2.49203949604960 -0.04040549444944
 1  14.72133518421842 -1.97757013261326 -1.49479689478948
 1  16.52350197959796 -1.72504802970297 -1.33628509800980
 1  16.14284948564856  1.35891372507251  0.64997154145415
 1  16.09124357155715 -0.09570874597460  1.45417817901790
 1  18.37960889958996 -0.63116966436644 -0.26085942634263
 1  17.90219728422842  0.86232355125513 -1.15556913271327
 1  18.43313410601060  2.44612877057706  0.86451445674567
 1  18.70702786308631  0.95601978297830  1.93136313661366
 1  20.57035194789479  0.14442059025903 -0.09386232223222
 1  19.98588269486948  3.10094365626563 -1.13670726412641
 1  21.56597084918492  2.06377303010301 -1.44668603190319
 1  19.84711861626163  1.43692550335034 -1.92895986498650
 1  21.33788976417642  1.32140024912491  2.26854647184718
 1  22.37013872017202  1.82044327402740  0.93905887218722
 1  21.22817254715472  2.84614469776978  1.56277671817182

