%nproc=4
%Mem=2GB
# td=(NStates=1) CAM-B3LYP/6-31G(d,p) 

TD

0 1
<<<<<<< HEAD
12 -7.14111468446845  0.52058080618062  0.09046673407341
 6 -4.95050966896690 -1.91656283468347  0.61200773347335
 6 -4.74017394629463  2.80146859415942  1.06296266116612
 6 -9.36058079357936  3.09476497199720 -0.35456831653165
 6 -9.57452776647665 -1.77460297129713 -0.95544197329733
 7 -5.13881730633063  0.44908472657266  0.68252867116712
 6 -4.36580628672867 -0.75398522052205  0.88259628282828
 6 -2.96841584698470 -0.40152957865787  1.21764211841184
 6 -3.06794023242324  1.13118578687869  1.72109283998400
 6 -4.33084007890789  1.58260900970097  1.12473950385039
 6 -2.97694277637764  1.34265655375538  3.23070447934793
 6 -1.89767322832283 -0.68188344974497  0.13130708900890
 6 -0.47197462006201 -0.31720606780678  0.61653578287829
 6  0.54310544774477 -0.55383889678968 -0.48388376887689
 8  0.17055829592959 -0.99797520512051 -1.55294162586259
 8  1.86805861636164 -0.32152954935494 -0.25698248714872
 7 -7.09753020092009  2.65298088788879  0.23430212571257
 6 -6.03740301930193  3.39077005280528  0.59675320892089
 6 -6.36447370047005  4.78683297269727  0.68708939613961
 6 -7.67682038903890  4.94331496299630  0.31017940924092
 6 -8.13986825842584  3.50848004330433  0.10688323462346
 6 -5.34982293899390  5.90060252615262  1.03103786428643
 6 -8.63743154075407  5.99077011071107  0.19229621502150
 6 -8.44461835313531  7.25005112371237  0.78197444724472
 7 -9.09204147674767  0.56812967406741 -0.49772380608061
 6 -9.78731499119912  1.77088704180418 -0.59637596169617
 6 -11.18544764136414  1.42725106420642 -0.96654837433743
 6 -11.25708811271127  0.03067843194319 -1.15651436543654
 6 -9.94079976067607 -0.53029500380038 -0.81674669076908
 6 -12.31476029972997  2.42453302430243 -1.31255803060306
 6 -12.35237978427843 -0.88237564766477 -1.77085789428943
 6 -12.25108259665967 -1.07309972117212 -3.27503262186219
 7 -7.23203267156716 -1.45643525712571 -0.20807548454845
 6 -8.27584782458246 -2.21132630473047 -0.65595055025503
 6 -7.86179232483248 -3.65616388388839 -0.61226850415041
 6 -6.52049593369337 -3.64075841284128 -0.01844357625763
 6 -6.22818541494149 -2.21488977027703  0.12115491969197
 6 -8.56024349174917 -4.84919776217622 -1.04635311371137
 6 -5.25896036633663 -4.39071295479548  0.26343921652165
 8 -5.08898773667367 -5.59339382278228  0.23727075777578
 6 -4.17411099049905 -3.26001179097910  0.63725359065907
 6 -3.54153478437844 -3.69662488378838  2.02484285718572
 8 -3.73812541314131 -3.11203793999400  2.97210989208921
 8 -2.87742893659366 -4.80436515891589  1.82784136503650
 6 -2.30198078597860 -5.38041227032703  3.05253018851885
 6  2.83605611731173 -0.55117291189119 -1.24688588898890
 6  4.13993608260826 -0.26944512081208 -0.54083423242324
 6  5.13540702510251  0.50642690809081 -1.02165193789379
 6  5.11219964296430  1.39274192349235 -2.12856702200220
 6  6.41442577537754  0.63401525172517 -0.25744222942294
 6  7.59790732863286 -0.04558490539054 -1.09619657015702
 6  8.96230810341034 -0.12644777517752 -0.20528234103410
 6  10.25437606210621 -0.54177124882488 -0.97773874437444
 6  9.98146484668467 -1.91311224732473 -1.49562302730273
 6  11.44991786868687 -0.39270305110511 -0.04132326372637
 6  12.74146905460546 -0.52616666776678 -0.80180020292029
 6  13.88115758415842 -0.17267847064706  0.15545261276128
 6  15.36260238513851 -0.20183391249125 -0.43275151495150
 6  15.73958562746275 -1.71371900570057 -0.91217083478348
 6  16.44624873077308  0.34941930193019  0.39555406260626
 6  17.86141073047305  0.46603800220022 -0.22380819541954
 6  18.79196956645665  1.25690390739074  0.70281071407141
 6  20.21239990919092  1.29573990749075  0.38754351755175
 6  20.43298465226523  1.80058835603560 -1.03139413211321
 6  21.00004093489349  2.12968590489049  1.46008137153715
 1 -4.07253873837384  3.64819034043404  1.24109869676968
 1 -10.20700109280928  3.71900273527353 -0.50259565106511
 1 -10.38121141054105 -2.34845418621862 -1.29805645784578
 1 -2.73861031793179 -1.05610392429243  2.20951164236424
 1 -2.22978658385839  1.72580616321632  1.22606325672567
 1 -1.92590704820482  1.06456690959096  3.73748746224622
 1 -3.03763882388239  2.52087614511451  3.31506367176718
 1 -3.59089253195319  0.69052373637364  3.69893230603060
 1 -1.98446093099310 -1.61693165356536 -0.36064997419742
 1 -2.11317298979898 -0.00552330193019 -0.77323736333633
 1 -0.45861937933793  0.77535214911491  0.86075647474747
 1 -0.11021882388239 -0.74443895909591  1.71671562676268
 1 -5.65111388678868  6.89510815491549  0.57605331453145
 1 -5.30881787118712  6.43938730183018  1.94567086418642
 1 -4.42368632463246  5.54869603600360  0.47018019361936
 1 -9.50334238673867  5.76755290339034 -0.58143837203720
 1 -9.08467968386839  8.01453219211921  0.46088571037104
 1 -7.62679214501450  7.37062346184619  1.54939332483248
 1 -12.00582468756876  3.20444077007701 -1.96885989068907
 1 -13.15139480868087  1.86141003220322 -1.50160135163516
 1 -12.62868459955996  3.00968962366237 -0.25956720072007
 1 -12.43272805120512 -1.86812625772577 -1.16519147404740
 1 -13.28144686358636 -0.39108584538454 -1.41034656215622
 1 -13.37415376797680 -1.62713739993999 -3.65390527502750
 1 -12.06975053925393  0.03016847924792 -3.78462195789579
 1 -11.46410268956896 -1.91954682178218 -3.69299791979198
 1 -9.19220882388239 -5.01611235413541 -2.02361562566257
 1 -7.96276564136414 -5.68451845604560 -0.93483309630963
 1 -9.26290617551755 -5.19023404470447 -0.34788661126113
 1 -3.33612430833083 -3.17268051875187 -0.18212348384839
 1 -1.29151731823182 -4.77613405310531  3.43993690899090
 1 -3.16239584818482 -5.35517713531353  3.73057589648965
 1 -1.93292140364036 -6.50393966716672  2.68007196009601
 1  2.85304460856086 -1.66215805170517 -1.37170113511351
 1  2.65387286488649  0.10204448404841 -2.15848900110011
 1  4.30417132273227 -0.95345756095610  0.39295251125113
 1  4.11380034353435  1.39262797319732 -2.69296766646665
 1  5.28014342604260  2.44621488038804 -1.88497496569657
 1  6.04567187478748  1.29651075857586 -2.99629836083608
 1  6.48443050595059  1.74785878587859 -0.11365872307231
 1  6.46689080848085  0.00157211981198  0.55960567726773
 1  7.41855924062406 -1.13002223742374 -1.46546787038704
 1  7.67583001890189  0.70617382548255 -1.87496041964196
 1  9.12354440604060  0.85697358235824  0.13441107330733
 1  8.67476596529653 -0.97289279547955  0.51988985268527
 1  10.25099265066507  0.07275981368137 -1.67054194369437
 1  9.20801578707871 -2.10477845434543 -2.27800372517252
 1  10.95402795849585 -2.34712149604960 -1.94681892579258
 1  9.52083496949695 -2.60854279627963 -0.55983542324232
 1  11.28959664056406  0.60654288448845  0.43396488398840
 1  11.43207626102610 -1.06939290059006  0.80241086268627
 1  12.88759207810781 -1.56524468566857 -1.25371303890389
 1  12.75995974847485  0.06232692369237 -1.64804816611661
 1  13.91901333803380  0.79572212821282  0.50240758375838
 1  13.91343409650965 -0.89772937763776  0.98232474897490
 1  15.40273356185619  0.22356184118412 -1.41267562556256
 1  15.85221266416642 -2.35046533863386  0.02920146624662
 1  15.11132418311831 -2.17678005360536 -1.54997241234123
 1  16.87383701310131 -1.65701122602260 -1.46393786328633
 1  16.18023322402240  1.34559239293929  0.76468301260126
 1  16.61649609680968 -0.36905608070807  1.29137189838984
 1  18.18614955365537 -0.61933848124812 -0.39702304270427
 1  17.93258032253225  0.87100441934193 -1.30269384518452
 1  18.37931872447245  2.35439959765977  0.82872087738774
 1  18.72945010531053  0.82190637163716  1.71688168846885
 1  20.66400131283129  0.32058820702070  0.42158922292229
 1  19.95396950355035  2.90687424932493 -1.00268386178618
 1  21.48330258235823  1.93863051585158 -1.24118548184818
 1  19.95505941034104  1.25082689348935 -1.89893686268627
 1  21.08348432363236  1.78551666076608  2.54175379257926
 1  21.98542024832483  2.37310854055406  1.36336130243024
 1  20.24983471337134  3.05280536383638  1.67928836933693
=======
12 -7.08534910791079  0.56327507560756 -0.01047335993599
 6 -4.77592221022102 -1.86403758215822  0.59170570327033
 6 -4.89831976087609  2.85625407270727  1.22278864376438
 6 -9.41974671017102  3.01344684018402 -0.46388924862486
 6 -9.41552186588659 -1.82678818981898 -0.90479690879088
 7 -5.06337976257626  0.47252707080708  0.62534295259526
 6 -4.25875558165817 -0.66808663066307  0.73869189238924
 6 -2.82705171057106 -0.35955538123812  1.31667202140214
 6 -3.05268870727073  1.16465913421342  1.74462519321932
 6 -4.33221021592159  1.55398614741474  1.15295232513251
 6 -3.07416249834984  1.27870015811581  3.28061947084708
 6 -1.89245270627063 -0.62241750315031  0.14313827212721
 6 -0.32264968756876 -0.35836018321832  0.60152428172817
 6  0.49231036823682 -0.44201771467147 -0.68951433193319
 8  0.30804204430443 -0.78818422602260 -1.86005233693369
 8  1.76755856635664 -0.29515691209121 -0.25628241714171
 7 -7.14001444934493  2.60253584338434  0.26972566806681
 6 -6.16783606260626  3.37602857865787  0.78287182078208
 6 -6.50253750685068  4.75605989538954  0.77803849104910
 6 -7.77928063506351  4.87250788228823  0.38444683598360
 6 -8.21797606920692  3.46806600190019  0.06741928822882
 6 -5.64200215691569  5.85692815871587  1.17413217371737
 6 -8.73437123472347  6.00577161086109  0.21542852825283
 6 -8.73115700700070  7.18583470207021  0.80101635143514
 7 -9.09654192679268  0.62215507660766 -0.67345137883788
 6 -9.89858611831183  1.71408136123612 -0.72500882498250
 6 -11.18753785038504  1.34484282338234 -1.18909062856286
 6 -11.23350575447545 -0.05855049094909 -1.31217993199320
 6 -9.88288396909691 -0.46803877817782 -0.92304732083208
 6 -12.31953077677768  2.36191676267627 -1.27524429922992
 6 -12.36516106240624 -0.95242265236524 -1.63745455395540
 6 -12.41179866826683 -1.11850426162616 -3.14096921552155
 7 -7.18370783908391 -1.47926754035404 -0.16870154715472
 6 -8.21926216601660 -2.29470464256426 -0.52806776197620
 6 -7.73686983258326 -3.63874214171417 -0.51901917921792
 6 -6.40876476057606 -3.61226556355636  0.00953922202220
 6 -6.15300789718972 -2.22118039933993  0.24421722592259
 6 -8.56387385478548 -4.88815165756576 -0.87852633103310
 6 -5.13903837413741 -4.33572745624562  0.25773864646465
 8 -4.95855469336934 -5.53238772217222  0.26090312101210
 6 -4.09595317471747 -3.25544133393339  0.70295016031603
 6 -3.48793942484248 -3.58086330763076  1.94078445134513
 8 -3.77623922452245 -3.11464820102010  3.00805348644864
 8 -2.68822001570157 -4.60439516191619  1.84705328622862
 6 -2.17572816071607 -5.11477570667067  3.01858679417942
 6  2.75849836153615 -0.34170196479648 -1.22624382478248
 6  4.21106319531953 -0.21536971327133 -0.61579172817282
 6  5.15351883628363  0.60612687808781 -1.12600237293729
 6  5.09195761876188  1.29194184348435 -2.36392055735574
 6  6.50228456125613  0.64791664186419 -0.42456894209421
 6  7.65241277917792 -0.01204155105511 -1.13069001950195
 6  8.88891076367637 -0.01902703310331 -0.29158097089709
 6  10.14877550205020 -0.55745281698170 -0.98364933543354
 6  9.97438413861386 -1.97841877797780 -1.39650311531153
 6  11.42828570547055 -0.31252503330333  0.02149301790179
 6  12.77476238393839 -0.59916396749675 -0.66055607850785
 6  13.98386785518552 -0.34845604840484  0.24828189568957
 6  15.30486661156116 -0.32634636373637 -0.45566380618062
 6  15.71809347824782 -1.78637627142714 -0.95304492219222
 6  16.29410351625162  0.26518087808781  0.56417092429243
 6  17.75819040844084  0.39560095849585 -0.06676249084909
 6  18.73185355485549  1.09846806380638  0.84604503750375
 6  20.19597826702670  1.21862219571957  0.25969073227323
 6  20.31164251805180  2.10259855705571 -1.08301929462946
 6  21.15299623042304  1.69240217651765  1.35007037043704
 1 -4.08067955245525  3.66043156455646  1.51172575947595
 1 -10.12074246694669  3.76558739373937 -0.47676306780678
 1 -10.19227251665166 -2.54498383918392 -1.14332098429843
 1 -2.58823528042804 -0.84236255015502  2.18454914611461
 1 -2.14259786498650  1.99268285088509  1.55071572197220
 1 -1.83131758925893  0.80135058795880  3.39678339183918
 1 -3.05401046104611  2.15275933343334  3.81862402780278
 1 -3.93875731843184  0.71001568556856  3.80764317711771
 1 -1.90213269816982 -1.68945890629063 -0.24401831103110
 1 -2.18935060756076  0.11326857725773 -0.71718175777578
 1 -0.11207472487249  0.67353196709671  0.95544594369437
 1  0.03007520552055 -1.20685520072007  1.23757771297130
 1 -6.00997977337734  6.71792043614361  0.69544525372537
 1 -5.43224021342134  5.93748711181118  2.36347264436444
 1 -4.56321027702770  5.79311047744774  0.74707788338834
 1 -9.47114916741674  5.88659480758076 -0.54202443064306
 1 -9.62862407830783  7.86408714761476  0.68154777657766
 1 -7.90168963476348  7.40686708620862  1.47218560406041
 1 -12.28534263936394  3.11361168716872 -2.17107011171117
 1 -13.28628829802980  1.97951184238424 -1.59563075457546
 1 -12.55615734683468  2.98718737343734 -0.47484872887289
 1 -12.20463524192419 -1.95724516961696 -0.99575453035304
 1 -13.31479019791979 -0.44401113791379 -1.17722324982498
 1 -13.34199055165517 -1.63811849804980 -3.50620050455045
 1 -12.55577914211421 -0.20134467206721 -3.53191668736874
 1 -11.67230350965097 -1.71139600670067 -3.60729934993499
 1 -8.93084268726873 -5.17215795869587 -2.00343360746075
 1 -8.00277964276428 -5.69946995119512 -0.70656026902690
 1 -9.30407029192919 -4.79622464376438 -0.23076489908991
 1 -3.38445914181418 -3.44509776047605 -0.27124239573957
 1 -1.54335250175017 -4.26358279797980  3.51471438673867
 1 -2.94340394899490 -5.69277089468947  3.59774261316132
 1 -1.66844495599560 -5.93465273847385  2.67639159205921
 1  2.64189349344934 -1.38312014791479 -1.66232019701970
 1  2.62494997259726  0.21560584018402 -1.99154230643064
 1  4.28683958955896 -0.78306052125213  0.25843905990599
 1  4.06986595009501  1.22612132253225 -2.85075344504450
 1  5.37220263196320  2.45143540244024 -2.35488195639564
 1  5.49399670727073  0.75968707620762 -3.05202393339334
 1  6.74510657355736  1.66071007100710 -0.37409476667667
 1  6.39438355775578  0.14940690329033  0.58155787248725
 1  7.36793417811781 -1.09029826502650 -1.27079840344034
 1  7.62958539443944  0.46641985008501 -2.07601052465247
 1  8.96709876147615  1.08987687268727  0.06278391059106
 1  8.93582207090709 -0.70920642684268  0.60236810051005
 1  10.51082863426343 -0.05546300860086 -1.95175006450645
 1  9.21622660816081 -2.02051002750275 -2.41923784858486
 1  10.89503205890589 -2.27832461636164 -1.76156039993999
 1  9.60949383538354 -2.53079502150215 -0.51149058875888
 1  11.57948562946295  0.79159138933893  0.24468595609561
 1  11.28370142354236 -0.94642060336034  1.09161978357836
 1  12.95010832973297 -1.76863502470247 -0.89730739833983
 1  12.98494224672467  0.12652334333433 -1.48159152045205
 1  13.88696013271327  0.67085964196420  0.87382472547255
 1  14.01500425352535 -1.05328493319332  1.15242175867587
 1  15.34679796829683  0.54493397839784 -1.23530788878888
 1  15.82037948084809 -2.44562485458546 -0.17339879377938
 1  14.94000705140514 -2.25827820342034 -1.52180959605961
 1  16.68850848024803 -1.87957348224822 -1.44000547004700
 1  15.95857105780578  1.11980981468147  0.75630217451745
 1  16.34911935913591 -0.37098627372737  1.62892565376538
 1  18.13912485118512 -0.52091863926393 -0.34770811121112
 1  17.53080014451445  1.06032335123512 -1.03280685648565
 1  18.49497028962896  2.00178433613361  1.25066307160716
 1  19.05686284658466  0.37502168316832  1.73183318361836
 1  20.57690260296030  0.34781092929293  0.25828289228923
 1  19.94835894249425  3.05808937083708 -0.89029262266227
 1  21.35957020912091  1.86866351915192 -1.42187355065507
 1  19.81281518591859  1.80022183298330 -1.98847581658166
 1  21.18784475967597  0.98536664576458  2.18922854005401
 1  22.20732243854385  1.81772300200020  1.17796276257626
 1  20.82665239513952  2.63414349764977  1.98356879737974
>>>>>>> 8e03b5b5abfc0030b3aa597dc0de36371bfbd096

