%nproc=4
%Mem=2GB
# td=(NStates=1) CAM-B3LYP/6-31G(d,p) 

TD

0 1
<<<<<<< HEAD
12 -7.18509908290829  0.55194394249425  0.00684837223722
 6 -4.82180679867987 -1.89625080348035  0.53890042274227
 6 -4.75061499039904  2.88804725202520  1.21849821472147
 6 -9.37481221672167  3.11291678717872 -0.35977883758376
 6 -9.48663897759776 -1.66399191019102 -0.86207263636364
 7 -5.11627505210521  0.48530834893489  0.63881429972997
 6 -4.27482718881888 -0.61806162816282  0.73848187138714
 6 -2.94464346974697 -0.43819324502450  1.26272662686269
 6 -3.10171360976098  1.07102977127713  1.55717644834483
 6 -4.37262425732573  1.53824457325733  1.22523955385539
 6 -2.94228931103110  1.32772506060606  3.11275268416842
 6 -1.92048550955096 -0.69136439783978  0.14392835113511
 6 -0.49920734333433 -0.45082943014301  0.54763889318932
 6  0.52233337053705 -0.66261977487749 -0.57008238873887
 8  0.21315255535554 -1.01657706530653 -1.68916524822482
 8  1.80310212071207 -0.45962335873587 -0.12299908880888
 7 -7.06365681358136  2.56636222602260  0.30154885038504
 6 -6.01426070507051  3.34585556135614  0.87602113571357
 6 -6.39586683978398  4.75050934033403  0.73157384458446
 6 -7.71438414541454  4.87412804430443  0.33712210351035
 6 -8.13572784438444  3.46594578987899  0.00180272657266
 6 -5.48392634933493  5.86594906080608  1.26431119161916
 6 -8.53860165776578  5.95747678137814  0.12655964136414
 6 -8.44100799209921  7.20933705230523  0.74656090589059
 7 -9.04560683328333  0.68271113221322 -0.47734176787679
 6 -9.82113837353735  1.84853480658066 -0.63579990409041
 6 -11.10758985558556  1.55219355845585 -1.23266498599860
 6 -11.17403980788079  0.18892425652565 -1.30420913491349
 6 -9.84439011971197 -0.36439841414141 -0.92007702380238
 6 -12.13581240494049  2.58595916691669 -1.39777655245525
 6 -12.33681822812281 -0.67322473257326 -1.78962977147715
 6 -12.15628311671167 -1.05452786398640 -3.32092721132113
 7 -7.17053652195220 -1.36951656525653 -0.03383806080608
 6 -8.32380262006201 -2.28001317341734 -0.45650060526053
 6 -7.82145829142914 -3.63109137663766 -0.34213149044904
 6 -6.49553343744374 -3.56948128512851 -0.07452918481848
 6 -6.15932852925293 -2.18662694399440  0.18783158735874
 6 -8.55388285568557 -4.86179902230223 -0.62465094349435
 6 -5.34527899819982 -4.37769165266527  0.17018989158916
 8 -5.10269910781078 -5.59304378777878  0.13382041274127
 6 -4.19392297169717 -3.26698248804880  0.53181304660466
 6 -3.41971260216022 -3.74052927422742  1.74769514241424
 8 -3.63757535813581 -3.13301003720372  2.84195687678768
 8 -2.63380457415742 -4.80196491889189  1.71481006190619
 6 -2.13489407730773 -5.16559078817882  2.94955989148915
 6  2.69215172687269 -0.72518031263126 -1.26581778217822
 6  4.09285137413741 -0.59875805210521 -0.66966711571157
 6  5.05997948234823  0.37385365076508 -0.96373614631463
 6  4.99196761976198  1.20288293759376 -2.18978314361436
 6  6.37953228602860  0.33237508770877 -0.17026351155116
 6  7.56038357625763 -0.21276162306231 -1.01007795829583
 6  8.83913578617862 -0.19881501190119 -0.20531234403440
 6  10.14974559905991 -0.60031710341034 -0.89023999449945
 6  10.11368806900690 -2.12485342144214 -1.24209767476748
 6  11.36764964186419 -0.20277405820582 -0.04369350075007
 6  12.73399830753075 -0.58923297439744 -0.77170719361936
 6  13.93363283168317 -0.10632183498350  0.15507257475748
 6  15.27123324822482 -0.28341207030703 -0.45796403620362
 6  15.60710237913791 -1.69649728352835 -0.75880549824983
 6  16.37544165006501  0.41885624562456  0.46924143134313
 6  17.81631622102210  0.45310670907091 -0.11636745134513
 6  18.76924729422942  1.23268148514852  0.80922135513551
 6  20.19905857505750  1.50926125962596  0.22391715491549
 6  20.18365971977198  2.25852414961496 -1.13832482518252
 6  21.10527145794580  2.23307624392439  1.15017038043804
 1 -4.15406689118912  3.68238375977598  1.79182376927693
 1 -10.11269166186619  3.89404023902390 -0.47424281578158
 1 -10.42024531393139 -2.30832017281728 -1.17390404260426
 1 -2.59006546344634 -0.92072038593859  2.15811650285028
 1 -2.22987659285929  1.69739332193219  1.24384503490349
 1 -2.08188264576458  1.01444189708971  3.69131284478448
 1 -3.06127118711871  2.37050110761076  3.52626479187919
 1 -3.76856029872987  0.76261094509451  3.80641305410541
 1 -2.10542302720272 -1.66447640804080 -0.21732564176418
 1 -2.31510318281828 -0.18742149174918 -0.68310835043504
 1 -0.30924444184418  0.55754036793679  0.87474787388739
 1 -0.24699250125012 -0.87370188538854  1.54757871307131
 1 -5.48368714411441  6.72846149024902  0.66647235643564
 1 -5.89648663806381  6.03128649174917  2.34202049914991
 1 -4.50577453345335  5.57440860726073  1.30707388298830
 1 -9.55855790829083  5.70984713281328 -0.58411864006401
 1 -9.14181539743974  7.96140687958796  0.38885850765077
 1 -7.48792825862586  7.35942234173417  1.27148553405341
 1 -12.14538864396440  3.10034036003600 -2.28944194889489
 1 -12.98996866606661  2.00684457565757 -1.70936212771277
 1 -12.28744047514752  3.09981863656366 -0.57499874387439
 1 -12.62018679707971 -1.41079052415242 -1.16810176507651
 1 -13.18171689058906  0.04726798999900 -1.76582210971097
 1 -13.04727107970797 -1.65345003120312 -3.55942582708271
 1 -11.92198576277628 -0.11086562416242 -3.93743723942394
 1 -11.21256753605361 -1.80097496459646 -3.33675229522952
 1 -9.12213181618162 -5.10010075297530 -1.51312457655766
 1 -7.89946931173117 -5.77287729192919 -0.48437805080508
 1 -9.48294817971797 -4.88444346564656  0.05886406380638
 1 -3.63502419831983 -3.29194244494449 -0.59103437493749
 1 -1.63646181268127 -4.28192463216322  3.36568948424842
 1 -3.04312392099210 -5.66237785538554  3.70071291019102
 1 -1.63637174867487 -6.04825409860986  2.70474442734273
 1  2.41077038113811 -1.71268310421042 -1.55501946694669
 1  2.31251872947295  0.07992227182718 -1.98628178037804
 1  4.29191009660966 -1.12944515971597  0.36140935693569
 1  4.05175413891389  1.18794750515052 -2.67462583228323
 1  5.21238665036504  2.33625388428843 -1.80376684488449
 1  5.68456576417642  0.91178228572857 -2.79417814881488
 1  6.50622268516852  1.33387738773877  0.18009065186519
 1  6.20455457485749 -0.35954399179918  0.79501921862186
 1  7.63441082578258 -1.27118635383538 -1.20546186978698
 1  7.74303673957396  0.43930713881388 -1.91817474107411
 1  8.91392344394439  0.73563144814481  0.30383801600160
 1  8.77968645734573 -0.75961146734673  0.67836570027003
 1  9.99048660006001 -0.02265972827283 -1.83325821532153
 1  9.25558054355436 -2.58410638713871 -1.94874079887989
 1  11.09317187288729 -2.27703448734873 -1.85633987788779
 1  10.07182006800680 -2.75143708570857 -0.40371981168117
 1  11.36115379627963  0.86311854205421  0.22884437193719
 1  11.28618167156716 -0.92142810411041  0.95169579117912
 1  12.88887220612061 -1.60324848604860 -0.86026369396940
 1  12.99035278777878 -0.10649995899590 -1.87625098639864
 1  13.57918935563556  0.98071062706271  0.50111745474547
 1  13.98587134023402 -0.81975157985799  1.17781429792979
 1  15.18788207670767  0.38357784278428 -1.51131548954895
 1  15.36629407230723 -2.15152544464446  0.13958250435044
 1  15.12971602230223 -2.13124550015002 -1.61187860296030
 1  16.63084271367137 -2.00262578747875 -0.88101957145715
 1  16.01665686638664  1.40903873757376  0.64320086438644
 1  16.22397684488449 -0.25222439753975  1.45785854705471
 1  18.15201614031403 -0.70956750415041 -0.39379271967197
 1  17.97148421292129  0.95417273617362 -1.13980755655566
 1  18.30987177977798  2.13242740044004  1.04849285458546
 1  18.79394655495550  0.59740392139214  1.75358535883588
 1  20.65888080078008  0.57463361156116  0.13592065606561
 1  19.74544865146514  3.26925048694870 -0.86401999539954
 1  21.22659691179118  2.34290094289429 -1.49210057335734
 1  19.50467437183719  2.06750856165617 -1.77146411541154
 1  21.10112608780878  1.70746885598560  2.33613323052305
 1  22.14123582988299  2.12533376307631  0.88545351165116
 1  20.98515824572457  3.25183526682668  1.35932637313731
=======
12 -7.07711828482848  0.54718346644664 -0.02673498609861
 6 -4.89081369936994 -1.97564874327433  0.45506203890389
 6 -4.78954888378838  2.86376482378238  1.17703406830683
 6 -9.39889462496250  3.09475497099710 -0.37916077577758
 6 -9.64911522522252 -1.78307381838184 -0.89724615371537
 7 -5.06189961456146  0.43405322342234  0.54896531483148
 6 -4.37128683478348 -0.69959978197820  0.74171219441944
 6 -2.98800780618062 -0.45708513421342  1.20562091629163
 6 -3.00280371877188  0.98606127442744  1.61089181988199
 6 -4.31537853275328  1.49855060386039  1.15860289018902
 6 -2.86219130123012  1.10971325942594  3.14431584048405
 6 -1.94215767676768 -0.80362562396240  0.05306926522652
 6 -0.47095451805181 -0.55062941014101  0.44426855615562
 6  0.57630876807681 -0.67608112101210 -0.57986336683668
 8  0.27829907000700 -0.88789419701970 -1.72173850555055
 8  1.82380419091909 -0.42375977237724 -0.17156394529453
 7 -7.03259370727073  2.63133872367237  0.30923961946195
 6 -5.92899217821782  3.31704268006801  0.80462399599960
 6 -6.35216246934693  4.75632992239224  0.80613130033003
 6 -7.66644935193519  4.83193382488249  0.33381177247725
 6 -8.03529780138014  3.43168236353635  0.04380692699270
 6 -5.45167312401240  5.89237170307031  1.16801156165617
 6 -8.48834663226322  6.04324535823582  0.25326231163116
 6 -8.29741363266327  7.27201331993199  0.88493474327433
 7 -9.12528480108011  0.63398625972597 -0.60051408510851
 6 -9.85191145084508  1.89653960706071 -0.73714003810381
 6 -11.23664276087609  1.48620695979598 -1.18638035753575
 6 -11.22950535443544  0.15091045514551 -1.28846756075608
 6 -9.96985266596660 -0.38860083438344 -0.89074409050905
 6 -12.33527235093509  2.46450702170217 -1.40842761756176
 6 -12.37766231253125 -0.64690210031003 -1.69465027352735
 6 -12.56172366076608 -0.86166857805781 -3.17778289688969
 7 -7.33765323362336 -1.39029864346435 -0.13826850385039
 6 -8.34309454925493 -2.21086625872587 -0.53564852005201
 6 -7.90915706130613 -3.59481774927493 -0.37351462876288
 6 -6.55888977307731 -3.57486182318232  0.04336260436044
 6 -6.26365896229623 -2.16663494479448  0.15362816701670
 6 -8.73930139753975 -4.86124896729673 -0.78701718011801
 6 -5.37196166646665 -4.42244612811281  0.22532540514051
 8 -5.20548938683868 -5.58794327772777  0.21853888458846
 6 -4.22087566696670 -3.30580637043704  0.50805067036704
 6 -3.44716534743474 -3.58822404370437  1.84974534743474
 8 -3.78160976157616 -3.06282301850185  2.93959664076408
 8 -2.63637483118312 -4.60050477287729  1.78222680358036
 6 -2.25096568446845 -5.25157938703870  3.06705164066407
 6  2.84963747544754 -0.55079287388739 -1.20010121052105
 6  4.19574166316632 -0.36784496079608 -0.59062921192119
 6  5.24494797919792  0.25908217361736 -1.05315508820882
 6  5.28476689968997  1.22205485478548 -2.25653981928193
 6  6.44476880968097  0.28249009920992 -0.20252673787379
 6  7.63372090999100 -0.26611695859586 -0.88157510801080
 6  8.94073594619462 -0.42770790119012 -0.11198301110111
 6  10.19858048254825 -0.76991406310631 -0.91249221972197
 6  10.18224492469247 -2.31289222532253 -1.21637510251025
 6  11.50807368426843 -0.50759454025403 -0.07461659305931
 6  12.74070897859786 -0.63218726982698 -0.70513053595360
 6  13.94546401480148 -0.09554075687569  0.19404647214721
 6  15.31548767366737 -0.21723545264526 -0.37159539933993
 6  15.77492916181618 -1.59050668446845 -0.73203282098210
 6  16.36554065996600  0.46726108610861  0.52625713291329
 6  17.82187677707770  0.55362676107611  0.01136532193219
 6  18.73553392289229  1.48276649364936  0.78742917591759
 6  20.08973764296429  1.67747808130813  0.15734049724973
 6  20.18594994879488  2.33129142634263 -1.29276026872687
 6  21.00812174297430  2.27509044534453  1.15247061046105
 1 -4.07803928842884  3.58587410881088  1.82616720362036
 1 -9.88607900060006  4.16394722972297 -0.31696708820882
 1 -10.50981427082708 -2.39578891969197 -1.15640229242924
 1 -2.53080953785379 -1.06596491039104  1.99948063926393
 1 -2.17312091729173  1.56864044664466  1.05425607600760
 1 -1.78042249974997  0.95085553845385  3.32159587308731
 1 -3.01589664966497  2.06939099659966  3.58578074347435
 1 -3.64968841154115  0.46740142414241  3.85855826862686
 1 -2.02464494939494 -1.79892985338534 -0.32649655885589
 1 -1.98391006350635  0.01068831923192 -0.89302934253425
 1 -0.34996851425143  0.43913852775278  0.89303970307031
 1 -0.23086088808881 -1.20582509770977  1.37353130833083
 1 -5.65591436683668  6.62802144624462  0.56462217141714
 1 -5.47039402880288  6.24558792189219  2.22309860696070
 1 -4.44182813881388  5.76377754415442  0.93001617721772
 1 -9.43027508000800  5.86314246234623 -0.35237546574657
 1 -9.11785300120012  8.08381912081208  0.86487610941094
 1 -7.26791625742574  7.48799519901990  1.50112849834983
 1 -12.14356846194620  3.27815814181418 -2.19432243694369
 1 -13.32332200140014  1.93753764496450 -1.70425161666167
 1 -12.49089082018202  2.96685534023402 -0.39444068806881
 1 -12.50602538093809 -1.79937938303830 -1.38778373327333
 1 -13.42076079497950 -0.22885962276228 -1.48354388188819
 1 -13.32828918151815 -1.59166385258526 -3.45741562606261
 1 -12.68523208740874  0.04543000540054 -3.85361885758576
 1 -11.72351863116312 -1.25919078617862 -3.60760938093809
 1 -8.88054765776578 -4.80953169606961 -1.91934519861986
 1 -8.03081244604460 -5.80654065826583 -0.78114772777278
 1 -9.61112099699970 -5.26859188048805 -0.30188201080108
 1 -3.44718541444144 -3.55465871657166 -0.21135640714071
 1 -1.64893305980598 -4.40530697039704  3.61447436273627
 1 -3.25386499509951 -5.64020563816382  3.50851369026903
 1 -1.60451856335634 -6.13519279247925  3.02992694559456
 1  2.78070737483748 -1.56049788568857 -1.54983894889489
 1  2.72298977657766 -0.02896861726173 -2.13097624982498
 1  4.28989989558956 -0.98098031323132  0.26352956895690
 1  4.20596956045604  1.30556926732673 -2.68222659235924
 1  5.59070448214821  2.14207446634664 -1.84997146534653
 1  6.02753006060606  0.88860996849685 -3.06774550555056
 1  6.51839390229023  1.34311831183118  0.21317396019602
 1  6.28617273667367 -0.25298333573357  0.69409912661266
 1  7.34166155085509 -1.24382361756176 -1.32641396499650
 1  7.85394783068307  0.29886309440944 -2.00273319691969
 1  9.23995604720472  0.73511139613961  0.33020065226523
 1  8.70773926262626 -1.12510801700170  0.66390425412541
 1  10.26841439283928 -0.14652211451145 -1.87122201170117
 1  9.22002698819882 -2.68246622312231 -1.77100302510251
 1  11.00829338503850 -2.65300208410841 -1.85598984288429
 1  10.21156404240424 -2.81228317031703 -0.34327376707671
 1  11.38459614051405  0.48029025922592  0.30739222672267
 1  11.43365641904190 -0.97709367066707  0.91083170477048
 1  13.01366468536854 -1.75241340254025 -0.91816948454845
 1  12.79958371087109 -0.12555186418642 -1.57150051135114
 1  13.94624606130613  1.06795935193519  0.60346768976898
 1  14.04014676777678 -0.86899650435043  1.07918443494350
 1  15.32576586508651  0.29907939293929 -1.18558291629163
 1  16.07514495739574 -2.44844513661366  0.19043758985899
 1  14.81731478217822 -2.15353772937294 -1.08703611871187
 1  16.65460508990899 -1.69943546844684 -1.41703317281728
 1  15.85996119681968  1.40306814051405  0.67201374567457
 1  16.21844629182918 -0.34917409250925  1.41276403760376
 1  18.09847078577858 -0.43644019141914 -0.07767110751075
 1  17.57160422492249  0.99747706660666 -1.03449702550255
 1  18.39740053265326  2.59827398509851  0.83543154845484
 1  18.93970113041304  1.00730491149115  1.81840184048405
 1  20.30787570027003  0.64661080928093  0.03334039803980
 1  19.80593470007000  3.34180774267427 -1.26092968636864
 1  21.15025927802780  2.51621827462746 -1.55310667396740
 1  19.47563146754676  1.92969478027803 -2.10828779777978
 1  20.80271624682468  1.74361247034704  2.20998061526153
 1  22.06376808310831  2.22446367606761  0.76567153345335
 1  21.03389311921192  3.19936001930193  1.12066250675068
>>>>>>> 8e03b5b5abfc0030b3aa597dc0de36371bfbd096

