%nproc=4
%Mem=3GB
# td=(NStates=1) iop(3/107=0140000000,3/108=0140000000) CAM-B3LYP/6-31G(d,p) 

TD

0 1
12 -7.09666435813581  0.58736712021202  0.07529389938994
 6 -4.88402721922192 -1.92457968856886  0.58641404380438
 6 -4.80015604620462  2.83778249614961  1.23906401160116
 6 -9.37283404790479  3.18423597659766 -0.33632610791079
 6 -9.65827192519252 -1.76402816851685 -0.71904870977098
 7 -5.15978300950095  0.42087817841784  0.66954477847785
 6 -4.37406965426543 -0.71331247444744  0.83411130583058
 6 -2.91654787538754 -0.42083048104810  1.11768743784378
 6 -3.02712593949395  1.13230193179318  1.59181546084608
 6 -4.39867010171017  1.48125277637764  1.14306870077008
 6 -3.03354953575358  1.17146996629663  3.12071738633863
 6 -1.96470219991999 -0.58408439763976 -0.00743693339334
 6 -0.51449715891589 -0.51662491049105  0.45832921522152
 6  0.50437236043604 -0.79687630953095 -0.61639142924292
 8  0.25946616341634 -1.30736451415142 -1.69394678777878
 8  1.68042664106411 -0.36891683008301 -0.15185057265727
 7 -7.03735137853785  2.63587679757976  0.22439336343634
 6 -5.97948809260926  3.38094186158616  0.81816769286929
 6 -6.35893080148015  4.74163102670267  0.80990924962496
 6 -7.68913369866987  4.85631743694369  0.28841496789679
 6 -8.00218974647465  3.53828076687669 -0.02098409980998
 6 -5.50308234213421  5.90206968066807  1.25070522572257
 6 -8.49900990899090  5.99323959355936  0.07230784328433
 6 -8.38723713371337  7.20654980468047  0.66263032233223
 7 -9.16481552265227  0.66331332573257 -0.55339191309131
 6 -9.91366885318532  1.94250757505751 -0.70146295979598
 6 -11.24008796149615  1.59575902040204 -1.16769162886289
 6 -11.31937142434243  0.12378992479248 -1.23650367866787
 6 -9.99524712831283 -0.30396058945895 -0.79381158245825
 6 -12.29467040474047  2.65771101250125 -1.44376382908291
 6 -12.46315010791079 -0.77203332713271 -1.54285361596160
 6 -12.24584649354936 -1.20049024132413 -3.10899155035504
 7 -7.30275323772377 -1.38602343804380 -0.02657533263326
 6 -8.37032135843585 -2.22006055155516 -0.50131171107111
 6 -7.96312835263526 -3.48859941134113 -0.55142544234423
 6 -6.57200499099910 -3.57738072017202 -0.18229031073107
 6 -6.20355408710871 -2.15418337413741  0.11185302070207
 6 -8.78627096659666 -4.76938303670367 -0.71075445854585
 6 -5.40926638953895 -4.42401596499650  0.03783875797580
 8 -5.15760675297530 -5.63172002900290  0.03266921552155
 6 -4.22533703630363 -3.42376982438244  0.49844816641664
 6 -3.60944512131213 -3.78963690639064  1.80838680718072
 8 -3.83601638503850 -3.20613797169717  2.84926828502850
 8 -2.81697705050505 -4.90860947944794  1.78264730223022
 6 -2.22874183118312 -5.41377658355836  3.01149855025503
 6  2.80359668006801 -0.59771806070607 -1.14321783898390
 6  4.02533341854185 -0.32886815471547 -0.48723128592859
 6  5.06573206450645  0.37043357135714 -1.01181405840584
 6  5.20389411501150  1.26428410371037 -2.32523665866587
 6  6.32808908760876  0.43061367736774 -0.21357188158816
 6  7.66674812741274 -0.18570711871187 -0.87538786748675
 6  8.90408812041204 -0.10011182728273 -0.00278638103810
 6  10.24082954355436 -0.45856751995200 -0.76143186318632
 6  10.11360463706371 -1.89125700560056 -1.35634260026003
 6  11.57446211001100 -0.18717360846085 -0.00109807230723
 6  12.82111984748475 -0.45922595609561 -0.68403590869087
 6  14.03803507530753 -0.14537025132513  0.20591700330033
 6  15.40903689468947 -0.20945002860286 -0.45152080458046
 6  15.78570484148415 -1.61085947424742 -0.90405223152315
 6  16.46040303300330  0.49911642894289  0.50205494019402
 6  17.92196978467847  0.61409513911391 -0.16472299929993
 6  18.79737015561556  1.29736781528153  0.76650990769077
 6  20.32092489688969  1.31967139963996  0.18329503550355
 6  20.56766961276128  2.02110941604160 -1.17520221612161
 6  21.22105717271727  1.94147584748475  1.26796073607361
 1 -4.07571793529353  3.51882513391339  1.63154925072507
 1 -9.98013013631363  4.08170044454445 -0.57466199239924
 1 -10.29163358745875 -2.60314584968497 -1.12001982138214
 1 -2.53875116231623 -1.12196239893989  1.97347383808381
 1 -2.30049351565156  1.72088414951495  1.09996364536454
 1 -1.92264535093509  1.10104921132113  3.32125246264626
 1 -3.17736484558456  2.07452667546755  3.70305832803280
 1 -3.63467626812681  0.47569272357236  3.60685237043704
 1 -2.07852297129713 -1.64278494929493 -0.54429243634363
 1 -2.12404877387739  0.32486010581058 -0.73434016861686
 1 -0.26399182788279  0.22688227552755  0.89315317831783
 1 -0.18902732303230 -1.44017478407841  1.28348180648065
 1 -5.70852503020302  6.92053956595660  0.71820165146515
 1 -5.47608908020802  6.03450633203320  2.41040305280528
 1 -4.37525236983698  6.01843611161116  0.94367510011001
 1 -9.01966222602260  6.20036341834183 -0.77495884858486
 1 -8.97936700040004  8.07796751775177  0.29907968366837
 1 -7.78352628472847  7.52709954635464  1.61241020132013
 1 -12.25788626162616  3.11291043814381 -2.50063589508951
 1 -13.15516281398140  2.08176691909191 -1.50601632983298
 1 -12.31342237493749  3.24140147424742 -0.56166660616062
 1 -12.28740070497050 -1.60221114391439 -1.01949545044504
 1 -13.49413171227123 -0.22753546404640 -1.39356511091109
 1 -13.03526872607261 -1.78385204730473 -3.39585054315432
 1 -12.11410181588159 -0.29959843114311 -3.74181315971597
 1 -11.23998883828383 -1.82254328152815 -3.09824810301030
 1 -9.38334295289529 -4.81743824462446 -1.56554261726173
 1 -8.11063544874487 -5.67973392669267 -0.76333628872887
 1 -9.58232241124113 -4.83392184058406  0.30966869816982
 1 -3.42844036253625 -3.52808941454145 -0.38669640774077
 1 -1.61913530113011 -4.69647186058606  3.48443016061606
 1 -3.04641107840784 -5.79362888778878  3.73237427512751
 1 -1.59239976047605 -6.27117790259026  2.78201156225623
 1  2.59826788158816 -1.67755437823782 -1.48743019171917
 1  2.74455089638964 -0.12126404160416 -1.94909596709671
 1  4.11831231793179 -0.62725113891389  0.47461886208621
 1  4.15398070957096  1.34173971667167 -2.72119260496050
 1  5.50256718891889  2.29860028392839 -2.16487392579258
 1  5.88186775527553  0.65305649654965 -3.02111836873687
 1  6.73138132203220  1.49882986358636 -0.03758414451445
 1  6.12018989108911 -0.20931826852685  0.55706190169017
 1  7.37470959375938 -1.23269394239424 -1.11526628382838
 1  7.69730228872887  0.59980908390839 -1.83718454135414
 1  8.88373441774177  1.01088058555856  0.47722015011501
 1  9.01642476327633 -0.72181053375338  0.89660578397840
 1  10.43102773457346  0.08222437023702 -1.75172033003300
 1  9.29849945904590 -1.87532581608161 -2.11206958885889
 1  11.07833697429743 -2.36974037333733 -1.72986834493449
 1  10.01070326742674 -2.72381649634963 -0.55453284698470
 1  11.42149379097910  0.76911334473447  0.54042181298130
 1  11.49176677217722 -0.90263156075608  0.86470279037904
 1  12.97039499199920 -1.49188660796080 -1.01665393689369
 1  12.93406923682368  0.24952988898890 -1.37150148384838
 1  13.98362978327833  0.70165552885289  0.62237706640664
 1  14.04222253285329 -1.10709708860886  0.89921229522952
 1  15.25152555395540  0.52411580858086 -1.15741701050105
 1  16.12416621342134 -2.29049839103910 -0.20033816931693
 1  15.06926857125712 -2.04485900590059 -1.62433380688069
 1  16.65865414501450 -1.37911880888089 -1.62093860716072
 1  16.32339561306130  1.53630196389639  0.81254717101710
 1  16.59931400920092 -0.22052833763376  1.27347584228423
 1  18.33631036873687 -0.40688720272027 -0.32714290989099
 1  17.95876318591859  0.98624751885189 -1.22092783638364
 1  18.57938699559956  2.30698196619662  1.12289423622362
 1  19.04981094359436  0.77382222172217  1.67480072557256
 1  20.76737656995700  0.14454545214521  0.21962785498550
 1  20.30806762526253  2.96078685518552 -0.78925110981098
 1  21.57422122292229  2.03545468756876 -1.27937591879188
 1  20.05704410201020  1.58338862906291 -1.97324570897090
 1  21.06378023152315  1.11833747464746  2.05660932973297
 1  22.32429032183218  2.07337780848085  0.97301395499550
 1  20.86288636713671  2.81547766496650  1.50132726942694

