%nproc=4
%Mem=2GB
# td=(NStates=1) CAM-B3LYP/6-31G(d,p) 

TD

0 1
12 -7.10425099809981  0.58419716781678 -0.00264257685769
 6 -4.85488010601060 -1.92195337373737  0.43626015871587
 6 -4.80297022592259  2.82803125042504  1.14951131603160
 6 -9.39300403590359  3.06222171767177 -0.40558341804180
 6 -9.50553086678668 -1.74056956795680 -0.94287071617162
 7 -5.15193861846185  0.45996581468147  0.79533995229523
 6 -4.32230193629363 -0.67030685268527  0.82287031023102
 6 -2.88881788718872 -0.41507093279328  1.25424577877788
 6 -3.04198763716372  1.15069773807381  1.71286201690169
 6 -4.32359935483548  1.45762651145115  1.21360839073907
 6 -2.99099418151815  1.38642093019302  3.31491290019002
 6 -1.89248270927093 -0.66808206960696  0.19460341864186
 6 -0.42158958155816 -0.27136148334834  0.65007913721372
 6  0.41830296749675 -0.65931944484448 -0.51639702020202
 8  0.16428766886689 -1.10019542714271 -1.57974430613061
 8  1.74161597209721 -0.36794419081908 -0.28431522042204
 7 -7.10264071197120  2.62088767856786  0.27298599409941
 6 -6.11423070207021  3.30492146794679  0.76069960356036
 6 -6.41064831793179  4.81762605200520  0.76787747494749
 6 -7.68413112011201  4.85697632913291  0.37930632193219
 6 -8.16699097069707  3.43187238253825  0.07194974127413
 6 -5.52958091479148  5.80537300320032  1.17143190369037
 6 -8.54918271587159  5.96662769646965  0.11403838923892
 6 -8.74845873717372  7.06533265186519  0.90169641944194
 7 -9.15798807140714  0.67748060916092 -0.44634866856686
 6 -9.89916617631763  1.77026697979798 -0.63440976507651
 6 -11.17651674827483  1.41273961306131 -1.06311803130313
 6 -11.18277068096810  0.03129849394939 -1.21341005500550
 6 -9.90323600430043 -0.37703967826783 -0.88088310441044
 6 -12.21107993169317  2.41536210721072 -1.46712348714872
 6 -12.39318386468647 -0.74328173827383 -1.66382719121912
 6 -12.43496098449845 -0.97678008920892 -3.16442156075608
 7 -7.30051952025203 -1.43215282888289 -0.09928460546055
 6 -8.26502674247425 -2.21369654175417 -0.55272022722272
 6 -7.79749589518952 -3.63979224672467 -0.65780305760576
 6 -6.42164604870487 -3.53591792879288 -0.20261199309931
 6 -6.21542413881388 -2.20566884818482  0.13481628582858
 6 -8.59724719211921 -4.83799664206421 -0.96665514391439
 6 -5.23431790209021 -4.27773165666567  0.15039791239124
 8 -5.09314815271527 -5.50120460386039  0.21237826852685
 6 -4.05935951535153 -3.18622441224122  0.56145601090109
 6 -3.55035566646665 -3.58692391369137  1.86358673157316
 8 -3.76881848244824 -3.17442417861786  2.95912859395940
 8 -2.72325351905191 -4.65798052045205  1.72336091699170
 6 -2.05514610251025 -5.12244647374737  3.04085902140214
 6  2.74875738743874 -0.65391318591859 -1.41677287768777
 6  4.01762385138514 -0.45183335963596 -0.71825197419742
 6  5.03198668306831  0.40385665106511 -1.08531830453045
 6  5.10816923992399  1.11521417071707 -2.40621478677868
 6  6.35202953575358  0.42870472067207 -0.30147663286329
 6  7.59840737863786 -0.18476882378238 -1.10910786128613
 6  8.93806567916792 -0.20144527492749 -0.15104691749175
 6  10.20633125762576 -0.72589966166617 -0.87550852135214
 6  10.03868056825682 -2.19941087718772 -1.20892435743574
 6  11.48736161306131 -0.37407118791879  0.00143101170117
 6  12.90828573627363 -0.62842689378938 -0.60573059595960
 6  14.07655712411241 -0.14190539333933  0.30755782328233
 6  15.39675580048005 -0.25521925102510 -0.33980222002200
 6  15.73561523042304 -1.59930756455646 -0.73865348304830
 6  16.38023212911291  0.45869022902290  0.49621412861286
 6  17.82487707710771  0.66029742814281 -0.14435024962496
 6  18.78503887338734  1.50820903790379  0.72161259425943
 6  20.15538420762076  1.31008134163416  0.21532629582958
 6  20.40987234103410  2.02767106430643 -1.15411640434043
 6  21.10569149994999  1.96462939923992  1.15930129352935
 1 -4.07858934343434  3.57916343774377  1.43404799169917
 1 -10.08433882658266  3.89592042704270 -0.35601099259926
 1 -10.33888717811781 -2.56502584338434 -1.11165781798180
 1 -2.44034049094909 -0.90817913181318  2.05029572077208
 1 -2.19092269746975  1.85926950955096  1.40038068846885
 1 -1.90981543904390  1.17143759665967  3.55630934443444
 1 -3.10402546254626  2.39728378587859  3.62534469986999
 1 -3.73364680738074  0.66707139113911  3.76503891669167
 1 -1.79431191609161 -1.66227618801880  0.01132722352235
 1 -2.18968064056406 -0.03334608420842 -0.69483952355236
 1 -0.33325684308431  0.80226484038404  0.91440183928393
 1 -0.20555835783578 -0.90246476167617  1.63407736293629
 1 -5.86977575297530  6.69031767586759  0.66861257045705
 1 -5.41512850225022  5.82033539663966  2.35829212631263
 1 -4.40437439343934  5.65508667506751  0.80147332293229
 1 -9.26504855735574  5.87214336243624 -0.83140336853685
 1 -9.43080429632963  7.90513125202520  0.40861048284828
 1 -8.10367983378338  7.16163256275628  1.76075446094610
 1 -11.69576368146815  2.96500682668267 -2.14275728042804
 1 -13.17827749694969  1.98465235643564 -1.83063425492549
 1 -12.58004973607361  3.04861351605161 -0.62505374937494
 1 -12.27986276467647 -1.76830627572757 -1.01466642154215
 1 -13.34304302320232 -0.31042777957796 -1.37469299679968
 1 -13.28278463106311 -1.56284097029703 -3.35913579807981
 1 -12.65999956415642 -0.13772831043104 -3.76506000170017
 1 -11.46965324462446 -1.50996586368637 -3.51082970297030
 1 -8.90768037103710 -4.75274601750175 -2.12764602870287
 1 -7.96372573737374 -5.70907091129113 -0.82130174317432
 1 -9.45899578447845 -5.11860688198820 -0.48051987458746
 1 -3.27521821772177 -3.58704195489549 -0.36220149164916
 1 -1.34411257775778 -4.29766620632063  3.27337025232523
 1 -2.87286689528953 -4.99415103270327  3.79634247314731
 1 -1.48843695519552 -6.02322159535954  2.76712066496650
 1  2.64547385148515 -1.61090292619262 -1.81971593659366
 1  2.60695817341734  0.19281356095610 -2.19868302050205
 1  4.06256716231623 -0.78560077527753  0.19369258525853
 1  4.26791575507551  1.20864957535754 -3.01921029072907
 1  5.59527493919392  2.18877913681368 -2.38610507870787
 1  5.91539884748475  0.76520762826283 -3.09916864786479
 1  6.67587965086509  1.46249024902490 -0.20180753795379
 1  6.34468858825883 -0.09895793319332  0.67949766646665
 1  7.39623700840084 -1.25008424362436 -1.28406973057306
 1  7.73579601550155  0.37438064616462 -2.16448937253725
 1  9.15085713731373  0.84465235023502  0.13396102830283
 1  8.81425991469147 -0.71193669986999  0.66645450915091
 1  10.29135668706871 -0.02255971827183 -1.75677056655666
 1  9.14107909340934 -2.47861583808381 -1.73448937373737
 1  10.85417797349735 -2.56742352625263 -1.90894513841384
 1  10.08534142014202 -2.50229217121712 -0.32840227992799
 1  11.21108878977898  0.67810004020402  0.52207369486949
 1  11.26096915031503 -0.96462242354235  1.05517613921392
 1  12.89375269416942 -1.85178333953395 -0.92793046064606
 1  12.80123387588759 -0.17275658465847 -1.58344170547055
 1  13.82216365306531  0.90486304230423  0.63191053405341
 1  14.06253900700070 -0.69302890759076  1.28016453295330
 1  15.44115740424042  0.47123660866087 -1.19616397439744
 1  15.76933437633763 -2.12566285838584  0.25528407450745
 1  15.15616866756676 -2.08072044764477 -1.60846826192619
 1  16.73442307170717 -1.89229475437544 -1.20751222072207
 1  16.02360756145615  1.38797663136314  0.89322586688669
 1  16.49533398059806 -0.26717589268927  1.43756651785179
 1  18.13576451515151 -0.44580112751275 -0.32739608000800
 1  17.63894095859586  1.06861418031803 -1.17109068486849
 1  18.47143793639364  2.42251640934093  0.59369737503750
 1  18.63347050735074  1.05470965196520  1.69021902220222
 1  20.48780369306931  0.31622777097710  0.22585964996500
 1  20.42863697029703  3.24913847574757 -0.97560115351535
 1  21.52010626272627  1.85833248604861 -1.36015737903790
 1  19.95023892829283  1.64735654645465 -2.11057802680268
 1  21.06120209540954  1.59969807890789  2.21416103330333
 1  22.20721242754275  1.68962019171917  0.98576354265427
 1  20.95892562246225  3.06457654095410  1.29875031553155

