%nproc=4
%Mem=2GB
# td=(NStates=1) CAM-B3LYP/6-31G(d,p) 

TD

0 1
12 -7.21687226022602  0.58398714681468  0.14757244464446
 6 -4.84131874987499 -1.93097427582758  0.45157168986899
 6 -4.81846177507751  2.80637908520852  1.22562892779278
 6 -9.43719845534553  3.07420291579158 -0.31762462216222
 6 -9.50110042374237 -1.72209772077208 -0.88686511561156
 7 -5.21042446704671  0.41484130223022  0.71656207450745
 6 -4.34932463856386 -0.68741856385639  0.71628965216522
 6 -2.91138014341434 -0.32177160286029  1.18533888808881
 6 -3.11022446084608  1.18595126342634  1.61039176987699
 6 -4.46477347224722  1.49432018081808  1.16498352825283
 6 -2.76595167726773  1.38432072017202  3.13036444534453
 6 -1.95502896389639 -0.43810907230723  0.05644960326033
 6 -0.50667809040904 -0.34550889808981  0.47470159945995
 6  0.62457359455946 -0.72801631453145 -0.60979636013601
 8  0.27717895799580 -1.06786219381938 -1.73197952965297
 8  1.83639545004500 -0.49127652405241 -0.17780456935694
 7 -7.07910835873587  2.61502709250925  0.41645034053405
 6 -6.05384466346635  3.35268624442444  0.76826035963596
 6 -6.40864811791179  4.74021831123112  0.75961664886489
 6 -7.72894560156016  4.80206083758376  0.35487387868787
 6 -8.08425269686969  3.47410660596060  0.07854040034003
 6 -5.50703866056606  5.93658612451245  1.01663642414241
 6 -8.54939273687369  5.97758879257926  0.14972195759576
 6 -8.43863775507551  7.15189130773077  0.79859610941094
 7 -9.18696096869687  0.70006286738674 -0.53781781548155
 6 -9.88310457015701  1.80732068516852 -0.62397872197220
 6 -11.28697779437944  1.34835317441744 -1.14793651315132
 6 -11.31696410031003  0.03219858395840 -1.23463217721772
 6 -9.97725340604060 -0.42925489978998 -0.78727374347435
 6 -12.36997582128213  2.34850542154215 -1.22357913271327
 6 -12.35411995829583 -0.80075748584858 -1.78633944244424
 6 -12.19039652805280 -1.16189860106011 -3.24545966456646
 7 -7.26068553685369 -1.39927954155416 -0.08853353035304
 6 -8.28438867866787 -2.30880605270527 -0.46745170037004
 6 -7.79022516811681 -3.65586385388539 -0.54295157245725
 6 -6.46123000710071 -3.58829316631663 -0.19720145204520
 6 -6.19141173757376 -2.22566084738474  0.03165596979698
 6 -8.63134060146015 -4.79895273767377 -0.86190466886689
 6 -5.28483295359536 -4.29781366486649  0.18149102170217
 8 -5.20740957885789 -5.63088757215722  0.35158218891889
 6 -4.14101768116812 -3.28051384118412  0.58950881618162
 6 -3.52351298219822 -3.64136935823582  1.85918629152915
 8 -3.76198779937994 -3.07141387758776  2.87319000010001
 8 -2.73650484418442 -4.79005372777278  1.76731531243124
 6 -2.09241982988299 -5.10930515961596  3.01009594509451
 6  2.84485699739974 -0.68003579817982 -1.28242944334433
 6  4.14066615561556 -0.34188236453645 -0.48700884988499
 6  5.16945042944294  0.39384564996500 -0.96889666236624
 6  5.18315673867387  1.23823647294729 -2.26544070937094
 6  6.40298463126313  0.46280813101310 -0.13795028022802
 6  7.55314285218522 -0.12728307520752 -0.94902185268527
 6  9.00292216481648  0.03073794339434 -0.09363117591759
 6  10.15990661516152 -0.43267033873387 -0.95319629012901
 6  10.15331203140314 -2.02386332243224 -1.37960142514251
 6  11.51033391029103 -0.25932971377138 -0.13671280268027
 6  12.81856676437644 -0.48265231633163 -0.84169419231923
 6  14.01674114251425 -0.01310251305131 -0.03923685618562
 6  15.37715384028403 -0.21194492359236 -0.60457869766977
 6  15.67908957785779 -1.73318095189519 -0.77738735643564
 6  16.38747285318532  0.28534289428943  0.46377088428843
 6  17.84084867426743  0.30872227062706 -0.13242905750575
 6  18.76384675417542  1.23884210121012  0.78468890189019
 6  20.18696736593659  1.29334966846685  0.35340010321032
 6  20.29586093989399  2.08827712491249 -0.95677667036704
 6  21.10057098789879  1.97476041234123  1.45841120452045
 1 -4.12540402490249  3.37665318671867  1.73832841974197
 1 -10.01114150685068  3.90819165416542 -0.65331072257226
 1 -10.33522681208121 -2.32348168896890 -1.17132378457846
 1 -2.88518497539754 -1.11187950185019  1.98719941114111
 1 -2.36277988318832  1.86689027162716  1.15059570997100
 1 -1.72974743224322  0.97034748764876  3.12653636713671
 1 -3.19437449744974  2.43322738023802  3.58914107950795
 1 -3.36879032173217  0.51650633463346  3.76404881768177
 1 -2.02992547744774 -1.55707566796680 -0.26274018321832
 1 -2.09543121562156  0.23852110251025 -0.88545858545855
 1 -0.24721823922392  0.71626624052405  0.75949634873487
 1 -0.22711051305131 -0.98309282448245  1.30378433363336
 1 -5.84476325172517  6.78813745784578  0.50732644184418
 1 -5.20458744814481  6.28556191929193  2.00979727682768
 1 -4.38588254425443  5.58367953435343  0.63612678827883
 1 -9.26367842034204  6.14397054515451 -0.57936816501650
 1 -8.96160737663766  8.03668440734073  0.75782540434043
 1 -7.70864032983298  7.25889228872887  1.66721510701070
 1 -11.97088119321932  3.15512583858386 -1.85068807350735
 1 -13.21334100330033  1.83481737293729 -1.55496668816882
 1 -12.76111784288429  2.83797245194519 -0.27428867286729
 1 -12.40737551595160 -1.87083652875287 -1.23082803770377
 1 -13.37767648654865 -0.47834457125713 -1.59427495499550
 1 -13.25734208680868 -1.53743843004300 -3.58642852735274
 1 -11.99532309650965 -0.40909544714471 -3.92642613831383
 1 -11.43334961426143 -1.86078094519452 -3.56263488348835
 1 -9.04615421842184 -4.70056079897990 -1.89647291139114
 1 -8.46595596039604 -5.85039504370437 -0.53165277827783
 1 -9.50387027192719 -4.54201922322232 -0.34405622822282
 1 -3.57768846474647 -3.26629988068807 -0.41555682718272
 1 -1.49078724522452 -4.34858129782978  3.48640155545555
 1 -3.02024163276328 -5.18104972257226  3.69862270117012
 1 -1.50734884638464 -5.80261953515352  2.90934488738874
 1  2.73464276837684 -1.75437727362736 -1.63796776177618
 1  2.79776725432543 -0.11167688808881 -2.18885203740374
 1  4.30504140974097 -0.56535875107511  0.54963817981798
 1  4.22395135863586  1.25655436583658 -2.72648101780178
 1  5.18034344604460  2.31706196509651 -1.85860232843284
 1  6.02697000460046  1.08771987948795 -2.94308303930393
 1  6.71822388528853  1.45441944194419 -0.10159751695170
 1  6.19992411181118 -0.16749478687869  0.67987770447045
 1  7.39341672637264 -1.21458069326933 -1.09166048964896
 1  7.98804124002400  0.34943815191519 -1.73114603820382
 1  9.03095514711471  1.06985487048705  0.40246787898790
 1  8.96908539723973 -0.74854036023602  0.82101996569657
 1  10.26523407480748  0.17145968366837 -1.93915880538054
 1  9.38018300380038 -2.32259023552355 -2.17613353815382
 1  11.11733428912891 -2.67320410431043 -1.59827407130713
 1  10.10261314731473 -2.59297123912391 -0.41130056975698
 1  11.46627430833083  0.85816804700470  0.22821430893089
 1  11.30393344674468 -0.83510947224722  0.88666928852885
 1  12.85162848174818 -1.70160832203220 -0.93531119871987
 1  12.65017877037704 -0.16241555055506 -1.97561092239224
 1  13.92842427912791  0.98324088008801  0.13170051305131
 1  13.84142689578958 -0.62352195689569  0.94842135863586
 1  15.51014430293029  0.33326281128113 -1.61579593759376
 1  15.62386982988299 -2.35782607470747  0.03368191429143
 1  14.97666071677168 -2.33918629422942 -1.34760217531753
 1  16.58228785818582 -1.85903142804280 -1.53976544604460
 1  16.11809701040104  1.42003983768377  0.74495103940394
 1  16.27972241944194 -0.18379755485549  1.32267502870287
 1  17.93403434213421 -0.84322086948695 -0.13278661906191
 1  18.01439850435044  0.71027834673467 -1.33437701350135
 1  18.43861465406541  2.28522267996800  1.02984098939894
 1  18.63948110841084  0.92611679267927  1.82828282858286
 1  20.64645955865587  0.08927507570757  0.21143820782078
 1  19.76085019161916  3.11370493239324 -0.96497009040904
 1  21.30088434053405  2.30089674247425 -1.11984334763476
 1  19.88028193259326  1.44084589538954 -1.91126809580958
 1  21.07519349454946  1.36169427852785  2.33934355155516
 1  22.18191989828983  2.22759398909891  1.04903987028703
 1  20.69683941384138  2.97966805010501  1.48541898239824

