%nproc=4
%Mem=2GB
# td=(NStates=1) CAM-B3LYP/6-31G(d,p) 

TD

0 1
<<<<<<< HEAD
12 -7.25507608060806  0.60698944704470  0.04438212561256
 6 -4.85331994999500 -2.00129130753075  0.54254078677868
 6 -4.81870179907991  2.77993644094409  1.10179654455446
 6 -9.38777351285128  3.09148464396440 -0.50878373807381
 6 -9.48346866056606 -1.73603911491149 -0.81862829192919
 7 -5.17635105970597  0.39862968106811  0.80594101240124
 6 -4.36871657775778 -0.69732955495550  0.90457848104810
 6 -2.90868987438744 -0.41723114881488  1.31472182638264
 6 -3.06238967736774  1.12987565586559  1.63608433913391
 6 -4.44042103700370  1.46312706150615  1.10385741564156
 6 -3.06569165126513  1.35475776387639  3.09929133803380
 6 -1.85968942994299 -0.57822308370837  0.19201315961596
 6 -0.39591701430143 -0.54099844704470  0.66576070537054
 6  0.48305944314431 -0.60637415031503 -0.53985936643664
 8  0.18384962506251 -0.92034744234423 -1.64495082678268
 8  1.82199400990099 -0.46576397279728 -0.16080286918692
 7 -7.05253570147015  2.65888147794779  0.20737943344334
 6 -6.04417369636964  3.38282925872587  0.75153868746875
 6 -6.43609086218622  4.75098938833883  0.70455114231423
 6 -7.79877258425843  4.79810044154415  0.33746213751375
 6 -8.15657992959296  3.48828802410241  0.04198674497450
 6 -5.42713066976698  5.84443690959096  1.09137389788979
 6 -8.57635543314331  6.03795482918292  0.31466845224522
 6 -8.31947583888389  7.28254437303730  0.91371762156216
 7 -9.16240851345134  0.64039690079008 -0.53559759345935
 6 -9.95726198589859  1.81563151625163 -0.64395071917192
 6 -11.22425152175217  1.48687702680268 -1.05060678017802
 6 -11.21076348024802  0.08476384048405 -1.24483319731973
 6 -9.88727440814081 -0.40115208950895 -0.85013002910291
 6 -12.40191901560156  2.40308087908791 -1.23164993979398
 6 -12.40903544984498 -0.77153456355636 -1.80465127362736
 6 -12.23820130853085 -0.90168257945795 -3.38906402500250
 7 -7.19277874617462 -1.42001161476148 -0.30471514851485
 6 -8.29002924272427 -2.26222139423942 -0.54700965616562
 6 -7.85991213681368 -3.71918018551855 -0.53268054535454
 6 -6.53157704180418 -3.59889422642264 -0.03080481238124
 6 -6.19757235363536 -2.26888516981698  0.03171597579758
 6 -8.62457992539254 -4.91774461686169 -0.99646812521252
 6 -5.39260373067307 -4.37734161766177  0.26002887548755
 8 -5.17733657155716 -5.56614109750975  0.10772780348035
 6 -4.09827340674067 -3.38866465626563  0.61565143044304
 6 -3.56613724462446 -3.70494571587159  1.87598797169717
 8 -3.70101170177018 -3.09139587578758  2.85882856395640
 8 -2.73722491619162 -4.73314803720372  1.87509609050905
 6 -2.18140872877288 -5.15025925502550  3.12453738923892
 6  2.84549706140614 -0.76041383598360 -1.13147434783478
 6  4.14602669166917 -0.46699487578758 -0.58121827082708
 6  5.13013649804980  0.32429869526953 -1.19724949764976
 6  4.90259868286829  1.06733938323832 -2.31468563386339
 6  6.45441977477748  0.50728257845785 -0.43954043924392
 6  7.69968750665067 -0.20386073297330 -1.07956490699070
 6  8.95527740034003 -0.05880101050105 -0.16365817861786
 6  10.24238486298630 -0.42946001770177 -0.86659763026303
 6  10.08757545774577 -1.93915485158516 -1.32869633463346
 6  11.49290216711671 -0.19859364016402 -0.00413954535454
 6  12.82898780648065 -0.41624567566757 -0.66958698159816
 6  14.04080354875487 -0.03088429122912  0.27027409490949
 6  15.47172329722972 -0.14358808790879 -0.36013425322532
 6  15.64362603150315 -1.59489712351235 -0.77042666036604
 6  16.48652275817582  0.33072743274327  0.48041254845485
 6  17.78481307070707  0.51631302970297 -0.05407122172217
 6  18.86060643014302  1.26314453145315  0.81347178017802
 6  20.36807547674767  1.29969030253025  0.19293405660566
 6  20.32325367916792  2.03660195739574 -1.26335732843284
 6  21.18199913071307  1.94166710301030  1.15286064946495
 1 -4.09940142464246  3.65272079347935  1.34205879277928
 1 -10.18502889558956  3.80023085808581 -0.62854824632463
 1 -10.37342063146315 -2.55484482528253 -0.84385103730373
 1 -2.78457491439144 -0.88604691859186  2.24229492069207
 1 -2.41029463466347  1.71342492509251  1.15774642504251
 1 -1.99455391289129  1.10202065496550  3.56876058955896
 1 -3.56571163116312  2.38320237773777  3.28213037843784
 1 -3.80536397909791  0.72458714271427  3.79303171597160
 1 -1.86477896279628 -1.58376833723372 -0.24435834503450
 1 -2.05252692519252  0.01180843124312 -0.68736877647765
 1 -0.13281679907991  0.39183379727973  1.32419281838184
 1 -0.18074587658766 -1.39800431563156  1.41822577777778
 1 -5.81466024142414  6.80671931603160  0.64012972217222
 1 -5.32978996839684  6.06690005310531  2.13021931903190
 1 -4.60797475347535  5.72135330173017  0.85564874047405
 1 -9.41024307680768  6.01310745884588 -0.45914614281428
 1 -9.08647986388639  8.07669840874087  0.77124674647465
 1 -7.61223068886889  7.47818421792179  1.61013939943994
 1 -12.18033213831383  3.12638296429643 -2.04902790749075
 1 -13.39287895709571  1.81240513171317 -1.55075626712671
 1 -12.69810154125413  3.10779943464346 -0.37180842484248
 1 -12.35349012741274 -1.74999444454445 -1.53310826572657
 1 -13.38842756165617 -0.32741947874787 -1.42744827232723
 1 -13.08591494409441 -1.35372005820582 -4.02563244774477
 1 -12.41938550275028  0.20903636603660 -3.75131862756276
 1 -11.47300357965797 -1.53824869196920 -3.58134675467547
 1 -8.92749235223522 -4.67949869276928 -1.96799006310631
 1 -7.70169953475347 -5.75073507770777 -0.93642325532553
 1 -9.44857474237424 -5.20132515381538 -0.38680050265026
 1 -3.35384608050805 -3.24324757545755 -0.16930220172017
 1 -1.57798596509651 -4.24668110781078  3.55861877717772
 1 -3.07147675627563 -5.15255687328733  3.89249208810881
 1 -1.49420753225323 -6.07886715991599  3.08363231613161
 1  2.77638694279428 -1.78029986588659 -1.27743170817082
 1  2.40375785338534 -0.38248396879688 -2.11916506870687
 1  4.32261316691669 -0.92282449764976  0.31986520252025
 1  3.89444840834083  1.00294900530053 -2.67345571527153
 1  5.31070648234823  2.02132239113911 -2.07460392859286
 1  5.60682799039904  0.75883699119912 -3.14937366836684
 1  6.72765482838284  1.55823982398240 -0.28896625382538
 1  6.42663678307831  0.03864582718272  0.47092680938094
 1  7.51846923162316 -1.37197643284328 -1.22747407100710
 1  8.03701613751375  0.23567677577758 -2.06746967056706
 1  8.89249130073007  0.87983586858686  0.33590122232223
 1  8.55668415711571 -0.77796330253025  0.72559042274227
 1  10.31222877427743  0.01523406110611 -1.94388927842784
 1  9.20504549004901 -1.97155513201320 -1.92279820462046
 1  10.86200875657566 -2.45453223712371 -1.84863910781078
 1  9.95483836983698 -2.56204814681468 -0.36388582828283
 1  11.20677835873587  0.97085931613161  0.35004649214922
 1  11.39519257265727 -0.88934489578958  0.83392401400140
 1  12.95010832973297 -1.65362352355236 -1.04660232783278
 1  12.99742349484948  0.19528021902190 -1.64197755905591
 1  13.72202363906391  1.05181773777378  0.67727507050705
 1  13.99379213231323 -0.77249685438544  1.07993450995099
 1  15.43473676217622  0.44239372437244 -1.27731208920892
 1  15.55469291219122 -2.24411470357036  0.05937448354835
 1  15.02082513321332 -1.88587096269627 -1.45816323142314
 1  16.50285991539154 -1.89458498339834 -1.12538400790079
 1  16.31340654135413  1.29926776047605  1.07879442374237
 1  16.80916536373637 -0.23187236233623  1.39581234243424
 1  18.40614155285528 -0.45977252465247 -0.35706904730473
 1  17.63551061556156  0.74316163506351 -1.14289786558656
 1  18.39537032963296  2.31102526022602  0.91412941824182
 1  18.78686584688469  0.92681686268627  1.90669066936694
 1  20.57308222092209  0.09591573977398 -0.02208514451445
 1  20.01369547614761  2.99853341524152 -0.93020661406141
 1  21.33982823492349  2.03827047984799 -1.57133849714971
 1  19.55042894729473  1.54705651645165 -1.87593456245625
 1  21.11398737393739  1.37339544864486  2.15151476867687
 1  22.36492819911991  2.17150838053805  0.73104807110711
 1  20.66543627352736  2.96588667196720  1.42363280378038
=======
12 -7.05857643064306  0.59737848594860  0.13422110951095
 6 -4.92697731573157 -1.93100427882788  0.66060259295930
 6 -4.74917484638464  2.77566601390139  1.10730709560956
 6 -9.34433916941694  3.09485498099810 -0.51689454915492
 6 -9.47537785148515 -1.77954346534653 -0.97999442854285
 7 -5.14572799739974  0.41700151825183  0.86670708900890
 6 -4.41268097419742 -0.72594241624162  1.05589361256126
 6 -2.88345735113511 -0.41983140884088  1.36085643984398
 6 -3.05019845824582  1.11410407870787  1.82445317601760
 6 -4.32569956485649  1.53083383218322  1.20090712061206
 6 -2.92394747684768  1.21887417551755  3.28957036593659
 6 -1.89611307230723 -0.65146040744074  0.25566952525253
 6 -0.45058248084808 -0.50302464966497  0.72373650295030
 6  0.53972510971097 -0.75460897379738 -0.42692807330733
 8  0.24025526562656 -1.02857826542654 -1.60644697639764
 8  1.77842965346535 -0.41478887528753 -0.11107789668967
 7 -7.02609305720572  2.60335592539254  0.28352704820482
 6 -6.03621290029003  3.28804978077808  0.75087862146215
 6 -6.38444569766977  4.70307459685969  0.83045373257326
 6 -7.71561426842684  4.79398002950295  0.46021441274127
 6 -8.11449572117212  3.46105530083008  0.08332087838784
 6 -5.38872682938294  5.72484495039504  1.28072283278328
 6 -8.55539333693369  6.02118315201520  0.25241222662266
 6 -8.51733562486249  7.32222834143414  0.68529477927793
 7 -8.97807007960796  0.66432929402940 -0.70961499519952
 6 -9.70847710741074  1.75638559165917 -0.84694101820182
 6 -11.11419051565156  1.45671401050105 -1.23377509700970
 6 -11.16326873077308  0.14127949204920 -1.44371308530853
 6 -9.83589927062706 -0.33128510281028 -1.01779679577958
 6 -12.15174399809981  2.46609718071807 -1.48664543934393
 6 -12.27244179047905 -0.68250566066607 -1.90849165766577
 6 -12.30212770117012 -0.91875428662866 -3.45372049064907
 7 -7.21760122842284 -1.31921153475348 -0.07869254625463
 6 -8.29068930873087 -2.22873804590459 -0.63114807000700
 6 -7.85851199679968 -3.58232650015002 -0.61805908320832
 6 -6.55876976107611 -3.55855019201920 -0.13195492739274
 6 -6.22783537993799 -2.19798808010801  0.19376218041804
 6 -8.45323279067907 -4.87251009340934 -0.91526000440044
 6 -5.39321379167917 -4.36071995549555  0.28220109270927
 8 -5.14598343624362 -5.50975545894589  0.24918194889489
 6 -4.24463804320432 -3.36969275907591  0.61258112341234
 6 -3.44755538643864 -3.72079730103010  1.95053542644264
 8 -3.61940354095410 -3.00491722792279  2.94536721782178
 8 -2.75121631533153 -4.71551627402740  1.84016259715972
 6 -2.11668225612561 -5.24018824792479  2.98202313781378
 6  2.78475098679868 -0.64394218881888 -1.17141834223422
 6  4.14619670867087 -0.45326350265026 -0.56378652765277
 6  5.14586807120712  0.35257152255226 -1.08082785548555
 6  5.12557098009801  1.10409305860586 -2.36187035233523
 6  6.33067740054005  0.48313016321632 -0.27049353455346
 6  7.56390392829283 -0.21669201610161 -1.02947989848985
 6  8.78539041164117 -0.18075320572057 -0.12582439523952
 6  10.03223384788479 -0.61894896659666 -0.82738370887089
 6  10.01105780598060 -2.09395033113311 -1.38259172417242
 6  11.27249012591259 -0.33364714551455  0.01030189878988
 6  12.68935384308431 -0.57012106320632 -0.65614563746375
 6  13.87032650105010 -0.06947815061506  0.19062613011301
 6  15.21415754065407 -0.23279700880088 -0.48733697349735
 6  15.63301497039704 -1.58343597739774 -0.83960357805781
 6  16.31920602650265  0.39067342734273  0.39696420362036
 6  17.63045763516352  0.63694509290929 -0.24316013061306
 6  18.68480885038504  1.33242145914591  0.63498393139314
 6  20.20091876107611  1.40093042654265  0.11520628382838
 6  20.27519887368737  2.20127842504250 -1.13325431813181
 6  21.26451738253825  2.00379331563156  1.20285564896490
 1 -4.16533801830183  3.58972449384938  1.59665425232523
 1 -10.12961335403540  3.85668650365036 -0.69207459895990
 1 -10.17995128452845 -2.48907824862486 -1.31433808600860
 1 -2.81279773667367 -0.97652596649665  2.31457214841484
 1 -2.19499310451045  1.69540312291229  1.18944959535954
 1 -1.92103656115612  1.01328178107811  3.58778249174918
 1 -3.04732979297930  2.37922197969797  3.53504566996700
 1 -3.95467891059106  0.74502918691869  3.78545095789579
 1 -2.00907339223922 -1.66629659005901 -0.22190609980998
 1 -2.14429610211021  0.21424867526753 -0.37987802740274
 1 -0.40933445084508  0.47750236413641  1.32541294039404
 1 -0.39359716171617 -1.24567908310831  1.69088304350435
 1 -5.65599437483748  6.66980562466247  0.60797650685068
 1 -5.70546753615362  5.70135349844985  2.40884718181818
 1 -4.45061901790179  5.60684185058506  1.03090626622662
 1 -9.31071312381238  5.65574172227223 -0.51516174437444
 1 -9.19583079897990  8.03905464436444  0.47056667846785
 1 -7.92557202300230  7.84614101360136  1.52575096059606
 1 -11.67850195529553  3.09000932693269 -2.25061806650665
 1 -13.04598426762676  1.94983887508751 -2.01241243274327
 1 -12.33360509160916  2.83012166686669 -0.63722496649665
 1 -12.18628340674067 -1.72892233733373 -1.34685964086409
 1 -13.13576229512951 -0.09638637543754 -1.71171669916992
 1 -13.13446979957996 -1.42557724392439 -3.63851373587359
 1 -12.48452201640164 -0.12399693729373 -4.24291778747875
 1 -11.62255853515352 -1.51564643174317 -3.77085570557056
 1 -8.71995159815982 -4.62695343824382 -1.98372163626363
 1 -7.87165653045304 -5.84914491869187 -0.74653426642664
 1 -9.30654053895389 -5.23467848914891 -0.40905272787279
 1 -3.39415011091109 -3.25549880058006 -0.17944321582158
 1 -1.26258442494249 -4.34833127282728  3.42064497979798
 1 -2.86553616221622 -5.49286090369037  3.89282212111211
 1 -1.64330244174417 -5.99525879907991  2.60295424832483
 1  2.55045434953495 -1.57014885078508 -1.43912787778778
 1  2.48227570517052  0.02226650625062 -1.88320147234723
 1  4.05930683628363 -1.18764097929793  0.19881309730973
 1  4.10471943544354  1.12343105350535 -2.70637900760076
 1  5.32504791649165  2.28355861476148 -2.06245271347135
 1  5.69075638323832  0.88507961546155 -3.08416714771477
 1  6.44966702960296  1.45379937993799 -0.28105546274627
 1  6.32806692609261 -0.14785282268227  0.78018773547355
 1  7.10534791949195 -1.10427966316632 -1.34556588018802
 1  7.85309774567457  0.22642585068507 -2.07180010361036
 1  9.06373842544254  0.85630351535154  0.14296192839284
 1  8.68565705440544 -0.89382488868887  0.57943580728073
 1  10.13708125952595  0.13321585928593 -1.63031792129213
 1  9.37347233273327 -2.41461943844385 -2.15258118291829
 1  11.15785834153415 -2.43077986188619 -1.66953119701970
 1  9.75138802480248 -2.61296323832383 -0.42582202190219
 1  11.28609629052905  0.65685791599160  0.39957144464446
 1  11.38303135653565 -0.86798275957596  0.99860048164816
 1  12.82454577347735 -1.53601176237624 -0.86548421602160
 1  12.74809856235624 -0.17113642264226 -1.55144850615062
 1  13.75907734443444  0.95429798579858  0.48849619261926
 1  13.74920767386739 -0.90742034673467  1.20748726522652
 1  15.34477776627663  0.55910539553955 -1.32257661566157
 1  15.55041248414842 -2.28643893599360 -0.05896735063506
 1  15.09535258595860 -2.02167454305431 -1.59345676077608
 1  16.67190682008201 -1.60334585948595 -1.26103757325733
 1  16.01622682338234  1.23904173787379  0.70225676997700
 1  16.58111255845585 -0.11925110021002  1.36684944614461
 1  17.96538747744775 -0.36557310471047 -0.61547488788879
 1  17.56550361486149  1.42111943084308 -1.16587016281628
 1  18.48410920352035  2.44208836653665  0.77165517081708
 1  18.44920208050805  0.63563774477448  1.41785178547855
 1  20.68929384208421  0.54726087428743 -0.34205714171417
 1  19.72839694629463  3.19706326822682 -0.86447004040404
 1  21.26321057315732  2.24211086388639 -1.52435379867987
 1  19.58907281168117  1.73255506630663 -1.91397836683668
 1  21.24970094529453  1.47880598969897  2.09587920512051
 1  22.25149685598560  2.05117634733473  0.78157312361236
 1  21.10009973987399  3.00144022732273  1.62798323882388
>>>>>>> 8e03b5b5abfc0030b3aa597dc0de36371bfbd096

