%nproc=4
%Mem=2GB
# td=(NStates=1) CAM-B3LYP/6-31G(d,p) 

TD

0 1
<<<<<<< HEAD
12 -7.14113468646865  0.54001274937494  0.09862755015502
 6 -4.92876749474947 -2.00433161156116  0.52503903660366
 6 -4.78150807970797  2.83562200950095  1.18662502740274
 6 -9.40377511301130  3.14347984348435 -0.30157301700170
 6 -9.58000831453145 -1.69253476447645 -0.73682011111111
 7 -5.02916634123412  0.42728254635464  0.77589800810081
 6 -4.28346805290529 -0.75359518151815  0.80003802700270
 6 -2.84347335273527 -0.47505693139314  1.15447580178018
 6 -2.97787122552255  1.01759442774277  1.55562629332933
 6 -4.37973496839684  1.53764451325133  1.19239626952695
 6 -2.88626370847085  1.21434372247225  3.17023843274327
 6 -1.91046450745075 -0.60825608700870 -0.06064210591059
 6 -0.54283170577058 -0.53938828602860  0.37732186148615
 6  0.47539867706771 -0.71432494539454 -0.71454683518352
 8  0.21426266636664 -0.91779718731873 -1.89399573127313
 8  1.76925873637364 -0.59407680408041 -0.19226601550155
 7 -7.11478192609261  2.60014560436044  0.32427112261226
 6 -6.02239151815182  3.35141611741174  0.71240477407741
 6 -6.32627988108811  4.71131542094209  0.71802248944894
 6 -7.68017072407241  4.87723835533553  0.37129552085209
 6 -8.16760103170317  3.45222441774177  0.05279782608261
 6 -5.35824378107811  5.87382984888489  1.14427918841884
 6 -8.54632242984298  5.97742877657766  0.17048403380338
 6 -8.31354524582458  7.15475159375938  0.87663391319132
 7 -9.05996826942694  0.67603046414641 -0.57328136183618
 6 -9.85922218191819  1.83530348344835 -0.61583790789079
 6 -11.11530062666267  1.58907724682468 -1.13600532003200
 6 -11.16096850075007  0.14166953105311 -1.23920263426343
 6 -9.88067374807481 -0.34905687998800 -0.87378239433943
 6 -12.09643846754675  2.66787735873587 -1.42666944174417
 6 -12.39623416971697 -0.73379078917892 -1.77741855035504
 6 -12.32790027842784 -1.02590500170017 -3.25354047264726
 7 -7.25603507180718 -1.37226684028403 -0.17814249124912
 6 -8.38756899669967 -2.23113828592859 -0.47294224942494
 6 -7.86900304590459 -3.63368163566357 -0.33904118141814
 6 -6.51749563366337 -3.58399273627363 -0.01611334323432
 6 -6.21790438683868 -2.30391867316732  0.13557636183618
 6 -8.57607507490749 -4.90787362976298 -0.63611208960896
 6 -5.42196666696670 -4.44575845934593  0.28505137773777
 8 -5.21762059996000 -5.58049253265327  0.19867689838984
 6 -4.23651723112311 -3.29155494529453  0.56551641694169
 6 -3.61134176507651 -3.75672089338934  1.91846221912191
 8 -3.78898049864986 -3.12473921012101  2.99950263136314
 8 -2.65511670537054 -4.67584230663066  1.75067364826483
 6 -2.14755534343434 -5.24064829392939  2.97276221172117
 6  2.75588810051005 -0.78158595319532 -1.22411361176118
 6  4.16752884188419 -0.50073825012501 -0.62956310531053
 6  5.12063554795480  0.30812707810781 -1.10154992769277
 6  5.05293371637164  1.00979362866287 -2.44231839713971
 6  6.37022135493549  0.38762061226123 -0.33496998219822
 6  7.56906444434443 -0.12768311521152 -1.13069001950195
 6  8.86753862646265 -0.06826195659566 -0.23252506530653
 6  10.19701032553255 -0.50510758245825 -0.95457642814281
 6  10.05737243744374 -1.90797173327333 -1.39786325132513
 6  11.30886376327633 -0.10693447424742 -0.00133926532653
 6  12.70029493719372 -0.36617066816682 -0.64178420132013
 6  13.96065553395339 -0.05255645844584  0.25403247074707
 6  15.20847697259726 -0.15012874197420 -0.32912115191519
 6  15.69872154105411 -1.60963859765977 -0.59793941164116
 6  16.33516762266227  0.51634599459946  0.55219972717272
 6  17.82968755815581  0.59276067446745 -0.05392120672067
 6  18.82752312181218  1.34987320432043  0.70737117011701
 6  20.28259692889289  1.35951628512851  0.22627739093909
 6  20.42139349314932  2.06564486168617 -1.05478647134713
 6  21.17131806260626  1.90257319361936  1.32557792119212
 1 -3.97647913241324  3.60489601100110  1.44767935483548
 1 -10.21854224692469  3.95442627762776 -0.62271766326633
 1 -10.34394768416842 -2.33062240304030 -0.99793644584458
 1 -2.69359581648165 -1.10764907880788  2.08492918411841
 1 -2.42750635583558  1.52045562816282  0.98113876427643
 1 -1.95501995949595  0.79534998789879  3.60916462996300
 1 -2.61618667866787  2.39868392589259  3.53704586998700
 1 -3.75961940464046  0.49630431443144  3.63404581738174
 1 -2.21104358925893 -1.69480944134413 -0.58366227542754
 1 -2.20215188768877  0.02006925732573 -1.01269130873087
 1 -0.41525504290429  0.39301391529153  1.07640803990399
 1 -0.19157695969597 -1.12378689388939  1.32531648684869
 1 -5.38720749614961  6.68062670677068  0.36582229142914
 1 -5.47793478287829  6.20211357445745  2.13754005110511
 1 -4.36064002000200  5.62819398579858  1.19886306190619
 1 -9.31224327682768  5.84768091619162 -0.76213644184418
 1 -9.20770198609861  8.05579631853185  0.58977859965997
 1 -7.64776424222422  7.05504190369037  1.74022240774077
 1 -11.85732983808381  3.30288061406141 -2.46189919461946
 1 -13.10565023422342  2.18812270347035 -1.54061525302530
 1 -12.06570830193019  3.50054870957096 -0.59809105310531
 1 -12.46066084448445 -1.50034948004801 -1.22898785368537
 1 -13.43006172507251 -0.30043678047805 -1.50973650115012
 1 -13.26160251285128 -1.62578726492649 -3.49735962046205
 1 -12.29395295949595 -0.06564110171017 -3.97743123882388
 1 -11.43372965226523 -1.63427829492949 -3.65587420742074
 1 -9.21879148214822 -4.58333907680768 -1.81755501960196
 1 -7.99335870067007 -5.71124112831283 -0.92196180918092
 1 -9.32211209610961 -5.14071909320932  0.05223340074007
 1 -3.53297399329933 -3.54683793449345 -0.06376164766477
 1 -1.49111727822782 -4.49767620732073  3.50127304260426
 1 -2.86670627922792 -5.55613723132313  3.70013285218522
 1 -1.44625273677368 -5.99247852105211  2.53531748464846
 1  2.73598290239024 -1.77837967386739 -1.69977394239424
 1  2.60263774137414 -0.16093181358136 -2.03236638883888
 1  4.31405231083108 -0.89498171337134  0.29384260026003
 1  4.05438440194019  1.13564227462746 -2.69525789548955
 1  5.65559097079708  2.05523578247825 -2.33930039823982
 1  5.63399070667067  0.47118822632263 -3.43104183518352
 1  6.49675173807381  1.38450245024503  0.02519516231623
 1  6.33506762616262 -0.19206724412441  0.61487120382038
 1  7.41953933863386 -1.24231346654665 -1.37393871747175
 1  7.62964540044004  0.31690489858986 -2.13358628222822
 1  9.12842489408941  0.93888177317732  0.00979861206121
 1  8.67640612931293 -0.68189369556956  0.55215307900790
 1  10.39846739813981  0.32499503720372 -1.82939782928293
 1  9.33909889538954 -1.85306328282828 -2.29057498229823
 1  11.16613916961696 -1.99366615051505 -1.69603384728473
 1  9.75482836883688 -2.53756569856986 -0.42084152385238
 1  11.29531721262126  1.19041127132713  0.16232772027203
 1  11.18765181858186 -0.67693365466547  0.91679230083008
 1  12.64938825772577 -1.50702886408641 -0.86393406100610
 1  12.95309906240624  0.20436112711271 -1.44447780908091
 1  13.70473190989099  1.04697725372537  0.64669201220122
 1  13.65064781788179 -0.62310191489149  1.16244276077608
 1  15.19931321982198  0.30949043404340 -1.29627398539854
 1  15.78737618051805 -2.23578387048705  0.31503004910491
 1  14.94984803550355 -2.18596097169717 -1.26810422552255
 1  16.53364299369937 -1.49153467836784 -1.25269673917392
 1  15.92198739943994  1.51289912361236  0.96828337263726
 1  16.45924037123712 -0.24471364646465  1.42800556175618
 1  18.21154209290929 -0.33065961336134 -0.34869821022102
 1  17.61139820432043  1.07753507240724 -0.92948652445245
 1  18.44328512111211  2.35990014771477  0.78606661196120
 1  18.84843200350035  0.99577375837584  1.80005000530053
 1  20.51808672137214  0.31521766996700  0.02388945294529
 1  20.00013412001200  3.04553811571157 -1.06327992139214
 1  21.56002025412541  2.22987964076408 -1.12327369066907
 1  19.96138004240424  1.53321513231323 -1.95919288828883
 1  20.85325130033003  1.38350645974597  2.18973859105911
 1  22.21181288758876  1.90699192889289  1.09093405970597
 1  20.69334906480648  2.98846893019302  1.34232467296730
=======
12 -7.19222979597960  0.61020976907691  0.12029971737174
 6 -4.87667228522852 -1.95076625502550  0.51074760746075
 6 -4.89713964286429  2.79892834013401  1.13246961186119
 6 -9.42570730623062  3.06798229372937 -0.36948980868087
 6 -9.53641395509551 -1.72963847484748 -0.79808623772377
 7 -5.11367479207921  0.43255307340734  0.60964138243824
 6 -4.31026073217322 -0.75407522952295  0.76472449564957
 6 -2.94077308270827 -0.37892731843184  1.31410176437644
 6 -2.99058249664966  1.14600726902690  1.57949868056806
 6 -4.28207520242024  1.50239098789879  1.08666569646965
 6 -2.92793787588759  1.32878516661666  3.20997240614061
 6 -1.92070553155316 -0.67771303270327  0.10915487378738
 6 -0.45547296989699 -0.46069041624162  0.57729185848585
 6  0.48424956215622 -0.77656116901690 -0.55323070357036
 8  0.13599483958396 -1.04813022062206 -1.71807813951395
 8  1.77027883838384 -0.55764316071607 -0.16543333223322
 7 -7.11761220912091  2.69655524532453  0.25774446994699
 6 -6.04247352635264  3.37367834363436  0.68894242784278
 6 -6.39224647774777  4.82757704710471  0.78327901510151
 6 -7.71816452345235  4.89241987348735  0.36083447474747
 6 -8.14926919851985  3.58218741404140 -0.04735218891889
 6 -5.45003295999600  5.97629009490949  0.97584234473447
 6 -8.51122892049205  6.09771080478048  0.07458444384438
 6 -8.31437532883288  7.16532265086509  0.82514876467647
 7 -9.09578185078508  0.62637549864987 -0.61623565726573
 6 -9.87107336703670  1.76644659775978 -0.64971129522952
 6 -11.21240033663366  1.50641898099810 -1.07763948344834
 6 -11.28270067396740  0.14909027312731 -1.17641635563556
 6 -9.94779045974597 -0.36276825112511 -0.80853586968697
 6 -12.17219604330433  2.52330290129013 -1.39779655445545
 6 -12.40611515781578 -0.72320973107311 -1.62517332583258
 6 -12.19090657905791 -1.15833824502450 -3.06239135773577
 7 -7.28830829912991 -1.37529714331433 -0.12660733773377
 6 -8.27185742554255 -2.24007918001800 -0.51762671787179
 6 -7.80263640924092 -3.54807307480748 -0.54899217651765
 6 -6.45274915901590 -3.54138847584758 -0.19654138603860
 6 -6.24758735513551 -2.11671995329533  0.12754555875588
 6 -8.70990845824582 -4.78908175057506 -0.96757523592359
 6 -5.25802027232723 -4.37054093759376  0.10315318791879
 8 -5.13126196409641 -5.60067455085508  0.01213824452445
 6 -4.14265784518452 -3.30584637443744  0.47322718801880
 6 -3.42545317621762 -3.62392761406141  1.82526289918992
 8 -3.69513111371137 -3.04187092329233  2.89996267736774
 8 -2.53306450015001 -4.65023974637464  1.64271285218522
 6 -2.03258384628463 -5.20618484758476  2.87539247474747
 6  2.84752726442644 -0.91481927652765 -1.11930313071307
 6  4.15831792079208 -0.59919809610961 -0.40937108610861
 6  5.16104958935894  0.21015728112811 -0.86013578627863
 6  4.98301672467247  1.06127877717772 -2.07856202150215
 6  6.43495782858286  0.27393924412441 -0.05347183238324
 6  7.57469500740074 -0.35779612651265 -0.79467641814181
 6  8.99302117471747 -0.27638276867687 -0.01838365116512
 6  10.20381100560056 -0.62482955465547 -0.74219519001900
 6  10.07020372057206 -2.13939487558756 -1.26058952395240
 6  11.41916479337934 -0.36463024382438  0.11539240784078
 6  12.75432033973397 -0.56776082718272 -0.60648067096710
 6  13.84723419181918 -0.09525072787279  0.16132319981998
 6  15.27214333923392 -0.10488421752175 -0.53537177697770
 6  15.53012468136814 -1.47230486428643 -1.08459807750775
 6  16.41204531043104  0.52349670967097  0.36609111631163
 6  17.66933152255226  0.56954835323532 -0.28512432703270
 6  18.71630199969997  1.33446166316632  0.71554198719872
 6  20.18449711891189  1.51913224672467  0.22894765796580
 6  20.20078143194320  2.22820111731173 -1.11680267296730
 6  21.01995292609261  2.11065400170017  1.20313567696770
 1 -4.28000948544855  3.50749627102710  1.74774936183618
 1 -10.00370076277628  3.94094492949295 -0.85760115161516
 1 -10.41299458885889 -2.45016435723572 -1.25544219641964
 1 -2.65202165906591 -0.99801811571157  2.04945563676368
 1 -2.09048265346535  1.54815839843984  1.21400205060506
 1 -1.95829028652865  0.90100055295530  3.65800951445145
 1 -2.82899795979598  2.30325438293829  3.53931609700970
 1 -3.77611105380538  0.92868755275528  3.75027744054405
 1 -2.06317880278028 -1.68728868926893 -0.31854576377638
 1 -1.86126779927993 -0.07738048764876 -0.71683172277228
 1 -0.48949246664666  0.58200281418142  0.93010340944094
 1 -0.01171897389739 -1.18496301150115  1.38875283048305
 1 -5.69770854625463  6.77266591069107  0.38173388258826
 1 -5.32549953935393  6.43712707580758  1.99532582968297
 1 -4.23004696069607  5.98535970237024  0.65942911851185
 1 -9.00525257775778  6.16150229832983 -0.87786801500150
 1 -8.96060727662766  8.08221896079608  0.59460908270827
 1 -7.49679914571457  7.06230262976298  1.67523590909091
 1 -12.11882598769877  3.26734706070607 -2.32931593629363
 1 -13.25619528872887  2.00120401160116 -1.47800899239924
 1 -12.34759649074908  3.31233988868887 -0.63136438043804
 1 -12.42354713311331 -1.58953839893989 -0.83932888778878
 1 -13.30993971287129 -0.30246698349835 -1.41406693419342
 1 -13.08981533413341 -1.69625431163116 -3.13698358285829
 1 -12.01397496169617 -0.17458199579958 -3.38497199289929
 1 -11.09454573387339 -1.71473634073407 -3.17839645964597
 1 -9.31391099409941 -4.53161390429043 -1.98102136623662
 1 -8.08010737553755 -5.78430843504350 -1.09027864086409
 1 -9.31912179707971 -4.86003102440244 -0.16117794039404
 1 -3.44380507640764 -3.38974222492249 -0.39712498399840
 1 -1.35938410491049 -4.36295273497350  3.33385630093009
 1 -2.78743835243524 -5.39734135173517  3.41056389528953
 1 -1.33261137263726 -5.93259253245324  2.63752770567057
 1  2.62185148924892 -2.02978481438144 -1.39163312831283
 1  2.87246472407241 -0.33912963336334 -2.04125727792779
 1  4.17463836943694 -1.25792800800080  0.42148536453645
 1  3.94618358185819  0.95098380878088 -2.47346571627163
 1  5.42380779247925  2.19759001790179 -1.68623509170917
 1  5.76519382698270  0.69082018951895 -2.67750648164816
 1  6.84031609450945  1.15859985998600  0.26467911071107
 1  6.34660878027803 -0.36006404380438  0.75404512121212
 1  7.49722710741074 -1.37080631583158 -0.99051037463746
 1  7.62849528542854  0.18369157725773 -1.66943986758676
 1  9.14679673127313  0.88001588658866  0.17656528872887
 1  8.79402789148915 -0.91265677187719  0.84151201490149
 1  10.29495704710471  0.06540907860786 -1.48807369686969
 1  9.05083006850685 -2.40774875137514 -1.77325325012501
 1  10.89328188388839 -2.46637342124212 -1.74033827772777
 1  9.99899278527853 -2.69840178217822 -0.39851929162916
 1  11.29411709260926  0.66428865906591  0.35416690419042
 1  11.21193424682468 -1.02907886918692  1.02843346494649
 1  12.91546486538654 -1.62183034423442 -0.80751841944194
 1  12.69453320582058  0.07750844184418 -1.39140250155016
 1  13.67284872157216  0.98730128612861  0.65857320032003
 1  13.90724347744774 -0.93757336203620  1.06429294579458
 1  15.47701098959896  0.48305779077908 -1.33922828082808
 1  15.60163760666067 -2.16951724382438 -0.27571902580258
 1  14.82723577427743 -1.89571194679468 -1.80258767386739
 1  16.52983261266127 -1.62651817671767 -1.59578104760476
 1  16.05013021372137  1.49574740844084  0.69299584388439
 1  16.46470091729173 -0.14857403250325  1.32322508370837
 1  18.18300923962396 -0.32963951135114 -0.46719005940594
 1  17.63795085958596  0.97143446234623 -1.22761633743374
 1  18.39171996459646  2.37740189788979  0.98464646994699
 1  18.70766792709271  0.89403358435844  1.71426142644264
 1  20.67736264896490  0.52504865306531 -0.03233616961696
 1  20.00423453005300  3.25271883378338 -0.92054564796480
 1  21.32560681278128  2.31610826362636 -1.46327769106911
 1  19.46987089148915  1.96463827462746 -1.89447641664166
 1  21.28038401360136  1.40782889198920  1.98926854405441
 1  22.09087079337934  2.32868409810981  0.98937390369037
 1  20.66673640354036  3.14120420372037  1.55100554105411
>>>>>>> 8e03b5b5abfc0030b3aa597dc0de36371bfbd096

