%nproc=4
%Mem=3GB
# td=(NStates=1) iop(3/107=0140000000,3/108=0140000000) CAM-B3LYP/6-31G(d,p) 

TD

0 1
12 -7.17831252295229  0.61411979547955  0.11998836883688
 6 -4.83097191369137 -1.93496072667267  0.47041244364436
 6 -4.77884391499150  2.77181589948995  1.26977708290829
 6 -9.32918968346835  2.96965451845185 -0.43320579587959
 6 -9.43785988398840 -1.73479524522452 -0.92739954485449
 7 -5.08191522272227  0.44853094369437  0.77593541754175
 6 -4.36535878317832 -0.69513065626563  0.82328022272227
 6 -2.96983320392039 -0.41528992699270  1.26113178227823
 6 -3.06717994489449  1.06505520712071  1.78492477177718
 6 -4.34770500520052  1.49224387548755  1.33735812971297
 6 -2.98563474427443  1.22776559585959  3.30145546014601
 6 -2.04471020072007 -0.53601959115912  0.17098090839084
 6 -0.52806851605161 -0.49136238423842  0.59142252455246
 6  0.45960788398840 -0.72152877477748 -0.51867165726573
 8  0.18566878367837 -0.96327010471047 -1.66968436153615
 8  1.81608020642064 -0.52831276967697 -0.09334472207221
 7 -7.10908855225523  2.59183239313931  0.38775970007001
 6 -6.00956109990999  3.36940070747075  0.77636351245125
 6 -6.33926883528353  4.82373923752375  0.67390564926493
 6 -7.74917970327033  4.85082688788879  0.37648377477748
 6 -8.06179570707071  3.46262320112011  0.04908290689069
 6 -5.49670170407041  5.94491396509651  1.16447660286029
 6 -8.42545255325532  6.07478774837484  0.09614022652265
 6 -8.34505291529153  7.30873002270227  0.58091215051505
 7 -9.04503354445445  0.61599859425943 -0.58460503440344
 6 -9.77200468676868  1.73567689198920 -0.67150996449645
 6 -11.11655560826083  1.45069451395140 -1.12975783548355
 6 -11.09604909210921  0.09002654845485 -1.24622465076508
 6 -9.81324892849285 -0.40689088248825 -0.88075027632763
 6 -12.24543548124812  2.57468270967097 -1.47660711341134
 6 -12.25163895679568 -0.74304042784278 -1.82843217381738
 6 -12.01088299719972 -1.22475266756676 -3.23305395659566
 7 -7.26225918831883 -1.36833166886689 -0.18225090019002
 6 -8.21774610091009 -2.28328687418742 -0.65144672457246
 6 -7.82585462526253 -3.60890144154415 -0.62181248104810
 6 -6.46861465196520 -3.50544352645265 -0.15548763046305
 6 -6.20781451315132 -2.20722867866787  0.01766360176018
 6 -8.58703104260426 -4.88940503890389 -0.85795917901790
 6 -5.37289275217522 -4.33168673207321  0.24506948104810
 8 -5.15762675497550 -5.54942179917992  0.24019996859686
 6 -4.21997650025003 -3.38540598799880  0.63022134373437
 6 -3.46122029882988 -3.60381832453245  1.90381635013501
 8 -3.74420720412041 -3.10707806570657  2.96739009720972
 8 -2.70787614041404 -4.74036265476548  1.81541057855786
 6 -2.10711966896690 -5.32520772667267  2.96251365176518
 6  2.80388670907091 -0.62948123702370 -1.20183370057006
 6  4.07629851505150 -0.37015228312831 -0.55424798759876
 6  4.98257374867487  0.52016854485449 -0.99368224522452
 6  4.94333805940594  1.43955163046305 -2.12662679767977
 6  6.24842112081208  0.41663227922792 -0.17249777417742
 6  7.52422387498750 -0.05592414041404 -1.08498882758276
 6  8.84202191379138 -0.10623243934393 -0.16900300270027
 6  10.12895835643564 -0.45089675287529 -0.89402512251225
 6  10.14386766336634 -1.94737261716172 -1.34379134513451
 6  11.29776444024402 -0.20911580268027  0.02333437093709
 6  12.72033976947695 -0.37768780228023 -0.76053355845585
 6  14.00709198099810 -0.15298101240124  0.16510292189219
 6  15.30338632963296 -0.11812089568957 -0.61774742724272
 6  15.68412468346835 -1.51139952825283 -1.13021484778478
 6  16.34961195389539  0.32846936423642  0.39115385008501
 6  17.76959454715472  0.41963569316932 -0.17292381938194
 6  18.81731214981498  1.06279435793579  0.80210346704670
 6  20.18759156355636  1.12887231973197  0.21285799179918
 6  20.19141198699870  2.02509981508151 -1.02297699359936
 6  21.11292635963596  1.76609830973097  1.33501744174417
 1 -3.98520888438844  3.46179943134313  1.74654074987499
 1 -10.11588371167117  3.92665493999400 -0.63802832903290
 1 -10.20280470457046 -2.43631916701670 -1.45660347974797
 1 -2.70464775197520 -1.16181638433843  2.07954444514451
 1 -2.13948741504150  1.56330839193919  1.28878252725273
 1 -1.95942902930293  1.06960606700670  3.73230356775678
 1 -3.27656476557656  2.30676989978998  3.45290331253125
 1 -3.68178097859786  0.59015416971697  3.91126281148115
 1 -2.21958707770777 -1.49634030483048 -0.40267827492749
 1 -2.32330869986999  0.37054467426743 -0.55290202480248
 1 -0.34873030173017  0.43694328162816  0.95290915391539
 1 -0.43989240954095 -1.18306907350735  1.35098855715572
 1 -5.43965814351435  6.84418193019302  0.50525035633563
 1 -5.57614908620862  6.12893577497750  2.25126713921392
 1 -4.46695153975398  5.60640490849085  1.07320805340534
 1 -9.38526878667867  5.94954833683368 -0.47084843754375
 1 -9.16809587328733  7.97901762276228  0.15982575827583
 1 -7.63563149524953  7.49224606100610  1.42244120442044
 1 -12.01257173017302  3.17673682078208 -2.53528936043604
 1 -13.11027832553255  1.94957369976998 -1.79659538773877
 1 -12.31020205290529  3.27102443654365 -0.67911835133513
 1 -12.40957292219222 -1.50628155095510 -1.15891939283928
 1 -13.13470576967697 -0.14388709920992 -1.75953170757076
 1 -12.86061126032603 -1.81430509260926 -3.63987494559456
 1 -11.82735314101410 -0.40425889718972 -3.89735871427143
 1 -11.11037587698770 -1.87847887508751 -3.25996427462746
 1 -9.09354397299730 -4.80761726252625 -2.02678874187419
 1 -7.94696908210821 -5.95281123442344 -1.08395835093509
 1 -9.57977215621562 -4.95208365676568 -0.19806207490749
 1 -3.32591010951095 -3.57418402400240 -0.01363910201020
 1 -1.46113950155016 -4.58983119651965  3.57024874247425
 1 -2.87329376667667 -5.34851437633763  3.81091212891289
 1 -1.52348286878688 -6.22185297009701  2.66809017011701
 1  2.61394944974497 -1.54024064686469 -1.66664811351135
 1  2.26879332063206 -0.05939785498550 -1.96279733723372
 1  4.16074656135614 -0.99986840064006  0.38120952115212
 1  3.94851016251625  1.65396093879388 -2.61838232393239
 1  5.33790072227223  2.58065848974897 -1.90752819121912
 1  5.69233880238024  0.76779797069707 -2.62363862076208
 1  6.38950713461346  1.44235421602160  0.14079369326933
 1  6.34565243734373 -0.49601693839384  0.56009220472047
 1  7.50389251205121 -1.09152982598260 -1.40364512171217
 1  7.58115067356736  0.57456655965597 -1.96037686058606
 1  9.13937998229823  0.76473597109711  0.43708613671367
 1  8.56778989978998 -0.81762011471147  0.67809393279328
 1  10.30717534933494  0.14114026182618 -1.81388654665467
 1  9.20690029912991 -1.94465274877488 -1.96286466836684
 1  10.89710885148515 -2.10464386368637 -2.13533889198920
 1  10.19151134823482 -2.61266538123812 -0.61366876057606
 1  11.25363700530053  0.87357379077908  0.45032280308031
 1  11.45589318481848 -0.80988228582858  0.83469979007901
 1  12.63795174767477 -1.37067448674868 -1.04429670117012
 1  12.70952678257826  0.21570650665067 -1.66074040774077
 1  13.86603802410241  0.77830319361936  0.78327315601560
 1  14.12980129072907 -0.88609498839884  0.90130250425042
 1  15.28387878927893  0.60161355835584 -1.58372964176418
 1  15.70743454025403 -2.12676201740174 -0.43580171567157
 1  14.56266791119112 -1.91115563556356 -1.64809618311831
 1  16.47557583718372 -1.66951784878488 -1.67739425272527
 1  16.01203447694769  1.31719005270527  0.81987790409041
 1  16.58600267806781 -0.24662094689469  1.51912040674067
 1  18.11859859755976 -0.53966048004801 -0.44050424602460
 1  17.53230053965396  1.09489838393839 -1.09971571517152
 1  18.45112416931693  2.09876114411441  0.91093304010401
 1  18.88069403190319  0.39676451595160  1.72859610511051
 1  20.66462629492949  0.11764276187619  0.02671856405641
 1  19.97555437393740  3.17315809230923 -0.85504768946895
 1  21.18313211401140  2.06264740684068 -1.39420740194019
 1  19.46509490709071  1.78416870707071 -1.57625601000100
 1  21.03921777527752  1.40566620752075  2.19153282208221
 1  22.19098699149915  1.84880535123512  0.94162081568157
 1  20.80749082758276  2.87678379557956  1.48306544324432

