%nproc=4
%Mem=2GB
# td=(NStates=1) CAM-B3LYP/6-31G(d,p) 

TD

0 1
12 -7.01663223622362  0.67209595769577  0.00258794619462
 6 -4.89022364036404 -2.01950312871287  0.51601813451345
 6 -4.78277820672067  2.78745719301930  1.15975234013401
 6 -9.45448018351835  3.07364285978598 -0.43983684338434
 6 -9.52773308700870 -1.76806231723172 -1.03350978007801
 7 -5.12703612821282  0.34382420052005  0.77260767906791
 6 -4.33211291739174 -0.74347416941694  0.82799082228223
 6 -2.90947995339534 -0.41373079877988  1.20891124532453
 6 -3.10246368476848  1.08577124542454  1.76343707440744
 6 -4.47202419731973  1.49155990479048  1.11429845974597
 6 -3.11631671377138  1.24913720182018  3.26455786468647
 6 -1.87164062506251 -0.64269953135314  0.10491444974497
 6 -0.51088851145115 -0.51141548874887  0.65547967726773
 6  0.52261339853985 -0.77581109400940 -0.40337571807181
 8  0.20866210631063 -0.97900330793079 -1.54849118081808
 8  1.85181699219922 -0.50289768616862 -0.00234702360236
 7 -7.03139358725873  2.64179976977698  0.26262495799580
 6 -6.02420169916992  3.34966594239424  0.75818935253525
 6 -6.32692994609461  4.70644493389339  0.75401608880888
 6 -7.66236894389439  4.89565019651965  0.34043243454345
 6 -8.11991626322632  3.41657085238524  0.05954850115011
 6 -5.53436139283928  5.94747721362136  1.01273603410341
 6 -8.46087388498850  6.06086712041204  0.13792077747775
 6 -8.33439733103310  7.21672779137914  0.80602685248525
 7 -9.10546281888189  0.68025088618862 -0.54943897759776
 6 -9.91445770547055  1.75296524962496 -0.74681100520052
 6 -11.19958905550555  1.44466280538054 -1.20489220872087
 6 -11.27918032193219  0.03541890599060 -1.29909862386239
 6 -9.96109178987899 -0.45022699699970 -0.94698971507151
 6 -12.32004082778278  2.52613318431843 -1.46501327612761
 6 -12.45826037233723 -0.74960237033703 -1.70928173667367
 6 -12.43017050545055 -1.03378578977898 -3.19550466906691
 7 -7.20523999229923 -1.40803041664166 -0.26147082408241
 6 -8.27051729152915 -2.22907807990799 -0.55740069526953
 6 -7.87728387398740 -3.55284355185519 -0.50112739003900
 6 -6.59661354545455 -3.61479581658166 -0.09004073597360
 6 -6.27902049844985 -2.19112739403940  0.10774357855786
 6 -8.66245371277128 -4.78494133653365 -1.10979945834583
 6 -5.43504797509751 -4.44263814731473  0.26460933353335
 8 -5.19689852775278 -5.59166364976498  0.41015804650465
 6 -4.27122070147015 -3.34458024782478  0.55702556785679
 6 -3.57901853275328 -3.67738295959596  1.84867524042404
 8 -3.62683428402840 -3.10280701690169  2.87052973407341
 8 -2.79869106280628 -4.77348207060706  1.70273885478548
 6 -2.27895848374837 -5.18505273437344  2.95560049554955
 6  2.84517702940294 -0.68316611121112 -1.09806100650065
 6  4.16620870987099 -0.41834001030103 -0.37102725172517
 6  5.12509599399940  0.33127939333933 -0.84707448014801
 6  5.13597202020202  1.14464711401140 -2.19542370767077
 6  6.44278861166117  0.44038588878888 -0.04078056325633
 6  7.62496003390339 -0.02651299819982 -0.86347329782978
 6  8.91833370597060 -0.08387351775178 -0.10909272207221
 6  10.17045767026703 -0.46144321602160 -0.79365033553355
 6  10.14119081928193 -1.93813474957496 -1.23578704370437
 6  11.47375025192519 -0.15971975277528 -0.05581471287129
 6  12.78720362806281 -0.50777482858286 -0.66342636553655
 6  13.97753722212221 -0.02541374417442  0.06568363586359
 6  15.35754187908791 -0.13379710881088 -0.55672391219122
 6  15.59349101800180 -1.55615324912491 -0.95648526622662
 6  16.36464056995700  0.43391775177518  0.42752725992599
 6  17.87604219361936  0.49134053245325 -0.20993680828083
 6  18.90105047454745  1.15765398239824  0.67601803480348
 6  20.34671334053405  1.30275060856086  0.12843760696070
 6  20.27362871667167  2.12750104730473 -1.12906389908991
 6  21.38860979177918  1.95448838513851  1.09506486988699
 1 -4.08594007850785  3.53648917031703  1.48901348824882
 1 -10.10773116581658  3.90363119811981 -0.41995738723872
 1 -10.39473276267627 -2.44637397819782 -1.20280693289329
 1 -2.71254771167117 -1.04809312321232  2.03074376557656
 1 -2.20514411961196  1.75484906750675  1.47819847024702
 1 -2.19136359385939  1.03705415831583  3.72203591709171
 1 -3.50460552055205  2.32377643514351  3.55576774217422
 1 -4.01159460216022  0.72717740174017  3.73911632443244
 1 -1.92552503740374 -1.70890085048505 -0.21961587078708
 1 -1.94600627312731  0.03997124752475 -0.73025306490649
 1 -0.35267878527853  0.49478409230923  1.02223262236224
 1 -0.13444124612461 -1.29068358355836  1.44687864306431
 1 -5.82426120152015  6.64642328642864  0.18842455165517
 1 -5.70560755015502  6.49963332643264  2.11629792689269
 1 -4.27925188118812  5.74887605400540  0.92915609120912
 1 -9.38974102660266  5.75476162426243 -0.64169439763976
 1 -9.16474769066907  7.83436417531753  0.74982460426043
 1 -7.48532799859986  7.36014241374137  1.62418080358036
 1 -12.13363746884689  3.33119344534453 -2.31025403010301
 1 -13.12110177937794  1.86855074627463 -1.75152634413441
 1 -12.45346707780778  2.95210386508651 -0.46913815781578
 1 -12.37675245364536 -1.80440988608861 -1.13929888478848
 1 -13.43645236413641 -0.38758549534954 -1.44718024552455
 1 -13.39747610021002 -1.53768845504550 -3.58746863136314
 1 -12.16775033923392  0.00377583998400 -3.64488798449845
 1 -11.55490176947695 -1.69842470957096 -3.52153077307731
 1 -8.99108871187119 -4.52687343024302 -2.14115737983798
 1 -7.97963732853285 -5.73742374657466 -1.21167078007801
 1 -9.68776866176618 -4.97971299259926 -0.31738356095610
 1 -3.51252194809481 -3.68597184788479 -0.27824309580958
 1 -1.62048021452145 -4.30824726442644  3.41747466276628
 1 -3.10936054465447 -5.37210882848285  3.71889472837284
 1 -1.65972408390839 -6.00939021222122  2.69579353225323
 1  2.50412971707171 -1.56120795669567 -1.55292925792579
 1  2.58369584718472  0.03517779737974 -1.87201035323532
 1  4.26212711831183 -0.94253646884689  0.46241945794579
 1  4.10935989948995  1.46896560696070 -2.55716408610861
 1  5.53361877357736  2.13531379027903 -1.90267673587359
 1  5.76044335193519  0.55380648814882 -3.03368209920992
 1  6.52637470037004  1.50045404540454  0.27620026282628
 1  6.31684580398040 -0.16958499589959  0.83836355305531
 1  7.13688107280728 -0.88148738393839 -1.02541386498650
 1  7.63870630653065  0.52050525862586 -1.81011393499350
 1  9.00268231983198  0.86228411341134  0.31271890409041
 1  8.67791628032803 -0.83328883508351  0.75111297499750
 1  10.20537808920892  0.20221275897590 -1.68463335283528
 1  9.19291427692769 -2.15032300880088 -1.74953087788779
 1  11.00659321502150 -2.00986777067707 -2.00759500340034
 1  10.17414030003000 -2.79910185218522 -0.47560700040004
 1  11.34418209910991  0.70624285448545  0.32263375087509
 1  11.45360841424143 -0.80497645894589  0.68080870247025
 1  12.85888920782078 -1.75037319851985 -0.81727939553955
 1  12.94632838533853  0.11406209720972 -1.56001936323632
 1  14.04611604830483  0.98526108210821  0.27081442444244
 1  13.96901965506551 -0.40300990569057  1.16105262176218
 1  15.57404069256926  0.49984946994699 -1.53542790079008
 1  15.28462590549055 -2.19148944104410 -0.00910236413641
 1  14.80332338303830 -1.71923429902990 -1.78817623272327
 1  16.54808443784379 -1.76019154405441 -1.43856532603260
 1  16.13326852755275  1.43761159485949  0.86356290059006
 1  16.30112455965596 -0.34689386448645  1.41962472367237
 1  18.47315825452545 -0.43920046744674 -0.50285362576258
 1  17.83620068456846  1.14158147704770 -1.10659423522352
 1  18.52452324492449  2.16777093479348  1.06239424472447
 1  18.82980014031403  0.59994417541754  1.71009100940094
 1  20.72722763546355  0.43743989218922 -0.21455439143914
 1  20.11674578117812  3.12754631653165 -0.96003959735974
 1  21.26507075917592  2.23707035983598 -1.62279364266427
 1  19.73658756315632  1.78014982578258 -2.06592356135614
 1  21.65309128432843  1.40322843194319  2.08406802400240
 1  22.42246395269527  1.86081731143114  0.84688965526553
 1  20.92928265816582  2.94200428372837  1.31240168066807

