%nproc=4
%Mem=2GB
# td=(NStates=1) CAM-B3LYP/6-31G(d,p) 

TD

0 1
12 -7.11094166716672  0.60719946804680 -0.03942625522552
 6 -4.89021363936394 -1.96906808520852  0.49951648434843
 6 -4.67967789668967  2.73191163846385  1.19724608950895
 6 -9.35199993549355  3.13530902640264 -0.41666452615262
 6 -9.62666297999800 -1.80380589158916 -0.80659708880888
 7 -5.08088151275127  0.44975479357936  0.64229464776478
 6 -4.29584929102910 -0.59445926792679  0.70530855405541
 6 -2.95792479787979 -0.34640406610661  1.16392674687469
 6 -2.94030746914691  1.00668333663366  1.65955668636864
 6 -4.32924991989199  1.44590533933393  1.19080611051105
 6 -2.83190827292729  1.13233552165217  3.16330773967397
 6 -1.99393285428543 -0.65298055945595 -0.02194823652365
 6 -0.50703812641264 -0.57536188338834  0.35299942924292
 6  0.47987912511251 -0.72026553945395 -0.82204758525853
 8  0.20189142924292 -1.21429683728373 -1.87040337203720
 8  1.78821063156316 -0.49134653105311 -0.35026181508151
 7 -7.06803725162516  2.62562815261526  0.19853854935494
 6 -6.01705098409841  3.28777975377538  0.77009054265427
 6 -6.34731198429843  4.73652794219422  0.86144683188319
 6 -7.66372907990799  4.87602823432343  0.42916130743074
 6 -8.10528480008001  3.55665486078608  0.00767331363136
 6 -5.51679963666367  5.92612507840784  1.40694545504550
 6 -8.51433923152315  6.12018305200520  0.17042402780278
 6 -8.42341623292329  7.28419453805381  0.71995824562456
 7 -9.07352962556256  0.72453531463146 -0.54144817851785
 6 -9.85822208190819  1.80625057815782 -0.60844716881688
 6 -11.14804390099010  1.45238357745775 -1.09037075657566
 6 -11.21081348524852  0.12022738683868 -1.24415312931293
 6 -9.88523420412041 -0.32841481578158 -0.93704872097210
 6 -12.27881670537054  2.51946251725173 -1.42354912971297
 6 -12.37019156545655 -0.68899630973097 -1.58971978047805
 6 -12.32509999839984 -1.09585199639964 -3.06813193179318
 7 -7.23620308860886 -1.35869548314831 -0.05931060806081
 6 -8.36339657945795 -2.21930710281028 -0.44275923112311
 6 -7.82141828742874 -3.65181344884488 -0.46023330063006
 6 -6.56367025112511 -3.45516985398540  0.00851912001200
 6 -6.28059065546555 -2.01297957925793  0.13322612681268
 6 -8.64899236663666 -4.89123196559656 -0.63982246064606
 6 -5.36871134143414 -4.33673755725573  0.26520939353935
 8 -5.19089792769277 -5.51137562096210  0.16619365006501
 6 -4.16404998439844 -3.24203999379938  0.53622348764876
 6 -3.50052068296830 -3.58826404770477  1.86320669356936
 8 -3.74740634123412 -3.04740147634763  2.90210289138914
 8 -2.70600179387939 -4.62393711611161  1.70668924982498
 6 -2.05154574247425 -5.11585581468147  2.98001293679368
 6  2.77391990369037 -0.80531832643264 -1.31126232663266
 6  4.13575566456646 -0.67544572087209 -0.64557470647065
 6  5.09751323572357  0.11041730713071 -1.05149492219222
 6  5.02134055705571  1.14908755805581 -2.19701386668667
 6  6.37969230203020  0.22368421862186 -0.23062954815482
 6  7.69333687158716 -0.30289063596360 -0.93948089858986
 6  8.94813668626863 -0.23961909230923 -0.10804261706171
 6  10.10398102260226 -0.67204427612761 -0.98324929542954
 6  10.18421512171217 -2.13106404250425 -1.42605607060706
 6  11.38253113001300 -0.33757753855386 -0.14001313271327
 6  12.82519742744274 -0.53866791789179 -0.61535155805581
 6  13.88671814021402 -0.11448265106511  0.25388245574557
 6  15.21761788668867 -0.07497122622262 -0.42145038483848
 6  15.63553522242224 -1.59986762056206 -0.67814743244324
 6  16.33664777067707  0.58761312131213  0.42893740094009
 6  17.77647223662366  0.68632003040304 -0.07432324692469
 6  18.80707107660766  1.39071728872887  0.79301973497350
 6  20.26898556775678  1.44890522402240  0.27228199139914
 6  20.30225157895790  2.28958725592559 -1.00451144384438
 6  21.21587251805181  2.10644358065807  1.29570493389339
 1 -4.01052253675368  3.40982650405040  1.78696328322832
 1 -10.04455484818482  3.79104993999400 -0.43017840934093
 1 -10.47171046044604 -2.59628896969697 -1.07146379857986
 1 -2.60543700060006 -1.04534284818482  1.97412810401040
 1 -2.37020062526253  1.93413699629963  1.22612326272627
 1 -1.75369982748275  0.82529298219822  3.32539625312531
 1 -2.90246530653065  2.11507556505651  3.58688085348535
 1 -3.54642808550855  0.45221990599060  3.69080149294929
 1 -2.38623110801080 -1.58491845224522 -0.57447135633563
 1 -2.10406207870787  0.17230448084808 -0.80799083868387
 1 -0.25226874427443  0.29008362226223  1.26093649274928
 1 -0.24951275327533 -1.31422593779378  0.90462441764176
 1 -5.56784555995600  6.76904554865487  0.61988769796980
 1 -5.63678066746675  6.13499686278628  2.59114541164116
 1 -4.46300025602560  5.74702586898690  1.51478465406541
 1 -9.32410446294629  5.76978312641264 -0.60604083228323
 1 -9.02374359025903  8.19663040194019  0.26163578537854
 1 -7.97486695249525  7.42329872937294  1.61438982448245
 1 -12.11200530563056  2.84622494849485 -2.60104310901090
 1 -13.17702737193719  1.86785067626763 -1.52633382488249
 1 -12.22803453455346  3.24257291199120 -0.76977822182218
 1 -12.67764254265427 -1.70656010111011 -1.12250720562056
 1 -13.46412513141314 -0.22733947074707 -1.41375690319032
 1 -13.28657501010101 -1.66955164136414 -3.41926181068107
 1 -12.36923048724873 -0.11827636523652 -3.59025252095209
 1 -11.43417969726973 -1.63992885998600 -3.66995561556156
 1 -9.31682128512851 -4.88754949784979 -1.45742900700070
 1 -7.97616698149815 -5.73125312951295 -0.69532914591459
 1 -9.47624750965097 -5.06806182748275  0.30072825022502
 1 -3.41643233913391 -3.56681993269327 -0.17551282278228
 1 -1.38450661716172 -4.44832127182718  3.43640655595560
 1 -2.85568517711771 -5.41261287888789  3.64334717361736
 1 -1.55396350785078 -5.81093036623662  2.41363531643164
 1  2.42488179227923 -1.89600143604360 -1.71461542654265
 1  2.75010248784878  0.05733001260126 -2.18572172437244
 1  4.33685459105911 -1.39108132333233  0.23459667566757
 1  3.97736670017002  1.21127983838384 -2.57000537023702
 1  5.54168958065807  2.09572983188319 -2.04426089428943
 1  5.60463777137714  0.74432554005401 -3.08613734473447
 1  6.71814387728773  1.16422042204220  0.02411505430543
 1  6.14673879327933 -0.51289932733273  0.71927164386439
 1  7.46333371807181 -1.44968420362036 -1.35542686628663
 1  7.82862529842984  0.14185739383938 -1.78962188578858
 1  9.01330338193819  0.73698158315832  0.24280191239124
 1  8.93627211591159 -0.76784229042904  0.78773663736374
 1  9.91357890929093  0.16127866556656 -1.91530642014201
 1  9.30525551105110 -2.31704968146815 -2.03936986178618
 1  11.08333088878888 -2.42366915081508 -2.00310455435544
 1  10.15274816081608 -2.91276321832183 -0.73718315801580
 1  11.19614729562956  0.69724195439544  0.10625211271127
 1  11.21796484988499 -0.82728869016902  0.93050367196720
 1  12.76387970687069 -1.65118327952795 -0.82686035363536
 1  12.81781553405341 -0.00958026702670 -1.58669203050305
 1  13.75528696539654  0.94997755375538  0.83518086108611
 1  13.90915366846685 -0.68387799249925  1.13249976647665
 1  15.34352764126413  0.37262674767477 -1.39848420642064
 1  15.56589403230323 -1.95743603570357  0.45022356845685
 1  15.03504655535554 -2.11387376297630 -1.28177559265927
 1  16.73299292869287 -1.61465699059906 -1.01867333683368
 1  15.80805600630063  1.52738057175718  0.68213475777578
 1  16.44812926012601  0.20363118801880  1.39088184938494
 1  17.85750668936894 -0.43155970337034 -0.38407174757476
 1  17.68443550805081  1.41415873477348 -1.11151472727273
 1  18.48657945054505  2.41493565126513  0.94751275657566
 1  18.95096225652565  1.02141632263226  1.79353935423542
 1  20.72938785148515  0.34490063826383  0.00765782978298
 1  19.98347245384538  3.34122768466847 -0.56862045544554
 1  21.32308656075608  2.37357401020102 -1.15971733503350
 1  19.48047195159516  1.81596340714071 -1.79686665566557
 1  21.27267324252425  1.46639474857486  2.03729334653465
 1  22.38214992129213  2.09398062776278  1.17245221152115
 1  20.88706843674368  2.94905498879888  1.67504794529453

