%nproc=4
%Mem=2GB
# td=(NStates=1) CAM-B3LYP/6-31G(d,p) 

TD

0 1
12 -7.01332190519052  0.60556930503050  0.05015270267027
 6 -4.83369798779878 -1.91469264766477  0.46462299499950
 6 -4.73259318821882  2.82150059735974  1.02008837373737
 6 -9.37951268676868  3.07540303580358 -0.37264012371237
 6 -9.63369368306831 -1.76719223022302 -0.78430485958596
 7 -5.10719414401440  0.43123294139414  0.66404682298230
 6 -4.36723642974297 -0.69549937193719  0.68764678787879
 6 -2.86556556195620 -0.28068749444945  1.23225357955796
 6 -3.05213865226523  1.16286895519552  1.68738946964696
 6 -4.40309730463046  1.42872362116212  1.13558058795880
 6 -3.00795587768777  1.35964825292529  3.15271668056806
 6 -1.86390985198520 -0.61546680808081 -0.01205724742474
 6 -0.52121954455446 -0.50726507370737  0.52342647194719
 6  0.53774491169117 -0.75154866776678 -0.61006638713871
 8  0.22801404150415 -1.00406581418142 -1.73024935663566
 8  1.75483729422942 -0.39541693809381 -0.31991878077808
 7 -6.93600404830483  2.58138372817282  0.23038173367337
 6 -6.03188246724673  3.40464143994399  0.67656118971897
 6 -6.36070332343234  4.83938822822282  0.73568425562556
 6 -7.69230193719372  4.87809844134413  0.34011240254025
 6 -8.07006127772777  3.44706390169017  0.06440898719872
 6 -5.47757571427143  5.90148261416142  1.10366512701270
 6 -8.62263006060606  5.99507054075408  0.19735672107211
 6 -8.41191508280828  7.13658977757776  0.79001525132513
 7 -9.11583385598560  0.56253911501150 -0.43603763746375
 6 -9.86774303400340  1.76507646074607 -0.58452477657766
 6 -11.23807290389039  1.41407974707471 -0.96417813731373
 6 -11.37010941484148  0.11924728882888 -1.13458217221722
 6 -9.97706338703870 -0.41191316561656 -0.76132114821482
 6 -12.16582540624062  2.52522309330933 -1.43740051485148
 6 -12.34592913921392 -0.76401381148115 -1.71089189768977
 6 -12.26027351575157 -1.08250066126613 -3.15482060066007
 7 -7.25429489778978 -1.42785239883988 -0.09755443244324
 6 -8.34035427522752 -2.27124229632963 -0.48984393959396
 6 -7.90552669826983 -3.57132540004000 -0.39526680398040
 6 -6.56339022312231 -3.55403974097410  0.03721198929893
 6 -6.19675227162716 -2.21337961926193  0.13849665386539
 6 -8.62561002840284 -4.83095593799380 -0.63924240264026
 6 -5.41823629392939 -4.39861374487449  0.35560843344334
 8 -5.27465630353035 -5.62315679907991  0.20152718341834
 6 -4.20175375477548 -3.31659744954495  0.51119098439844
 6 -3.59049968086809 -3.63218844014401  1.84879525242524
 8 -3.77344894549455 -3.04283101930193  2.84234691579158
 8 -2.64980617431743 -4.65374009640964  1.61293987488749
 6 -1.98831941984198 -5.14115834493449  2.80640557605761
 6  2.80116262796280 -0.58748654325433 -1.40204140454045
 6  4.08326041504150 -0.49793797009701 -0.63628377737774
 6  5.16349983438344  0.27299356475648 -1.07223699639964
 6  5.19229765276528  1.05566821612161 -2.36331049634963
 6  6.39453378617862  0.48039989018902 -0.24128061326133
 6  7.71846938483848 -0.09248959585959 -0.99868681918192
 6  8.95465733833383 -0.05356048644864 -0.11875368816882
 6  10.14167479197920 -0.58344541624162 -0.87974894539454
 6  9.95818251845184 -2.12027296339634 -1.31053451845185
 6  11.43746662356236 -0.45778955975598  0.00574144274427
 6  12.74406931463146 -0.60950500160016 -0.61878190109011
 6  13.95622509090909 -0.19348055085509  0.23879094659466
 6  15.33187931283128 -0.18295202430243 -0.39914815461546
 6  15.76824849374937 -1.51012864666467 -1.07721733943394
 6  16.38188229412941  0.38058241824182  0.50675518271827
 6  17.81357594699470  0.62099349774978  0.02200638603860
 6  18.76923729322932  1.30479869686969  0.97641807480748
 6  20.20265893509351  1.42414274777478  0.29705446864686
 6  20.20026137993800  2.23914221142114 -1.03194418711871
 6  21.14702563336334  1.92638557485749  1.27795315871587
 1 -3.97200868536854  3.60948647004700  1.40198478537854
 1 -9.98311870457046  3.90757159215922 -0.44484987648765
 1 -10.17430071947195 -2.47441678247825 -1.16079273147315
 1 -2.50825728262826 -1.03925223912391  2.03845453665366
 1 -2.08814241944194  1.55988957155716  1.05832648304830
 1 -1.96355081258126  0.93815426832683  3.62000571407141
 1 -3.14504956495650  2.42805686318632  3.41826399179918
 1 -3.66222966566657  0.79741442544254  3.87515992879288
 1 -1.98736122102210 -1.50429038943894 -0.45989989918992
 1 -1.90932260476048  0.01044829522952 -0.72822286188619
 1 -0.20077359475948  0.49394400830083  0.96215661476148
 1 -0.40108791079108 -1.48233274847485  1.19975393059306
 1 -5.62666144154415  6.87300594469447  0.28720442964296
 1 -5.81102809220922  6.33183654675468  2.17648394549455
 1 -4.58824278027803  5.88036920332033  1.22872604820482
 1 -9.50337238973897  6.08262441054105 -0.33742397059706
 1 -9.13410462636264  8.06860759965997  0.81501112291229
 1 -7.49479894569457  7.44363076257626  1.29492787828783
 1 -11.82909701480148  3.18755908190819 -2.29703270797080
 1 -13.19279894909491  1.96216010721072 -1.66294748624862
 1 -12.57201893299330  3.13140179487949 -0.59830107410741
 1 -12.67451222962296 -1.73093253835383 -1.19095405030503
 1 -13.37910662956296 -0.47815455225523 -1.53790931843184
 1 -13.16803315591559 -1.48517320352035 -3.58849873437344
 1 -11.91777534173417 -0.17653219081908 -3.64153764946495
 1 -11.48884516381638 -1.85367023412341 -3.38251687168717
 1 -8.81949155215522 -4.82502324522452 -1.69430269436944
 1 -8.24870423522352 -5.77936794099410 -0.59183879687969
 1 -9.68060794569457 -4.78255327662766  0.00211838923892
 1 -3.45233592949295 -3.48661191189119 -0.46420169166917
 1 -1.00875904240424 -4.42776921662166  3.26418933423342
 1 -2.47606721532153 -5.41964358195820  3.72304514341434
 1 -1.47494560606061 -6.07642691589159  2.66110006290629
 1  2.51813111721172 -1.49946178207821 -2.06306027102710
 1  2.58767624522452  0.27636191579158 -1.98006115831583
 1  4.15765667126713 -1.00063227842784  0.37995121112111
 1  4.29378834233423  0.80045875627563 -2.93674204390439
 1  5.23486889858986  2.24492475137514 -2.11171763996400
 1  6.06480378797880  0.59835094259426 -3.02560129112911
 1  6.71450351325132  1.63435743574357 -0.08455581278128
 1  6.39468358775878 -0.00585862326233  0.69216893359336
 1  7.37477486218622 -1.12437167236724 -1.47203852745275
 1  7.90759319521952  0.53418662676268 -1.85630855445545
 1  8.91662371397140  0.98353623862386  0.15755338753875
 1  8.70417890659066 -0.68946445264526  0.76880474417442
 1  10.16378392979298 -0.11543900620062 -1.88538342784278
 1  8.99520450595059 -2.48229620612061 -1.94681060586059
 1  10.74806736243624 -2.63927071097110 -1.85394963886389
 1  9.85687857385739 -2.72570451245124 -0.37553699339934
 1  11.46910459135914  0.40328255845585  0.56748823632363
 1  11.44438749214922 -1.14329029032903  0.92289291089109
 1  12.98772209110911 -1.57204536573657 -1.27472514011401
 1  12.59973372587259  0.04207489848985 -1.74757811911191
 1  13.52400383708371  0.73225578157816  0.88788613161316
 1  14.10042279537954 -0.84034363906391  1.10229674617462
 1  15.25460874937494  0.64726421142114 -1.31703606160616
 1  15.88913635653565 -2.26139643174317 -0.36492794669467
 1  14.99304235493549 -1.89724209980998 -1.87064447954795
 1  16.75188481788179 -1.31620714561456 -1.63733520302030
 1  16.06822202290229  1.27288512221222  0.77619416371637
 1  16.31198564576458 -0.28698787388739  1.56477923912391
 1  18.24027496619662 -0.14451099849985 -0.67116045644564
 1  17.73588065256526  1.23147046594659 -1.06658023382338
 1  18.24612540514051  2.15629978767877  1.36591459675968
 1  19.06727388768877  0.81531571257126  1.95622562286229
 1  20.51409632233223  0.33188933713371  0.22323938793879
 1  20.12812691929193  3.31291485338534 -0.95814940834083
 1  21.20741499359936  2.17746439923992 -1.34272563586359
 1  19.51754565896590  2.02423423422342 -1.77216418541854
 1  21.14037001220122  1.39926803590359  2.37858747594759
 1  22.30460216651665  1.88768999869987  0.86416138243824
 1  20.90210994089409  2.86124620792079  1.74899534003400

