%nproc=4
%Mem=3GB
# td=(NStates=1) iop(3/107=0140000000,3/108=0140000000) CAM-B3LYP/6-31G(d,p) 

TD

0 1
12 -7.16672136383638  0.67552593609361  0.15797216721672
 6 -4.87879669616962 -1.92360959155916  0.46791219361936
 6 -4.78752478307831  2.80640935883588  1.32749285448545
 6 -9.35944270877088  3.09897745074507 -0.38919139443944
 6 -9.60422652065207 -1.79923168886889 -0.97015382028203
 7 -5.20329736093609  0.40711680228023  0.80786861086109
 6 -4.34053630093009 -0.67689883308331  0.76304419911991
 6 -2.88916513711371 -0.46095449344935  1.23202887198720
 6 -2.93858708560856  1.14284298589859  1.72732901220122
 6 -4.41350158485849  1.49510416151615  1.25520991489149
 6 -2.85801198199820  1.23496631593159  3.21637695229523
 6 -1.94249997969797 -0.59742573177318 -0.01349753945395
 6 -0.41160686988699 -0.65451869986999  0.61429481178118
 6  0.52527445064506 -0.73438005990599 -0.55303509360936
 8  0.09477969476948 -1.10978475617562 -1.69767716081608
 8  1.83900249864986 -0.34788472687269 -0.21755714331433
 7 -7.14370201360136  2.63389659955996  0.31789271337134
 6 -6.07643778757876  3.39688345574557  0.77372324842484
 6 -6.34616952535254  4.72502936653665  0.90623888258826
 6 -7.68039282458246  4.84382618781878  0.42101822822282
 6 -8.18522805030503  3.51069800860086 -0.01560356175618
 6 -5.48971100500050  5.77856733043304  1.24143429862986
 6 -8.45675568356836  6.07462773237324  0.02770338283828
 6 -8.34777318731873  7.34195334503450  0.51348540784078
 7 -9.14870391149115  0.69125612001200 -0.47857443134313
 6 -9.88986647294729  1.77639096339634 -0.65176799029903
 6 -11.21997595029503  1.52037148164817 -1.10454531423142
 6 -11.31465095229523  0.16178372417242 -1.23494352265226
 6 -9.97899550315032 -0.39239943334333 -0.93280548184818
 6 -12.21188212591259  2.57607284868487 -1.28880833353335
 6 -12.41830562346235 -0.71813793759376 -1.75922525312531
 6 -12.30939284818482 -1.11121131343134 -3.19953060426043
 7 -7.20630359275928 -1.32836767246725 -0.19272194729473
 6 -8.32238656495650 -2.23704224972497 -0.64520610051005
 6 -7.82579461926193 -3.56959751115112 -0.48581888168817
 6 -6.53704149464946 -3.58764174627463 -0.12755483718372
 6 -6.16111984368437 -2.16461441724172  0.11053288868887
 6 -8.61079341884188 -4.78412451085109 -0.91871525462546
 6 -5.29073453635364 -4.38825238863886  0.20855582968297
 8 -5.04745573787379 -5.53826068306831  0.25505145374537
 6 -4.18371287388739 -3.34178162556256  0.47504582618262
 6 -3.47705188198820 -3.60809875257526  1.79733570207021
 8 -3.69115189858986 -3.02369972787279  2.89770312851285
 8 -2.70292564536454 -4.63281189968997  1.67949698719872
 6 -2.13869282628263 -5.18899410531053  2.89063646404640
 6  2.82134845524552 -0.95100338923892 -1.19068258545855
 6  4.12627351255126 -0.63291855975598 -0.55091765456546
 6  5.04620011131113  0.28063459145915 -0.88796167316732
 6  5.00519424502450  1.15174284958496 -2.14060819581958
 6  6.35895217391739  0.21662227822782 -0.17687821222122
 6  7.60493194579458 -0.21542009000900 -0.97275760446045
 6  8.93348105970597 -0.20215203130313 -0.13735983838384
 6  10.22830829142914 -0.52303396659666 -0.91040676067607
 6  10.15038831543154 -1.93255113501350 -1.41437840384038
 6  11.42648731253125 -0.37144203530353  0.03127516501650
 6  12.78785652115212 -0.41132116561656 -0.63405091019102
 6  13.94329560136014  0.07133141884188  0.14470088168817
 6  15.33140913191319 -0.18407749134913 -0.52373802630263
 6  15.71391766276628 -1.69133752205221 -0.92268409470947
 6  16.36779377207721  0.43333985128513  0.41161589628963
 6  17.81423901160116  0.49772350195019 -0.15721224822482
 6  18.73878429702970  1.31044912341234  0.62690594729473
 6  20.24412721712171  1.39514894739474  0.26630333633363
 6  20.33107595339534  2.07380468556856 -1.12501719761976
 6  21.08620368736874  1.96399809970997  1.41868580858086
 1 -4.15094545804580  3.69939319071907  1.58346444224422
 1 -10.05104722802280  3.92765504000400 -0.62599712591259
 1 -10.29797422152215 -2.50153568866887 -1.51662948234823
 1 -2.61257854505451 -1.04757496019602  2.00367685838584
 1 -2.24453792009201  1.56067812891289  1.36709035803580
 1 -1.92158524492449  0.75289439583958  3.68207854525453
 1 -2.91591870097010  2.31573079587959  3.47804582678268
 1 -3.88095089558956  0.74257941224122  3.66192787798780
 1 -1.96408152715272 -1.63245391619162 -0.55133314041404
 1 -1.90854722372237  0.16656427622762 -0.57191392599260
 1 -0.20965639433943  0.31396098339834  1.07101096409641
 1 -0.39481790209021 -1.44956572317232  1.36905036333633
 1 -5.59885406310631  6.57130464246425  0.56283611491149
 1 -5.89591106240624  6.28226110751075  2.00927293979398
 1 -4.36381122572257  5.39168343634363  1.33966469906991
 1 -9.52607286708671  5.98988237023702 -0.64445579827983
 1 -8.99508857255726  7.94817453845385  0.14982475817582
 1 -7.57153508560856  7.73905074147415  1.28803776407641
 1 -11.75689616261626  3.19060820792079 -2.10616644814481
 1 -13.16502380008001  2.07060580298030 -1.69720544874487
 1 -12.69412044474448  3.29955728982898 -0.41232167166717
 1 -12.44676664156415 -1.54551547434743 -1.05747924882488
 1 -13.27902020112011 -0.09745245574557 -1.52446820122012
 1 -13.11426662586259 -1.95512917501750 -3.30644160226023
 1 -12.47786819251925 -0.21979045034503 -3.89838881728173
 1 -11.27420225962596 -1.55003603080308 -3.45063334153415
 1 -9.00845546414641 -4.77978447924792 -1.95915197819782
 1 -8.11134551975197 -5.72808876217622 -0.69988994409441
 1 -9.52676685568557 -4.57418586698670 -0.38790105880588
 1 -3.38134565306531 -3.16432303790379 -0.40350808890889
 1 -1.25951933953395 -4.77837005040504  3.29614133173317
 1 -2.93672010931093 -5.56025555045505  3.55091612931293
 1 -1.54922544304430 -6.15464624942494  2.58374173527353
 1  2.59024707950795 -2.10951757455746 -1.30645209390939
 1  2.77352379367937 -0.41394330953095 -2.31933299079908
 1  4.48019850655066 -0.99325773957396  0.57047844804480
 1  3.95979129062906  1.24410995369537 -2.49331981768177
 1  5.22242917511751  2.28643906780678 -1.76137357575758
 1  5.80609017751775  0.93349454035404 -2.84374063096310
 1  6.76725490939094  1.22363234383438  0.00375998989899
 1  6.18673654575457 -0.27188452515252  0.64349054455446
 1  7.40802292509251 -1.23464413741374 -1.15456021322132
 1  7.65071763026303  0.23548265126513 -1.83369419231923
 1  9.03577962226223  0.85054455195520  0.37607003510351
 1  8.78973209400940 -0.73401175387539  0.63195931933193
 1  10.14768940074008  0.26574272207221 -1.66678183618362
 1  9.53727333643364 -2.08250653415342 -2.11820020192019
 1  10.96415555615562 -2.02463586288629 -2.03493885198520
 1  10.11156335343534 -2.72799691439144 -0.60360775447545
 1  11.31894353595360  0.73352978637864  0.49582735353535
 1  11.27053464896490 -1.00416171377138  0.75213153325333
 1  12.94369232173217 -1.40571799109911 -0.82409468096810
 1  12.84109993989399  0.12322725872587 -1.45664999869987
 1  13.94154557485749  1.08300366366637  0.23809863856386
 1  14.14086239683968 -0.56372275117512  1.15886826082608
 1  15.48071847324733  0.47752114911491 -1.32593386218622
 1  15.64429822662266 -2.25203454465447  0.00114197869787
 1  14.97541918631863 -2.27748226822682 -1.67332870637064
 1  16.72807108670867 -1.74513541054105 -1.34898141144114
 1  15.99319259275928  1.47653598729873  0.59205512181218
 1  16.22635671347135 -0.07591387618762  1.40518901360136
 1  18.26327306500650 -0.61199771377138 -0.21736193179318
 1  17.49380669026903  0.76338523262326 -1.09999574317432
 1  18.23743280018002  2.12045331333133  0.78215016181618
 1  18.94609057155716  0.80830567006701  1.66877012251225
 1  20.38348818111811  0.40957195479548  0.42315820802080
 1  20.36740355885589  3.25105588208821 -0.98053023772377
 1  21.34052785358536  2.14426556865687 -1.38504648584858
 1  19.58268666626663  1.74035432563256 -1.93552193659366
 1  20.99968382188219  1.06936257715772  2.09249291809181
 1  22.23396128892889  2.05564603530353  1.09378603220322
 1  20.49874995349535  2.94135025222522  1.79849698639864

