%nproc=4
%Mem=2GB
# td=(NStates=1) CAM-B3LYP/6-31G(d,p) 

TD

0 1
12 -7.19960053305330  0.63549229732973  0.12597028442844
 6 -4.86411102910291 -1.97519869826983  0.53311984468447
 6 -4.76895682458246  2.83773222052205  1.08049441434143
 6 -9.41513624912491  3.21052654815482 -0.45679853955396
 6 -9.53473378707871 -1.71980749174917 -0.82793922302230
 7 -5.14349777437744  0.37923774187419  0.82955337363736
 6 -4.36521622772277 -0.68048787078708  0.82908093129313
 6 -2.88504751015101 -0.42173159885989  1.25559591379138
 6 -2.94401784018402  1.06941961026103  1.61244197489749
 6 -4.37540453535354  1.49703045184518  1.19281631153115
 6 -2.70868595069507  1.33072536063606  3.08481989088909
 6 -1.91883534453445 -0.60186544794479  0.06768072637264
 6 -0.48474589718972 -0.45292964016402  0.46884101340134
 6  0.48723986118612 -0.70994450735074 -0.65144052455246
 8  0.19701094119412 -1.08120352795280 -1.74861119281928
 8  1.74763657415742 -0.58340573697370 -0.22253904280428
 7 -7.06505695359536  2.60430602040204  0.20513920942094
 6 -6.02092137113711  3.38081905770577  0.73797733133313
 6 -6.40871812491249  4.82750704010401  0.71597228442844
 6 -7.63955666266627  4.92218284978498  0.32120051135114
 6 -8.08059233083308  3.49825902120212 -0.07037449114911
 6 -5.46888484518452  5.96442890879088  1.30355511601160
 6 -8.53806160376037  6.03465449914991 -0.00400341494149
 6 -8.41056494779478  7.20452657125713  0.72936918671867
 7 -9.13176544914491  0.66188905000500 -0.44982901660166
 6 -9.91913817351735  1.79950990409041 -0.63992031613161
 6 -11.20391948854885  1.44848318741874 -1.00634235373537
 6 -11.23766617051705  0.03467883198320 -1.21880059405941
 6 -9.89920560126013 -0.42975494979498 -0.81152616871687
 6 -12.38180700440044  2.39709028002800 -1.31141791659166
 6 -12.37350189648965 -0.67260467056706 -1.71229203770377
 6 -12.35881336973697 -1.08215062626263 -3.16969208780878
 7 -7.20594006230623 -1.39098871247125 -0.01773645064507
 6 -8.29857009680968 -2.15806097819782 -0.43811876707671
 6 -7.72489863546355 -3.58607687518752 -0.48809608690869
 6 -6.46650053415342 -3.52980731773177 -0.07655938783878
 6 -6.17197979437944 -2.18790707200720  0.13832663686369
 6 -8.62751021842184 -4.74670751315132 -0.87784626302630
 6 -5.29382385268527 -4.43836772027203  0.19362223482348
 8 -5.22941177907791 -5.59101358475848  0.21562859355936
 6 -4.12868644804480 -3.29202499229923  0.54739460476048
 6 -3.55720635153515 -3.71640686198620  1.90631100400040
 8 -3.77748934953495 -3.18895563176318  2.98330101120112
 8 -2.73165435913591 -4.75105982838284  1.72728130903090
 6 -2.13041362926293 -5.26393062216222  2.95632056755676
 6  2.79088159985999 -0.65876367096710 -1.21784298469847
 6  4.18122021102110 -0.42868104440444 -0.61952210121012
 6  5.15146863126313  0.34149041444144 -1.01314108680868
 6  5.07441586458646  1.13114576387639 -2.34296846214621
 6  6.45784011681168  0.31735358555856 -0.28801528672867
 6  7.55734327222722 -0.39183953085309 -1.03913086358636
 6  8.86488836143614 -0.24084921532153 -0.30767258005801
 6  10.18544916941694 -0.63550062176218 -0.99139010951095
 6  10.16705340554055 -2.09056999309931 -1.37751121612161
 6  11.37532040894089 -0.21509529032903 -0.03375250665067
 6  12.79555446314632 -0.57203125422542 -0.71035105800580
 6  13.94049351775177 -0.21798300110011  0.25207227472747
 6  15.37074319921992 -0.09530325942594 -0.46263450325032
 6  15.88588025692569 -1.50839847364736 -1.03731334903490
 6  16.34978908480848  0.58770313031303  0.53433794099410
 6  17.68564315371537  0.68612001040104 -0.02260807540754
 6  18.71696206570657  1.33494171117112  0.87044747774777
 6  20.09059772897290  1.47811814531453  0.39206396959696
 6  20.19783113691369  2.09793809100910 -0.96328732143214
 6  21.23098402920292  1.94708764506451  1.29764512791279
 1 -4.05880736523652  3.74099962136214  1.28344293119312
 1 -10.38223861656166  3.95143597859786 -0.55369076057606
 1 -10.30629391879188 -2.56048538933893 -1.18225487768777
 1 -2.54285074197420 -1.08306662056206  2.10986167736774
 1 -2.31848545374537  1.83742732533253  0.92894354475448
 1 -1.59303376087609  1.51390184308431  3.64618833233323
 1 -3.09947500750075  2.49562361986199  3.19872203760376
 1 -3.43513695639564  0.51942662666267  3.55620803360336
 1 -1.93416590149015 -1.55671563196320 -0.41991590079008
 1 -2.10922259475948  0.17537478787879 -0.71513155275528
 1 -0.30411392879288  0.50676529042904  0.85427582668267
 1 -0.22947074907491 -1.22865738093809  1.24024797999800
 1 -5.61366014141414  6.77884652875287  0.63414912411241
 1 -5.70129711911191  6.21916527962796  2.51889818691869
 1 -4.36197015301530  5.67721888828883  1.24540771637164
 1 -9.25734778727873  6.25271141924192 -0.75797602580258
 1 -8.99223043894389  7.96969770867087  0.68009763156316
 1 -7.70718018381838  7.37101350085009  1.52868125362536
 1 -12.08977308240824  3.14340466646665 -2.11320432513251
 1 -13.23346301550155  1.92868675987599 -1.91085227672767
 1 -12.60258198929893  2.96356501120112 -0.44157540154015
 1 -12.40391516991699 -1.60967041214121 -0.93388834373437
 1 -13.47881660056006 -0.11141787858786 -1.72800832833283
 1 -13.04991134373437 -1.69712439863986 -3.57297718221822
 1 -12.39262282648265 -0.20472501010101 -3.82245574127413
 1 -11.39234551385139 -1.61175604270427 -3.29753837383738
 1 -8.91121072407241 -4.68425916881688 -1.99342260636064
 1 -8.03457282208221 -5.95073507770777 -0.84282389538954
 1 -9.47582746764676 -4.69320434173417 -0.35590741334133
 1 -3.33617431333133 -3.47706095679568 -0.27160243174317
 1 -1.27985615211521 -4.66473291299130  3.31582449774978
 1 -3.09410901950195 -5.39362097969797  3.75218805770577
 1 -1.67282539403940 -6.43665293849385  2.67361131403140
 1  2.90445975007501 -1.62260409630963 -1.61134509950995
 1  2.68712619021902  0.06395067466747 -2.00080323252325
 1  4.34039494509451 -1.10411262646265  0.27922113811381
 1  4.06955591909191  1.25911462186219 -2.41950031973197
 1  5.56527193889389  1.97563782268227 -2.19546601480148
 1  5.68278558615862  0.68961006850685 -3.35445417641764
 1  6.77418948184818  1.47164116411641 -0.16978433563356
 1  6.35155927532753 -0.09736777417742  0.77169688638864
 1  7.42026941164116 -1.50393962916292 -1.29548087168717
 1  7.58782121802180  0.37641084918492 -1.89164208780878
 1  8.88295034663466  0.80294817981798  0.28706633883388
 1  8.76626511521152 -0.93815932213221  0.77836570027003
 1  10.24113166456646  0.00235277297730 -1.98521341084108
 1  9.35321030653065 -2.36210418691869 -2.10714663946395
 1  11.17624017971797 -2.34007079097910 -1.61371561546155
 1  9.94048693469347 -2.59951189318932 -0.57854729442944
 1  11.08204588548855  0.96553878407841 -0.13405191769177
 1  11.36224927832783 -0.48623458475848  1.16521714331433
 1  12.97079039793979 -1.74854301550155 -1.08093576117612
 1  12.59483323582358  0.05085577657766 -1.73328668996900
 1  13.56461789848985  0.93252580858086  0.67674501750175
 1  14.30293304640464 -0.87162676737674  1.02839935643564
 1  15.39651293979398  0.61463094809481 -1.30817517551755
 1  15.93698114101410 -2.31705199729973 -0.15727718161816
 1  15.16368941964197 -2.03975635123512 -1.74330174527453
 1  16.94245387478748 -1.47090261516152 -1.45883735323532
 1  15.88495369606961  1.51372920662066  0.84863140744074
 1  16.18366281348135 -0.23096227132713  1.43294605580558
 1  18.08940987968797 -0.28569511691169 -0.24054739513951
 1  17.67061412591259  1.36543386228623 -0.99649322512251
 1  18.35978677127713  2.43400755845585  1.17100510581058
 1  18.75329248954896  0.83359754075407  1.82817281758176
 1  20.32177709040904  0.33527967616762  0.26991405540554
 1  19.97882198879888  3.16587014891489 -1.12970656405641
 1  21.20846509860986  2.13923057585759 -1.20236159945995
 1  19.51412531693169  1.77751956275628 -1.78985595459546
 1  21.16361233643364  1.57810591969197  2.22747236443644
 1  22.33096480278028  1.59029025872587  0.99133409970997
 1  21.37843757365737  3.08898898219822  1.38028846934693

