%nproc=4
%Mem=2GB
# td=(NStates=1) CAM-B3LYP/6-31G(d,p) 

TD

0 1
12 -7.13635420842084  0.63785253335334  0.09641732913291
 6 -4.87199181718172 -2.04811598999900  0.43869040174017
 6 -4.82512244114411  2.75341378867887  1.21137750265026
 6 -9.33494823032303  3.09249474497450 -0.41025388508851
 6 -9.53686400010001 -1.73349886088609 -0.85323175227523
 7 -5.07582100670067  0.44946476457646  0.62147256555656
 6 -4.30769047514752 -0.76881670367037  0.76904492769277
 6 -2.94514351975198 -0.45011443714371  1.23793414761476
 6 -2.92950638903890  1.14276694499450  1.57498822952295
 6 -4.39363635853585  1.51249199799980  1.08841587148715
 6 -2.92951803390339  1.35110739883988  3.08756016491649
 6 -1.92781624262426 -0.78616387778778  0.11769572787279
 6 -0.44688211081108 -0.59086343354335  0.47220134943494
 6  0.59448058525853 -0.95008852175218 -0.61824720522052
 8  0.21067230733073 -1.25145055265527 -1.73475980768077
 8  1.78014982548255 -0.61797919431943 -0.20871766066607
 7 -7.10148059595960  2.66302189198920  0.39807850335034
 6 -5.98110738973897  3.29059003480348  0.84776831043104
 6 -6.32910016311631  4.77906219561956  0.82332301950195
 6 -7.65202790979098  4.87361799329933  0.33763215451545
 6 -8.09606387798780  3.48239743504350  0.11985453175318
 6 -5.49413737043704  5.85925839173917  1.18275303580358
 6 -8.46054385198520  6.05395642934293  0.02738972437244
 6 -8.38830272157216  7.23277939653965  0.63060931073107
 7 -9.10039231183118  0.67557041814181 -0.44742877657766
 6 -9.81057731743174  1.81588154125413 -0.70257658175818
 6 -11.17194629122912  1.60886922602260 -1.18335005450545
 6 -11.27777018091809  0.19862522662266 -1.25445415941594
 6 -9.93618929962996 -0.37512948724872 -0.83918893499350
 6 -12.24151297499750  2.63902447344734 -1.26581335613561
 6 -12.50309485578558 -0.58364577467747 -1.69853066156616
 6 -12.46201368976898 -0.85808822002200 -3.19778489708971
 7 -7.25439490779078 -1.37473708730873 -0.12610728772877
 6 -8.32799303910391 -2.19301447354735 -0.56367132233223
 6 -7.87905405100510 -3.62755102260226 -0.53398067536754
 6 -6.52334621872187 -3.61715605260526 -0.22009374127413
 6 -6.26188878527853 -2.19489777107711 -0.00037723352335
 6 -8.73902136953695 -4.75360820322032 -0.86460493889389
 6 -5.35708017831783 -4.32144602810281  0.18727159975998
 8 -5.29889872777278 -5.58367285068507  0.35120215091509
 6 -4.14139771917192 -3.39676546634663  0.44497436273627
 6 -3.53958458935894 -3.71080630193019  1.83496386928693
 8 -3.77553915451545 -3.22374911111111  2.86260894199420
 8 -2.75931712541254 -4.71951667406741  1.70758933983398
 6 -2.25117570547055 -5.24410863996400  2.96700163566357
 6  2.87101961366137 -0.85283307790779 -1.13665486588659
 6  4.11359344834483 -0.58112628892889 -0.44114426342634
 6  5.10664414881488  0.18033429882988 -0.94274404710471
 6  5.03674209720972  1.00739338863886 -2.23303746904690
 6  6.45847017981798  0.34338618881888 -0.16686317151715
 6  7.61786932483248 -0.26486683358336 -0.83796074657466
 6  8.92779465206521 -0.08604373477348 -0.06935874867487
 6  10.18411903640364 -0.56923399509951 -0.80589155965597
 6  10.14986168636864 -2.19888082418242 -1.08008147314731
 6  11.40527340424043 -0.33557733853385  0.01007187578758
 6  12.83593850155015 -0.38537258835884 -0.67861788468847
 6  14.02801226962696  0.05474427162716  0.13146021352135
 6  15.34799092399240 -0.14292802190219 -0.48319655945595
 6  15.75462713161316 -1.55278291209121 -0.85660527822782
 6  16.37569167506751  0.49499385938594  0.42191669886989
 6  17.79951454085408  0.63596499489949 -0.23165898049805
 6  18.79158952845285  1.30293851085109  0.65180561356136
 6  20.24921359055906  1.49852018551855  0.13213797699770
 6  20.35262661646165  2.32319061626163 -1.15176616931693
 6  21.07582851365137  2.23687662396240  1.32231759515952
 1 -4.03945543004300  3.36233175457546  1.56137072397240
 1 -10.16608700140014  3.86630746574657 -0.40653604510451
 1 -10.27712100150015 -2.44996433723372 -1.23543019521952
 1 -2.64318077497750 -0.89585789968997  2.19175986718672
 1 -2.06113971917192  1.61180476307631  1.07746839723972
 1 -2.06225068256826  0.81001145404540  3.46709042254225
 1 -2.70576563656366  2.34589864736474  3.29607177257726
 1 -3.80735417811781  0.71618630263026  3.53657607040704
 1 -2.00805329022902 -1.82648260866087 -0.27860176937694
 1 -1.99457112961296 -0.23182593219322 -0.94129416901690
 1 -0.16935045244524  0.54280889478948  0.92125252435244
 1 -0.15480328232823 -1.25345986118612  1.22160611581158
 1 -5.75716449184918  6.67918656275627  0.60588629782978
 1 -5.53591058045804  6.33860722382238  2.34544084118412
 1 -4.47513146914692  5.67006817321732  0.94308748434843
 1 -9.21825387788779  5.99025517361736 -0.71824205240524
 1 -8.98983019891989  7.97641838073807  0.31995161696170
 1 -7.68333779957996  7.34180057955796  1.40448883438344
 1 -12.04841894699470  3.38968929492949 -2.09277228192819
 1 -13.23081275047505  2.08239213041304 -1.54797598909891
 1 -12.14284601570157  3.05157381208121 -0.31671291529153
 1 -12.56979175757576 -1.60265971107111 -1.28392334723472
 1 -13.40787950685069 -0.14033076987699 -1.45795132263226
 1 -13.31258761136113 -1.27109179537954 -3.79028891339134
 1 -12.22957652185219  0.20106556895690 -3.69933342904290
 1 -11.58362464176418 -1.43275814291429 -3.63902252225223
 1 -9.16516611961196 -4.66156689958996 -1.84301756585659
 1 -8.37956732153215 -5.75824582878288 -0.97385699869987
 1 -9.79452933783378 -4.91699672097210 -0.25871769436944
 1 -3.47329802570257 -3.41245449614962 -0.30347561906191
 1 -1.92628079457946 -4.27030347004701  3.54526744204420
 1 -2.92500210881088 -5.52705432303230  3.62395523442344
 1 -1.53407151865187 -5.75410468366837  2.66954090699070
 1  2.69455875997600 -2.08465030093009 -1.28858282328233
 1  2.73057053465347 -0.28577429782978 -2.06087924012401
 1  4.14115502110211 -1.07422963816382  0.58975219121912
 1  4.00693965746575  0.81758046844684 -2.72902127182718
 1  5.31797720942094  2.06731699059906 -2.15901236943694
 1  5.96297360496050  0.55593670117012 -2.82759149014901
 1  6.50687275017502  1.30767476747675  0.04499714251425
 1  6.28976309570957 -0.14662269966997  0.74785450215021
 1  7.46678406310631 -1.32085132033203 -1.00892221582158
 1  7.87795023092309  0.40590379847985 -1.74993791739174
 1  9.16722877447745  0.93865175017502  0.13319095129513
 1  8.77857634633463 -0.74143965016502  0.87864572827283
 1  10.19328688008801 -0.16080354265427 -1.83193808330833
 1  9.48778376387639 -2.27482545904590 -1.91718764356436
 1  10.98797135283528 -2.44758154205421 -1.54034827872787
 1  9.76986987298730 -2.73310525252525 -0.05527496719672
 1  11.33646132703270  0.61568379857986  0.49902138963896
 1  11.43354640804080 -0.84991095239524  0.87957857945795
 1  13.02761608050805 -1.42038019921992 -1.04118178577858
 1  12.63763751625162  0.26167685868587 -1.54046740804080
 1  13.86104754145415  1.10025258125813  0.50423776677668
 1  14.04153690679068 -0.56048565326533  1.04875139163916
 1  15.38636192469247  0.47996748174817 -1.37094145214521
 1  15.67975541844184 -2.16407669976998 -0.04338579247925
 1  15.19709275997600 -2.18903127872787 -1.73321073617362
 1  16.74372400180018 -1.66026155105510 -1.36157762726273
 1  16.12812801350135  1.52601043474347  0.61317786208621
 1  16.43760820802080  0.04886571147115  1.41103386458646
 1  18.12888382708271 -0.36734328172817 -0.20665400580058
 1  17.65558262276228  1.03074039293929 -1.15992956875688
 1  18.59658045064506  2.41123528122812  0.70781878717872
 1  18.86220338063806  0.73707788878888  1.70043004330433
 1  20.83685859855986  0.57295344354435  0.08452551655166
 1  19.93162726932693  3.22305586748675 -0.94964855825583
 1  21.46886113821382  2.34422107490749 -1.55807717101710
 1  19.62368627302730  1.75214702550255 -1.88127509650965
 1  21.14803077827783  1.65171328042804  2.17371698889889
 1  22.19532123842384  2.27557878757876  0.82139710601060
 1  20.75852558245825  3.37574765806581  1.70488092859286

