%nproc=4
%Mem=3GB
# td=(NStates=1) iop(3/107=0140000000,3/108=0140000000) CAM-B3LYP/6-31G(d,p) 

TD

0 1
12 -7.20620531223122  0.52354073757376  0.14531090109011
 6 -4.89447826432643 -2.09315654625463  0.56611201360136
 6 -4.80367639823982  2.77233595149515  1.18140824602460
 6 -9.33005977047705  3.09089664266427 -0.49437191249125
 6 -9.52156825482548 -1.71066283198320 -1.05645245014501
 7 -5.14917194839484  0.34149023962396  0.73862168616862
 6 -4.41513376067607 -0.82939408260826  0.82116001070107
 6 -2.98437465806581 -0.50066846484648  1.30838650775078
 6 -3.03548677557756  0.98265696729673  1.70688696799680
 6 -4.47599783448345  1.39687433853385  1.18717311121112
 6 -2.95829201000100  1.11227404670467  3.25948126272627
 6 -1.94924065376538 -0.77083307250725  0.15221903220322
 6 -0.54891060026003 -0.76016926492649  0.75101848414841
 6  0.50341226442644 -0.73478009990999 -0.36609639973997
 8  0.14316453325333 -1.07141091879188 -1.47358475157516
 8  1.77509610801080 -0.37671761016102 -0.01889727732773
 7 -7.05341298469847  2.61828503840384  0.36043696779678
 6 -6.04709485328533  3.37102086948695  0.81486736283628
 6 -6.32487739613961  4.76120298389839  0.79055731443144
 6 -7.67440222552255  4.85491729692969  0.29893602000200
 6 -8.09514904240424  3.46312325112511  0.02949094769477
 6 -5.43877591149115  5.97594706840684  1.20512066726673
 6 -8.45041504950495  6.10463073267327  0.06390700320032
 6 -8.14372278227823  7.26280543024302  0.59977403670367
 7 -9.16776581768177  0.75441243564356 -0.41581815571557
 6 -9.84502198849885  1.92258558285829 -0.60442325582558
 6 -11.17270122282228  1.56675612011201 -1.26701156085609
 6 -11.17092657985799  0.16271381718172 -1.41967199549955
 6 -9.94671227482748 -0.38046824022402 -0.93184538583858
 6 -12.20090102780278  2.60127536893689 -1.49757921062106
 6 -12.35458925182518 -0.49707583138314 -1.96211554215422
 6 -12.26723863276328 -0.86704689698970 -3.38427907910791
 7 -7.31726468886889 -1.34964980068007 -0.23425610071007
 6 -8.30247457375738 -2.26299484498450 -0.58811039093909
 6 -7.86389842964296 -3.65252580398040 -0.59675997579758
 6 -6.58800659115912 -3.67643062516252 -0.15013709540954
 6 -6.26761049274927 -2.21569952575258 -0.00472863746375
 6 -8.77159949944994 -4.79144524292429 -0.93191657475748
 6 -5.48826428932893 -4.40301386478648  0.14175915001500
 8 -5.36282727502750 -5.64431128812881  0.26267221582158
 6 -4.22972747534754 -3.42819026642664  0.58179650125012
 6 -3.72834701150115 -3.84595253795379  1.91564753325333
 8 -3.94223700710071 -3.19421677957796  2.92590594879488
 8 -2.91444679747975 -4.85687430593059  1.83991302880288
 6 -2.38355731273127 -5.21427663356336  3.08330573097310
 6  2.75187150755076 -0.71599988888889 -0.98361187838784
 6  4.10714159935994 -0.51388665656566 -0.38340090289029
 6  5.10364585588559  0.23633016101610 -0.84217709470947
 6  4.99905363096310  1.12489016431643 -2.10973510851085
 6  6.31947822652265  0.36852746874687 -0.13719424382438
 6  7.62481393399340 -0.08169671767177 -0.94579490819082
 6  8.93964167576758 -0.08787060316032 -0.05663176557656
 6  10.24705016561656 -0.42178384158416 -0.83755947594759
 6  10.20437371397140 -1.86235411531153 -1.43353031903190
 6  11.54495915971597 -0.11499639073907 -0.01418938143814
 6  12.82262999849985 -0.40421045454545 -0.71881938703870
 6  14.03179445124512 -0.12081779607961  0.17073348494849
 6  15.40857684868487 -0.14861394499450 -0.56907255975598
 6  15.82561883288329 -1.58987737603760 -0.87020884718472
 6  16.42911990469047  0.57257377467747  0.17337207190719
 6  17.91722931063106  0.64232796239624 -0.34260078707871
 6  18.98330874947495  1.45465354385439  0.54696795349535
 6  20.44908771317132  1.39718915141514  0.17145385138514
 6  20.70396324212421  2.12808011311131 -1.18142283818382
 6  21.36507157415742  1.85814751465147  1.30164410441044
 1 -4.27715807930793  3.53981723312331  1.66937303310331
 1 -10.11471359465947  3.83786606110611 -0.60154468066807
 1 -10.38974339843984 -2.39766530163016 -1.41270909030903
 1 -2.66493378057806 -0.87162736543654  2.24760125082508
 1 -2.35144861116112  1.69106116721672  1.28828247724772
 1 -2.00547363376338  0.85162426882688  3.57092743014301
 1 -3.31159826892689  1.94715393819382  3.48300632283228
 1 -3.84411721222122  0.52763791809181  4.00174185938594
 1 -2.10104522352235 -1.89569023982398 -0.15995400250025
 1 -1.95575194419442 -0.13518589878988 -0.69959669426943
 1 -0.39271470017002  0.13076266356636  1.37876173917392
 1 -0.28446686698670 -1.63768453505351  1.49107256555656
 1 -5.57192136983698  6.86022353435343  0.25663549484948
 1 -5.79923139443944  6.33046592799280  2.17624963746375
 1 -4.30344518911891  5.59229349734973  1.42582331493149
 1 -9.32434269406941  5.64664804680468 -0.48391974467447
 1 -8.85739480318032  8.31886160716072  0.54668444414441
 1 -7.36658459055906  7.36597343374337  1.34531349164917
 1 -11.76335680868087  3.22494164126413 -2.07031286278628
 1 -13.17841513921392  2.09313805620562 -2.12837856605661
 1 -12.53451448414842  3.47762509660966 -0.59903034253425
 1 -12.51260322522252 -1.56092701550155 -1.38684218511851
 1 -13.25821812091209  0.09623691319132 -1.47814356875688
 1 -13.04610981018102 -1.49871353345335 -3.78576953505351
 1 -12.49449985568557  0.06500802950295 -3.83967294569457
 1 -11.12025686508651 -1.17917894509451 -3.58127640584058
 1 -9.02119673827383 -4.74000050085009 -1.97301336433643
 1 -8.28645303050305 -5.83904985828583 -0.60338029312931
 1 -9.87179135813581 -4.64884333273327 -0.50202247094709
 1 -3.46748426692669 -3.66780338593859 -0.10982872097210
 1 -1.87298068566857 -4.44736695009501  3.56002772037204
 1 -3.35301173847385 -5.53381290619062  3.78413945164516
 1 -1.76383690419042 -6.03256404120412  2.85384874597460
 1  2.47918597339734 -1.85219184198420 -1.23079452815281
 1  2.60902734403440  0.00921900670067 -1.83169422692269
 1  4.30915140184018 -1.00373878767877  0.51556295649565
 1  3.79433474497450  1.39233477617762 -2.47705819151915
 1  5.70022695489549  2.21855227912791 -2.32922036043604
 1  5.35862543104310  0.34574576547655 -2.98483474037404
 1  6.51335951985199  1.39744972557256  0.08753836773677
 1  6.20988886098610 -0.34145148184819  0.60694689018902
 1  7.39463158595860 -1.17772844584458 -1.04100885808581
 1  7.70153271177118  0.25454455745575 -1.95363618651865
 1  9.08269431373137  0.97456695419542  0.36704913301330
 1  8.68552167296730 -0.74290264296430  0.89708583198320
 1  10.28457308910891  0.10344649244925 -1.72228738673867
 1  9.34109371847185 -1.92957124062406 -2.17651603350335
 1  10.94066320692069 -2.07621102040204 -2.10667602570257
 1  10.26978917601760 -2.71592570727073 -0.54449184288429
 1  11.51737337893789  0.90581701510151  0.33861163196320
 1  11.30660825632563 -0.74723602120212  0.92215853595360
 1  12.91727968046805 -1.48771619091909 -1.16017828932893
 1  12.68678450835083  0.20314525052505 -1.57026135983598
 1  13.86240766106611  0.97157252055206  0.61057588628863
 1  14.33190150075008 -0.70499687858786  1.04817719171917
 1  15.17536793819382  0.43797719471947 -1.65431670047005
 1  16.28487228402840 -2.12518185938594  0.01715357985799
 1  14.80759240364036 -2.16184070407041 -1.15669704320432
 1  16.54882316191619 -1.50204110111011 -1.84915142844284
 1  16.13397667116712  1.58393672737274  0.36347226352635
 1  16.39537361516152 -0.27894417921792  1.04524301900190
 1  18.54047078477848 -0.38742525652565 -0.44160435603560
 1  17.97294460406041  1.15562445654565 -1.29223496709671
 1  18.76808586548655  2.53083435143514  0.46983893069307
 1  19.01346730923093  0.97523236273627  1.57450069556956
 1  20.78633846614662  0.32518351595160 -0.13374748254826
 1  20.41130794929493  3.19894067056706 -1.14912709740974
 1  21.79314311511151  2.14075521762176 -1.48765674687469
 1  20.01764016161616  1.69971026122612 -1.90265865026503
 1  21.30901475497550  1.01347698859886  2.01577524632463
 1  22.35387328012801  2.09031950265027  0.91459811341134
 1  21.24236431493149  2.81373749094909  1.70942807950795

