%nproc=4
%Mem=2GB
# td=(NStates=1) CAM-B3LYP/6-31G(d,p) 

TD

0 1
<<<<<<< HEAD
12 -7.23127370037004  0.60340908900890 -0.02328464106411
 6 -4.83317793579358 -1.89762094049405  0.50100663336334
 6 -4.86420634953495  2.88215666296630  1.14953131803180
 6 -9.42839757525753  3.20158565406541 -0.47160001970197
 6 -9.54694500820082 -1.74436994799480 -0.93125955505551
 7 -5.11797522212221  0.42825264336434  0.71057147544754
 6 -4.29025873197320 -0.68040786278628  0.80218824202420
 6 -2.94591359675968 -0.41125055075508  1.22465281948195
 6 -2.96308974737474  1.06732940124012  1.71144187488749
 6 -4.35066206110611  1.58496924572457  1.12034906480648
 6 -3.02502758485849  1.19140142824282  3.21058246714671
 6 -1.95319878087809 -0.50510577197720 -0.03274931663166
 6 -0.46249367196720 -0.39685403260326  0.58016214551455
 6  0.54691582878288 -0.66708022092209 -0.53772915341534
 8  0.19093033313331 -0.95955136273627 -1.63466979867987
 8  1.80607241774177 -0.40199759615962 -0.15855264416442
 7 -7.18632908080808  2.63026861666167  0.33524221972197
 6 -6.09834911391139  3.37978895469547  0.75210874447445
 6 -6.42001925502550  4.80849513891389  0.78348903610361
 6 -7.80164287128713  4.76865749724972  0.34377276857686
 6 -8.22075634723472  3.41691088638864  0.13739628592859
 6 -5.56763472017202  5.93362582848285  1.22814757525753
 6 -8.62689048664866  5.89088012171217  0.28661564696470
 6 -8.58267215851585  7.10004612321232  0.89088533833383
 7 -9.14437671027103  0.65907876897690 -0.62225625932593
 6 -9.86908316801680  1.78647860096010 -0.74464078817882
 6 -11.19725882248225  1.46828516761676 -1.27723944344434
 6 -11.29524192809281  0.11558692279228 -1.29768848284829
 6 -10.00297597829783 -0.40696267056706 -0.90986600270027
 6 -12.15895471917192  2.39010958195820 -1.54191096589659
 6 -12.36529107540754 -0.84403181328133 -1.79748055655566
 6 -12.33326081448145 -1.08181059225923 -3.28138325692569
 7 -7.19119858815882 -1.37206682028203 -0.17095177217722
 6 -8.29951019081908 -2.18168334043404 -0.43440839603960
 6 -7.82104825042504 -3.59242751025103 -0.38974625192519
 6 -6.48486237033703 -3.58815315231523  0.04326259435944
 6 -6.15561815821582 -2.12881116241624  0.16147895209521
 6 -8.66589405680568 -4.75836867926793 -0.69830830923092
 6 -5.33590806110611 -4.39399328282828  0.24264713731373
 8 -5.15757459535954 -5.60832531593159  0.21108813951395
 6 -4.18741232063206 -3.35697148694869  0.55829569486949
 6 -3.49129976087609 -3.57339256055606  1.87818819171917
 8 -3.65009661026103 -3.06396313251325  2.85366804790479
 8 -2.78814000770077 -4.70941566396640  1.62705128602860
 6 -2.16722731063106 -5.14827905700570  2.89282421792179
 6  2.87248976067607 -0.66376417101710 -1.25329653005301
 6  4.18262035103510 -0.56210438673867 -0.52157230623062
 6  5.15671915631563  0.23563982938294 -0.92823259595960
 6  5.04412283528353  1.21048369766977 -2.10979514481448
 6  6.44735906870687  0.40959280948095 -0.18330481568157
 6  7.66631416931693 -0.18862920982098 -0.91491844234423
 6  8.92559443204321 -0.15855098549855 -0.02735454825483
 6  10.17824844934493 -0.62246931863186 -0.75911688218822
 6  10.24300100030003 -2.15851678777878 -0.99534299929993
 6  11.45351822872287 -0.27046082688269 -0.01250038143814
 6  12.76985189288929 -0.52204625572557 -0.68761878477848
 6  14.06446591499150 -0.00808201100110  0.06732379987999
 6  15.41131725662566 -0.14054778387839 -0.60170841064106
 6  15.70768243714371 -1.65019265306531 -0.91575119281928
 6  16.45831993789379  0.43557791779178  0.39278378557856
 6  17.83285787518752  0.55730712911291 -0.33374918951895
 6  18.79257962746275  1.20765898289829  0.72965339833983
 6  20.31072974217422  1.34669500300030  0.18756351955196
 6  20.36335768956896  2.10817911511151 -1.13479447214721
 6  21.23694462526253  1.92045498179818  1.25583094649465
 1 -4.26925841034103  3.57246276767677  1.51368595549555
 1 -10.16707710041004  3.93230406540654 -0.64491988348835
 1 -10.33987727712771 -2.67299664046405 -1.24472112431243
 1 -2.69254571147115 -1.17648596249625  1.91612230343034
 1 -2.09034263946395  1.59557313991399  1.40161081148115
 1 -2.08042249974998  0.96666711961196  3.56253996749675
 1 -3.12502756275628  2.18374243174317  3.50886305170517
 1 -3.73648709140914  0.53157784178418  3.53394580738074
 1 -2.07318980388039 -1.51092105250525 -0.39992390159016
 1 -2.11615328782878  0.17430468086809 -0.76100614021402
 1 -0.32471598899890  0.59719433333333  0.84933533263326
 1 -0.39271707370737 -0.97131164636464  1.36880083528353
 1 -5.88448722412241  6.92629127322732  0.87934364356436
 1 -5.46095308470847  5.73078644174417  2.63182948004800
 1 -4.54468842484248  5.67861902830283  0.82174535013501
 1 -9.69406145864587  5.85383153125313 -0.17640786898690
 1 -9.38647986388639  7.95925666456646  0.59700932273227
 1 -7.81687115291529  7.42499889938994  1.60008839433943
 1 -11.93187729282928  2.96969729572957 -2.38391139583959
 1 -13.20533020222022  1.92191608280828 -1.78930012151215
 1 -12.40172190329033  3.18959761446145 -0.64542578657866
 1 -12.22661744014402 -1.87584702980298 -1.27908286318632
 1 -13.38732745164516 -0.47771450825083 -1.53666919441944
 1 -13.25594194679468 -1.26949163536354 -3.64975485998600
 1 -12.19652321652165 -0.37899243684368 -3.94025752145215
 1 -11.32481876117612 -1.64414928202820 -3.46528514851485
 1 -8.91733133613361 -4.82059280218022 -1.76676994109411
 1 -8.01866123092309 -5.66513651785178 -0.27182679567957
 1 -9.75306519141914 -4.66724174547455 -0.06243806640664
 1 -3.22598329422942 -3.59090234093409 -0.21801707320732
 1 -1.86746491299130 -4.27670411011101  3.50717363266327
 1 -3.02219182778278 -5.51698331593159  3.64173701260126
 1 -1.53878198969897 -5.95390466366637  2.66741069396940
 1  2.70593989808981 -1.74375621152115 -1.50701466646665
 1  2.70173765136514 -0.32246796719672 -2.00407355955596
 1  4.34764567016702 -1.25043725892589  0.25584880088009
 1  4.07409637313731  1.45564427482748 -2.32257062676268
 1  5.24056946864686  2.23716397529753 -1.92761923012301
 1  5.27858516611661  0.85480658815882 -3.03411214221422
 1  6.56963902680268  1.62182618261826 -0.25607296449645
 1  6.55444956435644 -0.06991502890289  0.76786650335033
 1  7.27149453415342 -1.14156339153915 -1.43391471507151
 1  7.87951038693869  0.38794200230023 -2.09669259285929
 1  9.23099515111511  0.86878476347635  0.18497612981298
 1  8.63171165986599 -0.84926043224322  0.91311917561756
 1  10.33699125052505  0.02870540824082 -1.67261215071507
 1  9.32560754625463 -2.35301327782778 -1.43522944774477
 1  11.00932348804881 -2.51768855275528 -1.42194643854386
 1  10.30402328832883 -2.49893183518352  0.16205676597660
 1  11.53313099399940  0.80695292549255  0.26045753325333
 1  11.51836488988899 -0.77077303860386  0.88973959555956
 1  13.13039635853585 -1.61519968116812 -1.09379704730473
 1  12.57559131163116  0.00651134213421 -1.69263262456246
 1  13.88886032273227  0.95176773277328  0.42907025002500
 1  14.05772852595260 -0.60158976367637  0.96932344884488
 1  15.53521681018102  0.34526401140114 -1.65939029702970
 1  15.78713615651565 -2.10351064316432  0.02892143824382
 1  15.14125717641764 -2.12430480608061 -1.68885630073007
 1  16.73912354175418 -1.65435095999600 -1.15216668616862
 1  16.17590279097910  1.35723355705571  0.45929247354735
 1  16.41427587478748  0.05372619751975  1.43052581378138
 1  18.15088602730273 -0.35526207360736 -0.61462480288029
 1  17.59179624412441  1.15394271317132 -1.17605118091809
 1  18.46076686928693  2.08881303900390  0.92997100240024
 1  18.89406656695670  0.65618979998000  1.55673567386739
 1  20.64834974767477  0.35258140634063  0.12950001400140
 1  19.73447755435543  2.99382294419442 -1.09876346974697
 1  21.43101735383538  2.21489814261426 -1.34436579987999
 1  19.79876378077808  1.61937374817482 -2.11069803880388
 1  21.14861083628363  1.59817792689269  2.33087270447045
 1  22.24068577487749  1.84368559825983  0.92247721402140
 1  20.84077380728073  3.05661574487449  1.59118955945595
=======
12 -7.20447102010201  0.61404015211521  0.08014570197020
 6 -4.80986560456046 -2.04680585898590  0.64390092279228
 6 -4.77523745264527  2.81110955825583  1.07251361626163
 6 -9.32520725622562  3.08456395189519 -0.33919677937794
 6 -9.45578589228923 -1.75071058205821 -0.96619304840484
 7 -5.04375780038004  0.46564638273827  0.72243266156616
 6 -4.34504421052105 -0.72260208220822  0.88388641184118
 6 -2.91995100050005 -0.42499192489249  1.27824817901790
 6 -3.03413685208521  1.07769043734373  1.65144587528753
 6 -4.31379837473747  1.48964971377138  1.10635766566657
 6 -3.19908499059906  1.27686997509751  3.27061847074707
 6 -1.89740320132013 -0.63554881628163  0.22458641694169
 6 -0.39710713331333 -0.50010435763576  0.53669779907991
 6  0.52595373257326 -0.74129764266427 -0.63886926742674
 8  0.28475971607161 -1.19661506910691 -1.67901423312331
 8  1.78217002750275 -0.28876627302730 -0.22506929582958
 7 -7.14585503340334  2.48662425222522  0.36297499299930
 6 -6.06742602160216  3.27860883668367  0.71935546914691
 6 -6.39883713681368  4.77163145254525  0.79659034623462
 6 -7.73717642464246  4.75788642014201  0.37690608190819
 6 -8.13179745134514  3.50510970627063  0.14987753405341
 6 -5.49424738143814  5.91377384328433  1.16153091359136
 6 -8.54708250585058  6.00280131383138  0.14408139353935
 6 -8.57185107640764  7.16082220082008  0.78987523732373
 7 -9.16007828042804  0.70229309040904 -0.53360739443944
 6 -9.85191145084508  1.76098605170517 -0.68896522062206
 6 -11.20425952255225  1.45752409150915 -1.20149186868687
 6 -11.24752715661566  0.17006237033703 -1.32710142414241
 6 -9.93034871557156 -0.41996397069707 -0.97952296839684
 6 -12.15006383008301  2.61401197219722 -1.68257503230323
 6 -12.45478002430243 -0.71981939203920 -1.84474528302830
 6 -12.43635112351235 -1.13104551575158 -3.44446956555656
 7 -7.18580804910491 -1.33226283988399 -0.12627730473047
 6 -8.23440368016802 -2.23405857795780 -0.62977793299330
 6 -7.76147229282928 -3.58412668016802 -0.61870914821482
 6 -6.50841472557256 -3.52227656465647 -0.16451818371837
 6 -6.15525812221222 -2.18064634593459  0.18504130833083
 6 -8.65195266266627 -4.81454429682968 -0.84096257465747
 6 -5.37081155145515 -4.33796768026803  0.13901677427743
 8 -5.23889272717272 -5.65412989638964  0.17984501520152
 6 -4.24038761816182 -3.41698748854885  0.62674253955396
 6 -3.61242187308731 -3.68059328062806  1.97015738863886
 8 -3.84443604420442 -3.09327606380638  3.05498817991799
 8 -2.82789398309831 -4.80548527092709  1.85619420032003
 6 -2.30246083398340 -5.24966919601960  3.09543447894790
 6  2.83125563726373 -0.57924571917192 -1.13123432383238
 6  4.12103419241924 -0.28525670197020 -0.41446159515952
 6  5.17093057745774  0.38157442284228 -0.85752552525253
 6  5.11287971097110  1.25621827112711 -2.08764292959296
 6  6.42088642144214  0.42595444564456 -0.06562304750475
 6  7.71884942284228  0.05517517061706 -0.84173112361236
 6  8.96387826042604 -0.27562269266927  0.00941912911291
 6  10.19886051055106 -0.58663573527353 -0.82216318681868
 6  10.07939463966397 -2.06325726182618 -1.27091055605561
 6  11.50010288718872 -0.20048382918292  0.03512438103810
 6  12.85553046074607 -0.44932898399840 -0.69784980788079
 6  13.95072454085408  0.00331912911291  0.15374244174417
 6  15.27741386628663 -0.11098482758276 -0.53633187298730
 6  15.63589525842584 -1.52910054385439 -0.99746936463646
 6  16.46419052495250  0.38625298529853  0.43545805300530
 6  17.85170976037604  0.53752515091509 -0.32461827642764
 6  18.78200857035704  1.24271248824882  0.64822525552555
 6  20.27982665186519  1.33315364886489  0.09749451265127
 6  20.45272662646265  2.07398569576958 -1.25112610531053
 6  21.32627355815582  1.90333326962696  1.14718008140814
 1 -3.99828131263126  3.69817533893389  1.36902148904890
 1 -9.97539793249325  4.07022785778578 -0.52408780028003
 1 -10.33682697209721 -2.39144848564856 -1.24770142234224
 1 -2.54603106000600 -1.04938325222522  2.15407609880988
 1 -2.10005361056106  1.82503608620862  1.54628527892789
 1 -1.89174363186319  1.19391984488449  3.43660737423742
 1 -3.51708676867687  2.22383644114411  3.56002816821682
 1 -3.87277071977198  0.48539322332233  3.78779119191919
 1 -1.93818630353035 -1.65285524592459 -0.21880578977898
 1 -2.21544321682168  0.00091734213421 -0.69783982358236
 1 -0.19396291369137  0.66267088098810  0.90884128322832
 1 -0.01064886688669 -1.04239875507551  1.36382033723372
 1 -5.86381515691569  6.98094673877388  0.94516022522252
 1 -5.40316730613061  5.85634899799980  2.33811010811081
 1 -4.43588754475448  5.89321048744874  0.70195337093709
 1 -9.06334838733873  6.04610075817582 -0.77719794799480
 1 -9.19499071497150  7.85001574047405  0.52813243504350
 1 -8.07533699949995  7.19085548504851  1.72002038753875
 1 -11.87148125322532  2.84266459245925 -2.56255926062606
 1 -13.10404007320732  1.94136802800280 -1.86127731923192
 1 -12.37431916301630  3.37514616931693 -0.91522276627663
 1 -12.38747352575258 -1.69544898999900 -1.31135609050905
 1 -13.27365608450845 -0.33086982378238 -1.65730125762576
 1 -13.27839419201920 -1.71559624582458 -3.88808869336934
 1 -12.45045861006101 -0.34483902150215 -4.03889738543854
 1 -11.53711999129913 -1.82013688078808 -3.60599921992199
 1 -9.10010961396140 -4.86849759265927 -1.76700996509651
 1 -8.13721308610861 -5.78970897509751 -0.86722633563356
 1 -9.51753163806381 -5.04670969226923 -0.32948477107711
 1 -3.40020071597160 -3.54547779847985 -0.25657092859286
 1 -1.78984715121512 -4.46147258695870  3.58703161846185
 1 -3.25345495409541 -5.43238485608561  3.74015685458546
 1 -1.62464057555756 -6.15675494869487  2.81915586848685
 1  2.67436674077408 -1.67475931183118 -1.33144710971097
 1  2.64919239683968  0.08095237483748 -1.99657280948095
 1  4.25816672227223 -0.85554776997700  0.48939215521552
 1  4.00400936443644  1.18860757115712 -2.45889425912591
 1  5.51447685938594  2.22636289518952 -1.96853332153215
 1  5.72866017361736  0.81299240674067 -3.00902963396340
 1  6.48047010991099  1.47234123412341  0.47339998279828
 1  6.26379049844985 -0.43407144454445  0.69341905860586
 1  7.55964334903490 -0.90235947114711 -1.32637396099610
 1  7.94068650455046  0.65547875597560 -1.70371329492949
 1  8.97189924152415  0.58774665966597  0.50196782898290
 1  8.82247073577358 -0.97361286748675  0.68808667236724
 1  10.02449000040004  0.32754529222922 -1.69940482998300
 1  9.21302628812881 -2.61792976947695 -1.88757468226823
 1  10.87174973067307 -2.49374615851585 -1.94548879277928
 1  10.25462834883488 -2.53568551055106 -0.16347578727873
 1  11.43718139903990  0.74680691089109  0.54525601310131
 1  11.49435248864887 -1.07371333263326  0.94778540014001
 1  13.05193851275128 -1.47192535373537 -1.04209187678768
 1  12.57660141264126  0.09251994299430 -1.71472483378338
 1  13.76541797849785  0.98716127212721  0.64864220722072
 1  13.98205095819582 -0.57688729342934  1.04972148864887
 1  15.35031832033203  0.49559904490449 -1.39706406440644
 1  15.55193263616362 -2.28225851795180 -0.05194664856486
 1  14.84621767246725 -1.81080345594559 -1.60134754985499
 1  16.60971060046005 -1.65596112101210 -1.66842831233123
 1  16.31803700440044  1.23923175687569  1.01204774907491
 1  16.60225467266726 -0.51698087318732  1.11715447664766
 1  18.26282722142214 -0.51228777617762 -0.66735007540754
 1  17.87653471797180  1.09075639453945 -1.38955253105311
 1  18.32507329992999  2.19393355105511  0.96327433273327
 1  18.77357451775178  0.95942012301230  1.74098409870987
 1  20.62428734143414  0.32578872707271 -0.03066600260026
 1  20.25460956755676  2.87263082498250 -1.15256885028503
 1  21.54027827992799  2.15380203300330 -1.70794215751575
 1  19.94467837223722  1.56434824562456 -2.03824079307931
 1  21.36878285348535  1.38779688878888  2.17627724492449
 1  22.41884359065907  2.09577080678068  0.99947491379138
 1  20.92539226912691  2.84653473677368  1.40949138963896
>>>>>>> 8e03b5b5abfc0030b3aa597dc0de36371bfbd096

