%nproc=4
%Mem=2GB
# td=(NStates=1) CAM-B3LYP/6-31G(d,p) 

TD

0 1
<<<<<<< HEAD
12 -7.18613918691869  0.59895864396440  0.07267495489549
 6 -4.78372299029903 -1.94286546494649  0.48341487418742
 6 -4.84425435433543  2.77863631093109  1.22995936083608
 6 -9.38522325782578  3.19639513501350 -0.42966582628263
 6 -9.50536084978498 -1.71426693769377 -0.96016244534453
 7 -5.07905132973297  0.42823264136414  0.70797121542154
 6 -4.28624833093309 -0.77777759975998  0.87551557475748
 6 -2.90041904730473 -0.36375580128013  1.34801515571557
 6 -3.13778721712171  1.06414908320832  1.79648037873787
 6 -4.44464145904590  1.52729347814781  1.19432646254625
 6 -3.05774085618562  1.12690497859786  3.33528493739374
 6 -1.95253871487149 -0.49632489388939  0.16202016031603
 6 -0.49266668926893 -0.35724007120712  0.62063619291929
 6  0.51860299749975 -0.64936844974497 -0.42597797829783
 8  0.10116135623562 -0.95097050465047 -1.56611294299430
 8  1.72128393889389 -0.37174457085709 -0.10483727262726
 7 -7.11252170007001  2.55428101790179  0.31573026852685
 6 -6.03911319031903  3.33856483228323  0.80057359095910
 6 -6.41293854695470  4.76203049244925  0.74879556675668
 6 -7.70684339133913  4.87523815531553  0.30056844814481
 6 -8.13090736233623  3.48564776007601 -0.04270172387239
 6 -5.47958591529153  5.84317678357836  1.35538029852985
 6 -8.59399719731973  5.99087012071207  0.15153213861386
 6 -8.67625151645164  7.24562068066807  0.84689093889389
 7 -9.12100437303730  0.63708656975698 -0.53030706440644
 6 -9.79180544024402  1.80344029712971 -0.76398272237224
 6 -11.16205530213021  1.45080341944194 -1.22694441394139
 6 -11.20377278117812  0.05082044614461 -1.44554326832683
 6 -9.87411309200920 -0.32809478377838 -0.99109412551255
 6 -12.22522134583458  2.42667323832383 -1.54680145494549
 6 -12.31427597389739 -0.78748615871587 -1.90159096759676
 6 -12.19294678307831 -1.19594200540054 -3.35239035763576
 7 -7.09950941924192 -1.42571218481848 -0.14715939293929
 6 -8.24532477227723 -2.21360653275328 -0.58218317351735
 6 -7.79620576617662 -3.54383265076508 -0.68287556485649
 6 -6.42719660376038 -3.59862419941994 -0.21328306020602
 6 -6.14109670607061 -2.22018029932993  0.04680748494849
 6 -8.60467793519352 -4.84165700810081 -0.94611308970897
 6 -5.34408887918792 -4.33555743924392  0.23045591819182
 8 -5.08117695559556 -5.57435191859186  0.19026605730573
 6 -4.21786536593659 -3.29539532933293  0.68239810511051
 6 -3.59066969786979 -3.64810003130313  1.99273964686469
 8 -3.84308590919092 -3.15757249344934  3.04614729582958
 8 -2.64790598429843 -4.67075179757976  1.88034661556156
 6 -2.14204479237924 -5.12804703380338  3.08255319081908
 6  2.70676318801880 -0.75199299389939 -1.16042724312431
 6  4.05582767176718 -0.51679985628563 -0.56317646664666
 6  5.09239272367237  0.22775904130413 -0.98973874657466
 6  4.97146556955696  1.14027667696770 -2.11616578187819
 6  6.39587392019202  0.32253410361036 -0.22264875007501
 6  7.61050858875888 -0.15213556045605 -0.92158910941094
 6  8.90683255585559 -0.01012614301430 -0.16190800360036
 6  10.19176980148015 -0.42839991169117 -0.83938490899090
 6  10.13738043824382 -1.89810074617462 -1.34772823782378
 6  11.34459733663366 -0.10464424522452 -0.00780991239124
 6  12.76015092279228 -0.36949100020002 -0.63552357525753
 6  13.95802527092709 -0.15077628042804  0.24751181868187
 6  15.35185131003100 -0.18669239833983 -0.57270551035103
 6  15.58304997389739 -1.66553418721872 -0.87317693539354
 6  16.42019612551255  0.39575393539354  0.36953146034603
 6  17.80262485188519  0.45107650605060 -0.23951976657666
 6  18.82165253475348  1.21436965396540  0.70282071507151
 6  20.38958762796280  1.30373070657066  0.15838060126013
 6  20.33055440924092  2.03010130733073 -1.19192018471847
 6  21.30575150595060  1.84969790609061  1.08317368076808
 1 -4.12312379687969  3.29201472287229  1.93431801870187
 1 -9.98066845954595  3.98553938893889 -0.47027241874188
 1 -10.21564485388539 -2.38995833663366 -1.06681333353335
 1 -2.67904436133613 -1.19422773667367  2.02745343654365
 1 -2.46918052325233  1.76821040364036  1.33307395779578
 1 -2.10733519101910  0.78171862476248  3.64447816131613
 1 -3.32136719671967  2.05672973047305  3.79449161456146
 1 -3.97225066776678  0.47829251325133  3.67694010681068
 1 -2.10651313621362 -1.36439640004000 -0.52335624482448
 1 -2.23447512001200  0.20323757415742 -0.50568060766077
 1 -0.38080159755976  0.66345095899590  1.24887528662866
 1 -0.43428123012301 -1.19717423262326  1.58260221542154
 1 -5.82024079947995  7.04649329342934  1.11535724492449
 1 -5.40202719211921  5.71230459355936  2.44064036113611
 1 -4.54346830283028  5.70439160556056  0.75162833843384
 1 -9.11326337883788  6.09536568466847 -0.86527675587559
 1 -9.18803001890189  8.11306204510451  0.45789541134113
 1 -7.97741720752075  7.16195259475948  1.64935332083208
 1 -11.89327343244324  3.00460078607861 -2.49453245794580
 1 -13.00741041024102  1.98827271847185 -1.77192838433843
 1 -12.49833156425643  3.21836049074907 -0.81314255825583
 1 -12.28649342774277 -1.64462390749075 -1.18004295919592
 1 -13.18497721662166 -0.18290502730273 -1.80539606710671
 1 -12.95320167276728 -1.98045273147315 -3.68354823932393
 1 -12.11005456965697 -0.29927446504650 -3.91492498819882
 1 -11.12078835813582 -1.43856872397240 -3.66628524852485
 1 -8.80528013101310 -4.56474721762176 -2.02767603170317
 1 -7.91867123192319 -5.71061106530653 -0.81172078507851
 1 -9.54671455635564 -4.98858387968797 -0.33451527412741
 1 -3.34836553245325 -3.25606885758576 -0.07228249974998
 1 -1.73899206570657 -4.36197263696370  3.77574048934894
 1 -2.95295490409041 -5.55111672927293  3.66933977287729
 1 -1.42182029352935 -5.92211148434844  2.88083203610361
 1  2.81078038213821 -1.94500633653365 -1.12165613061306
 1  2.31279875747575 -0.43112883328333 -2.15292844504450
 1  4.07757866346635 -1.13594580978098  0.21184440044004
 1  3.70968993249325  1.16965567596760 -2.49706807650765
 1  5.35455086678668  2.27254751365137 -1.88982545074507
 1  5.55438274587459  0.66111721922192 -3.00419915091509
 1  6.28871093399340  1.53553755375538  0.01110375317532
 1  6.40242436183618 -0.21781981938194  0.68949866656666
 1  7.37276466116612 -1.15431466666667 -1.20981230483048
 1  7.83087552345235  0.30291349944994 -1.99758268186819
 1  9.07707975957596  1.08310619561956  0.04314194639464
 1  8.95261375007501 -0.72857836403640  0.80851871557156
 1  10.46877442884288  0.23633617131713 -1.66727161666167
 1  9.09650463596360 -2.13177115361536 -1.88440436523652
 1  11.20255281098110 -2.05840262416242 -1.77760200410041
 1  10.42507539353936 -2.56582852485249 -0.45216465616562
 1  11.57074475537554  1.12447467766777  0.22089357685769
 1  11.51255430883088 -0.52383834513451  0.88532915451545
 1  12.80645396429643 -1.34282244344434 -1.27765543314331
 1  12.86579033153315  0.21849254025403 -1.61736509780978
 1  14.02772420912091  0.93685624162416  0.58937628062806
 1  14.04628738183818 -1.03867347204720  0.97438395489549
 1  15.31640492899290  0.28690817581758 -1.62606696469647
 1  15.73940138303830 -2.12310260236024  0.15671421752175
 1  14.75015806650665 -2.10484285988599 -1.42374979007901
 1  16.50398002740274 -1.86767229212921 -1.49178064756476
 1  16.43396859755975  1.46868470217022  0.34097064136414
 1  16.44266871407141  0.08340916581658  1.40567332853285
 1  18.46055699439944 -0.52783933133313 -0.53020636103610
 1  17.90613767826783  0.87652497139714 -1.16263983978398
 1  18.49439023162316  2.43096725442544  0.79176718201820
 1  18.79773693399340  0.68080226122612  1.73380338063806
 1  20.72272718541854  0.35077122532253 -0.09434237023702
 1  19.88966307290729  3.10209377127713 -1.28843243664366
 1  21.34166841894190  2.06575322812281 -1.60539190249025
 1  19.81252515691569  1.55285709650965 -1.90961793079308
 1  21.25672164736473  1.46894500360036  2.12556217341734
 1  22.25135684198420  1.81736296599660  0.71615658195820
 1  20.91738146804681  2.91260134343434  1.25372581308131
=======
12 -7.16637721072107  0.59084783288329  0.03987167456746
 6 -4.83605822382238 -1.97584876327633  0.47923445614561
 6 -4.86415634453445  2.82287073437344  1.14305066996700
 6 -9.35472020752075  3.13301879737974 -0.26478933863386
 6 -9.45731604530453 -1.70313582458246 -0.89361579067907
 7 -5.19923334793479  0.44433425152515  0.78055847414741
 6 -4.33371307740774 -0.70581040304030  0.83520154335434
 6 -2.89899890529053 -0.38487791349135  1.18839919411941
 6 -3.10333377177718  1.04770743904390  1.64867559825983
 6 -4.41968896379638  1.44481523032303  1.01002803270327
 6 -3.06781186328633  1.23295558365837  3.15397680658066
 6 -1.82482594359436 -0.57640290169017  0.00798475677568
 6 -0.52534995759576 -0.38984333153315  0.44211834113411
 6  0.54230536773677 -0.59057257015702 -0.57383276377638
 8  0.28946018611861 -0.96525193279328 -1.71744807650765
 8  1.73021483198320 -0.32256965336534 -0.17694448334833
 7 -7.09143959185919  2.69739532933293  0.27982667816782
 6 -6.07910718971897  3.29940091589159  0.74034756835684
 6 -6.37608486158616  4.73755804520452  0.68454914211421
 6 -7.65963867086709  4.84594522602260  0.33258164946495
 6 -8.10981525312531  3.51887108240824  0.08918146444644
 6 -5.46890484718472  5.86243870977098  1.09912467296730
 6 -8.49679747734773  6.01484251795180  0.17427441284128
 6 -8.51733562486249  7.24013013161316  0.79469571937194
 7 -9.13742601520152  0.72233509460946 -0.51788582228223
 6 -9.77048330803080  1.88013796689669 -0.67803412751275
 6 -11.17547664426443  1.46822516161616 -1.07184890439044
 6 -11.28459086298630  0.14574993909391 -1.24565327932793
 6 -9.94459013971397 -0.39624159845985 -0.94409942604260
 6 -12.26146497019702  2.47892846384639 -1.38334510931093
 6 -12.39692423872387 -0.72547995809581 -1.80745155365537
 6 -11.98313580198020 -1.23132554375438 -3.16694181278128
 7 -7.20263973227323 -1.48535814941494 -0.03931860886089
 6 -8.23542378217822 -2.17922309440944 -0.37323227842784
 6 -7.80151629722972 -3.58561682918292 -0.46535381268127
 6 -6.50385426952695 -3.60883522052205 -0.13519525142514
 6 -6.18616121252125 -2.26170445174517  0.06883968816882
 6 -8.67737520492049 -4.79280212261226 -0.94256273467347
 6 -5.24893936423642 -4.44940882438244  0.15658853145315
 8 -5.11275011291129 -5.65535001840184  0.23477050775078
 6 -4.12837641704170 -3.30903669346935  0.55110497579758
 6 -3.59006963786379 -3.70556577787779  1.82041241414141
 8 -3.80946254685469 -3.19019575577558  2.92918559965997
 8 -2.63039423312331 -4.66944166656666  1.92389096999700
 6 -2.18331891979198 -5.16685091419142  3.08129306480648
 6  2.74075658735874 -0.65592338693869 -1.16969817021702
 6  4.11751384038404 -0.33988216451645 -0.45398554755476
 6  5.08384186858686  0.43978024342434 -0.86141591429143
 6  5.01614003700370  1.34636728602860 -2.08996316161616
 6  6.41727606040604  0.39320117031703 -0.19976646184618
 6  7.55464300220022 -0.08156850375037 -0.98887583808381
 6  8.82167404000400 -0.15907103750375 -0.17700951375138
 6  10.17809843434343 -0.72388946064606 -0.98129910041004
 6  10.15256195639564 -2.28421935803580 -1.22738620362036
 6  11.48343122002200 -0.32939672047205 -0.10280941234123
 6  12.78053296099610 -0.72289634073407 -0.70800082298230
 6  13.96280574897490 -0.22818402120212  0.12980004750475
 6  15.42316844174417 -0.32174590369037 -0.57167540734073
 6  15.74636630553055 -1.64820245404540 -0.96893651135114
 6  16.41906601250125  0.28340270027003  0.37355186238624
 6  17.78851344074407  0.34428582698270 -0.25840165476548
 6  18.66908727822782  1.28836705370537  0.67450788378838
 6  20.21216988618862  1.53044337783778  0.27949271247125
 6  20.27235858965897  2.31048934613461 -1.06459745244524
 6  20.96449738053806  2.20502343864386  1.47412277567757
 1 -4.28030951545155  3.63425894729473  1.43085767266727
 1 -10.27088748144815  3.81294212921292 -0.44519991149115
 1 -10.17271056045604 -2.42856219701970 -1.23166981918192
 1 -2.47164362126213 -0.84547286118612  2.02970366156616
 1 -2.01378498369837  1.60573415601560  1.52506315671567
 1 -2.07088154565457  0.85685613851385  3.55038875237524
 1 -3.19591465146515  2.47548160566057  3.32083424882488
 1 -3.73577702040204  0.69108379237924  3.78663107590759
 1 -2.14091657655766 -1.44963492389239 -0.51066497569757
 1 -2.11440311281128  0.13301055145514 -0.72268230783078
 1 -0.36977049444945  0.54893950785079  0.77513791289129
 1 -0.18192599459946 -1.07763227842784  1.31467542274228
 1 -5.74929370477048  6.91640028412841  0.71535724492449
 1 -5.51965895529553  6.18038140124012  2.06293259035904
 1 -4.43822777877788  5.77491865826583  0.89864303990399
 1 -9.07988004050405  5.77959410751075 -0.77627785598560
 1 -8.99373058895890  8.07331807070707  0.55600522232223
 1 -7.94094356015602  7.21234763426343  1.75192357785779
 1 -11.74417852295230  3.46387671367137 -1.73337634233423
 1 -13.02403207240724  2.00649454065407 -2.18360955245525
 1 -12.75827755885589  2.93427208190819 -0.34903614761476
 1 -12.42498727712771 -1.41333077817782 -1.10138509340934
 1 -13.37762648154815 -0.27343408020802 -1.65254078157816
 1 -12.78416476907691 -1.67042172837284 -3.65946583108311
 1 -11.97591115531553 -0.19405394299430 -3.76364986068607
 1 -10.99272555185519 -1.66344121122112 -3.15360398039804
 1 -9.07369697269727 -4.82358310121012 -1.91350461456146
 1 -7.90118948374837 -5.66872687688769 -0.81337095009501
 1 -9.34717460236024 -5.14296931823182 -0.41824364696470
 1 -3.42526322222222 -3.57366061676168 -0.10061533303330
 1 -1.87866603310331 -4.14859129882988  3.64555747104710
 1 -2.95608521712171 -5.56088770637064  3.66539937883788
 1 -1.13688179967997 -5.63586285948595  2.74146809970997
 1  2.78324762886289 -1.82160399629963 -1.23366733173317
 1  2.60557803540354  0.03506778637864 -2.13060621282128
 1  4.34417532313231 -1.05231744694470  0.31018423442344
 1  4.11384034753475  1.26325503590359 -2.66736510621062
 1  5.40003541524152  2.31699195809581 -1.75011147934793
 1  5.77797510511051  1.12136324382438 -2.92896162716272
 1  6.68727078997900  1.37356135613561  0.14095673847385
 1  6.30114423382338 -0.13993203060306  0.69491920862086
 1  7.28418580328033 -0.94151338653865 -1.45518684228423
 1  7.78724116001600  0.45279848794879 -1.99580250385038
 1  9.07363941554155  0.92143002800280  0.21410904310431
 1  8.92596108480848 -0.82826833303330  0.72915077877788
 1  10.21916946834683 -0.26871433373337 -2.05596048554856
 1  9.10397538303830 -2.49183716021602 -1.65291121592159
 1  10.81166372207221 -2.56794357825783 -2.01816606050605
 1  10.22504539053906 -2.94615655765577 -0.38560800050005
 1  11.40825850675068  0.68170040024002  0.36889837733773
 1  11.64254730813081 -0.90041600290029  0.86916753835384
 1  12.92521584048405 -1.79883804500450 -0.92967063466347
 1  12.70662441494149 -0.31100040904090 -1.71104446574658
 1  13.73425486218622  0.76793934993499  0.29460680368037
 1  14.01128388148815 -0.80784038873887  1.03662017851785
 1  15.38397168566857  0.35262474747475 -1.51146550455046
 1  16.02723016591659 -2.37037732983298 -0.21746320022002
 1  15.14119717041704 -2.14106648224823 -1.65578299339934
 1  16.76198582798280 -1.62382790769077 -1.42137360686069
 1  16.14849004970497  1.31419925362536  0.75414195849585
 1  16.38956340354035 -0.37966714181418  1.31476423762376
 1  18.47012795149515 -0.72892944034403 -0.35871921232123
 1  17.59431649614962  0.88182550145015 -1.28979255505551
 1  18.05801659425943  2.28852301000100  0.77944594989499
 1  18.70537769806981  0.73280746174617  1.73030303060306
 1  20.50360527322732  0.53165931413141  0.27374443844384
 1  19.94418852545254  3.28419198109811 -0.98491208460846
 1  21.37758201030103  2.27569422222222 -1.37834919821982
 1  19.57080098449845  1.88923073387339 -1.84359132813281
 1  20.88777475267527  1.80951906100610  2.47313693089309
 1  21.96609831613161  2.49810103980398  1.11033599989999
 1  20.60476020592059  3.28276836013601  1.59520996149615
>>>>>>> 8e03b5b5abfc0030b3aa597dc0de36371bfbd096

