%nproc=4
%Mem=2GB
# td=(NStates=1) CAM-B3LYP/6-31G(d,p) 

TD

0 1
<<<<<<< HEAD
12 -7.21687226022602  0.58398714681468  0.14757244464446
 6 -4.84131874987499 -1.93097427582758  0.45157168986899
 6 -4.81846177507751  2.80637908520852  1.22562892779278
 6 -9.43719845534553  3.07420291579158 -0.31762462216222
 6 -9.50110042374237 -1.72209772077208 -0.88686511561156
 7 -5.21042446704671  0.41484130223022  0.71656207450745
 6 -4.34932463856386 -0.68741856385639  0.71628965216522
 6 -2.91138014341434 -0.32177160286029  1.18533888808881
 6 -3.11022446084608  1.18595126342634  1.61039176987699
 6 -4.46477347224722  1.49432018081808  1.16498352825283
 6 -2.76595167726773  1.38432072017202  3.13036444534453
 6 -1.95502896389639 -0.43810907230723  0.05644960326033
 6 -0.50667809040904 -0.34550889808981  0.47470159945995
 6  0.62457359455946 -0.72801631453145 -0.60979636013601
 8  0.27717895799580 -1.06786219381938 -1.73197952965297
 8  1.83639545004500 -0.49127652405241 -0.17780456935694
 7 -7.07910835873587  2.61502709250925  0.41645034053405
 6 -6.05384466346635  3.35268624442444  0.76826035963596
 6 -6.40864811791179  4.74021831123112  0.75961664886489
 6 -7.72894560156016  4.80206083758376  0.35487387868787
 6 -8.08425269686969  3.47410660596060  0.07854040034003
 6 -5.50703866056606  5.93658612451245  1.01663642414241
 6 -8.54939273687369  5.97758879257926  0.14972195759576
 6 -8.43863775507551  7.15189130773077  0.79859610941094
 7 -9.18696096869687  0.70006286738674 -0.53781781548155
 6 -9.88310457015701  1.80732068516852 -0.62397872197220
 6 -11.28697779437944  1.34835317441744 -1.14793651315132
 6 -11.31696410031003  0.03219858395840 -1.23463217721772
 6 -9.97725340604060 -0.42925489978998 -0.78727374347435
 6 -12.36997582128213  2.34850542154215 -1.22357913271327
 6 -12.35411995829583 -0.80075748584858 -1.78633944244424
 6 -12.19039652805280 -1.16189860106011 -3.24545966456646
 7 -7.26068553685369 -1.39927954155416 -0.08853353035304
 6 -8.28438867866787 -2.30880605270527 -0.46745170037004
 6 -7.79022516811681 -3.65586385388539 -0.54295157245725
 6 -6.46123000710071 -3.58829316631663 -0.19720145204520
 6 -6.19141173757376 -2.22566084738474  0.03165596979698
 6 -8.63134060146015 -4.79895273767377 -0.86190466886689
 6 -5.28483295359536 -4.29781366486649  0.18149102170217
 8 -5.20740957885789 -5.63088757215722  0.35158218891889
 6 -4.14101768116812 -3.28051384118412  0.58950881618162
 6 -3.52351298219822 -3.64136935823582  1.85918629152915
 8 -3.76198779937994 -3.07141387758776  2.87319000010001
 8 -2.73650484418442 -4.79005372777278  1.76731531243124
 6 -2.09241982988299 -5.10930515961596  3.01009594509451
 6  2.84485699739974 -0.68003579817982 -1.28242944334433
 6  4.14066615561556 -0.34188236453645 -0.48700884988499
 6  5.16945042944294  0.39384564996500 -0.96889666236624
 6  5.18315673867387  1.23823647294729 -2.26544070937094
 6  6.40298463126313  0.46280813101310 -0.13795028022802
 6  7.55314285218522 -0.12728307520752 -0.94902185268527
 6  9.00292216481648  0.03073794339434 -0.09363117591759
 6  10.15990661516152 -0.43267033873387 -0.95319629012901
 6  10.15331203140314 -2.02386332243224 -1.37960142514251
 6  11.51033391029103 -0.25932971377138 -0.13671280268027
 6  12.81856676437644 -0.48265231633163 -0.84169419231923
 6  14.01674114251425 -0.01310251305131 -0.03923685618562
 6  15.37715384028403 -0.21194492359236 -0.60457869766977
 6  15.67908957785779 -1.73318095189519 -0.77738735643564
 6  16.38747285318532  0.28534289428943  0.46377088428843
 6  17.84084867426743  0.30872227062706 -0.13242905750575
 6  18.76384675417542  1.23884210121012  0.78468890189019
 6  20.18696736593659  1.29334966846685  0.35340010321032
 6  20.29586093989399  2.08827712491249 -0.95677667036704
 6  21.10057098789879  1.97476041234123  1.45841120452045
 1 -4.12540402490249  3.37665318671867  1.73832841974197
 1 -10.01114150685068  3.90819165416542 -0.65331072257226
 1 -10.33522681208121 -2.32348168896890 -1.17132378457846
 1 -2.88518497539754 -1.11187950185019  1.98719941114111
 1 -2.36277988318832  1.86689027162716  1.15059570997100
 1 -1.72974743224322  0.97034748764876  3.12653636713671
 1 -3.19437449744974  2.43322738023802  3.58914107950795
 1 -3.36879032173217  0.51650633463346  3.76404881768177
 1 -2.02992547744774 -1.55707566796680 -0.26274018321832
 1 -2.09543121562156  0.23852110251025 -0.88545858545855
 1 -0.24721823922392  0.71626624052405  0.75949634873487
 1 -0.22711051305131 -0.98309282448245  1.30378433363336
 1 -5.84476325172517  6.78813745784578  0.50732644184418
 1 -5.20458744814481  6.28556191929193  2.00979727682768
 1 -4.38588254425443  5.58367953435343  0.63612678827883
 1 -9.26367842034204  6.14397054515451 -0.57936816501650
 1 -8.96160737663766  8.03668440734073  0.75782540434043
 1 -7.70864032983298  7.25889228872887  1.66721510701070
 1 -11.97088119321932  3.15512583858386 -1.85068807350735
 1 -13.21334100330033  1.83481737293729 -1.55496668816882
 1 -12.76111784288429  2.83797245194519 -0.27428867286729
 1 -12.40737551595160 -1.87083652875287 -1.23082803770377
 1 -13.37767648654865 -0.47834457125713 -1.59427495499550
 1 -13.25734208680868 -1.53743843004300 -3.58642852735274
 1 -11.99532309650965 -0.40909544714471 -3.92642613831383
 1 -11.43334961426143 -1.86078094519452 -3.56263488348835
 1 -9.04615421842184 -4.70056079897990 -1.89647291139114
 1 -8.46595596039604 -5.85039504370437 -0.53165277827783
 1 -9.50387027192719 -4.54201922322232 -0.34405622822282
 1 -3.57768846474647 -3.26629988068807 -0.41555682718272
 1 -1.49078724522452 -4.34858129782978  3.48640155545555
 1 -3.02024163276328 -5.18104972257226  3.69862270117012
 1 -1.50734884638464 -5.80261953515352  2.90934488738874
 1  2.73464276837684 -1.75437727362736 -1.63796776177618
 1  2.79776725432543 -0.11167688808881 -2.18885203740374
 1  4.30504140974097 -0.56535875107511  0.54963817981798
 1  4.22395135863586  1.25655436583658 -2.72648101780178
 1  5.18034344604460  2.31706196509651 -1.85860232843284
 1  6.02697000460046  1.08771987948795 -2.94308303930393
 1  6.71822388528853  1.45441944194419 -0.10159751695170
 1  6.19992411181118 -0.16749478687869  0.67987770447045
 1  7.39341672637264 -1.21458069326933 -1.09166048964896
 1  7.98804124002400  0.34943815191519 -1.73114603820382
 1  9.03095514711471  1.06985487048705  0.40246787898790
 1  8.96908539723973 -0.74854036023602  0.82101996569657
 1  10.26523407480748  0.17145968366837 -1.93915880538054
 1  9.38018300380038 -2.32259023552355 -2.17613353815382
 1  11.11733428912891 -2.67320410431043 -1.59827407130713
 1  10.10261314731473 -2.59297123912391 -0.41130056975698
 1  11.46627430833083  0.85816804700470  0.22821430893089
 1  11.30393344674468 -0.83510947224722  0.88666928852885
 1  12.85162848174818 -1.70160832203220 -0.93531119871987
 1  12.65017877037704 -0.16241555055506 -1.97561092239224
 1  13.92842427912791  0.98324088008801  0.13170051305131
 1  13.84142689578958 -0.62352195689569  0.94842135863586
 1  15.51014430293029  0.33326281128113 -1.61579593759376
 1  15.62386982988299 -2.35782607470747  0.03368191429143
 1  14.97666071677168 -2.33918629422942 -1.34760217531753
 1  16.58228785818582 -1.85903142804280 -1.53976544604460
 1  16.11809701040104  1.42003983768377  0.74495103940394
 1  16.27972241944194 -0.18379755485549  1.32267502870287
 1  17.93403434213421 -0.84322086948695 -0.13278661906191
 1  18.01439850435044  0.71027834673467 -1.33437701350135
 1  18.43861465406541  2.28522267996800  1.02984098939894
 1  18.63948110841084  0.92611679267927  1.82828282858286
 1  20.64645955865587  0.08927507570757  0.21143820782078
 1  19.76085019161916  3.11370493239324 -0.96497009040904
 1  21.30088434053405  2.30089674247425 -1.11984334763476
 1  19.88028193259326  1.44084589538954 -1.91126809580958
 1  21.07519349454946  1.36169427852785  2.33934355155516
 1  22.18191989828983  2.22759398909891  1.04903987028703
 1  20.69683941384138  2.97966805010501  1.48541898239824
=======
12 -7.18276884988499  0.62183093119312  0.04713240064006
 6 -4.85672029002900 -1.89056023442344  0.43707023972397
 6 -4.83118304720472  2.83326177347735  1.21740810571057
 6 -9.39951468696870  3.05258075357536 -0.38245110481048
 6 -9.55571588528853 -1.80427593859386 -0.84383081218122
 7 -5.15404882948295  0.47979779787979  0.64090450875087
 6 -4.41514122022202 -0.66550637263726  0.86363438663866
 6 -2.94591359675968 -0.33831325702570  1.30177053125313
 6 -3.10767420582058  1.12809547784778  1.73584431513151
 6 -4.45234222912291  1.52179292809281  1.20629765966597
 6 -3.08227330943094  1.19465175327533  3.30577198609861
 6 -1.94448790979098 -0.55866112751275  0.07990194849485
 6 -0.46504392699270 -0.61008535573557  0.57643177247725
 6  0.51609274647465 -0.62290580348035 -0.58429380988099
 8  0.25596683678368 -1.01734714231423 -1.66368269997000
 8  1.77143895439544 -0.33390078647865 -0.16055284418442
 7 -7.07927837573757  2.65945153495350  0.25134382988299
 6 -6.13045232423242  3.37814879067907  0.75010854445445
 6 -6.53372062516252  4.80405469486949  0.83444413161316
 6 -7.87104981198120  4.79606023752375  0.33056144744474
 6 -8.23196746834684  3.44479367466747  0.07607015331533
 6 -5.55709366606661  5.92644511041104  1.19208396889689
 6 -8.69366716431643  5.98834986868687  0.11033801920192
 6 -8.56511040234023  7.04308042664266  0.80772702250225
 7 -9.13115538813881  0.64408726982698 -0.48328236193619
 6 -9.92183844354435  1.77415736883688 -0.64925124922492
 6 -11.16090518711871  1.42454079317932 -1.30214193369337
 6 -11.22079448334834  0.04167953205321 -1.37687640164016
 6 -9.86591227192719 -0.45191716601660 -0.95638065416542
 6 -12.40937976167617  2.40132070307031 -1.44596137093709
 6 -12.37252179847985 -0.76119352945295 -1.80555136363636
 6 -12.35974346274628 -1.11892430363036 -3.29681480008001
 7 -7.27218668696870 -1.42021163476348 -0.08766344334433
 6 -8.33406364616462 -2.31969714181418 -0.50898585378538
 6 -7.88984513011301 -3.59623789128913 -0.43788106540654
 6 -6.45752963706371 -3.57621195819582 -0.07545927782778
 6 -6.20897349374938 -2.21541982328233  0.10318312251225
 6 -8.60555802320232 -4.87050989338934 -0.75615409380938
 6 -5.31443591389139 -4.28882276577658  0.25669854245425
 8 -5.17809664756476 -5.49103358675868  0.18561559225923
 6 -4.16871045044504 -3.23315910571057  0.50031989728973
 6 -3.56938756965697 -3.68410363166317  1.80776114901490
 8 -3.79727132773277 -3.10741747794779  2.87410009110911
 8 -2.68907010071007 -4.55970069246925  1.68876745764576
 6 -2.11590217811781 -5.12474670377038  2.91719665516552
 6  2.76953946564656 -0.61970976557656 -1.17132833323332
 6  4.19517160616062 -0.42656083238324 -0.48897904690469
 6  5.21812529692969  0.33510977637764 -0.92897266996700
 6  5.17208563156316  1.18734138343834 -2.17754191949195
 6  6.42814714751475  0.36901875207521 -0.12703918911891
 6  7.68784632253225 -0.23995434233423 -0.83919086958696
 6  9.02516438903890  0.11448631823182 -0.07516932973297
 6  10.29687031153115 -0.49115618731873 -0.81400237073707
 6  9.99981668186819 -2.10486142224222 -1.03664712971297
 6  11.55348822572257 -0.13960774157416 -0.01364049544954
 6  12.77192209990999 -0.49943399449945 -0.73019304220422
 6  13.98142761116112 -0.02209341214121  0.10345741324132
 6  15.38451457635763 -0.24612834193419 -0.54453269306931
 6  15.91237290619062 -1.70832846664666 -0.89634925262526
 6  16.37102120802080  0.36937129712971  0.41561606880688
 6  17.82421701110111  0.57495889428943 -0.20721653625363
 6  18.95348571807181  1.20840905790579  0.65216564956496
 6  20.35115378457846  1.29816014951495  0.03456822002200
 6  20.53923527732773  2.16641493869387 -1.19564055675568
 6  21.27276820762076  1.66050898719872  1.26321168456846
 1 -4.14108559305931  3.57763328472847  1.56744133103310
 1 -10.10622101480148  3.84447528252825 -0.47677306880688
 1 -10.31695498489849 -2.36827616841684 -1.30136678887889
 1 -2.63159961686169 -0.90292860676068  2.20203089428943
 1 -2.35891949714972  1.82946652925293  1.41124177457746
 1 -2.08577303480348  0.83509396229623  3.59783349684969
 1 -3.33383844384438  2.34194825232523  3.69170133553355
 1 -3.90676411911191  0.67380206420642  3.70115252805281
 1 -2.06056854175418 -1.53615357575758 -0.39572348154815
 1 -2.08030970347035  0.18519576997700 -0.57292733233323
 1 -0.12565608300830  0.33334794869487  1.10390078917892
 1 -0.25526332833283 -1.63011752695270  1.14883883908391
 1 -5.89923869926993  6.79783842794279  0.67430313951395
 1 -5.31365835523552  6.15023838693869  2.24148044514451
 1 -4.42197615361536  5.49653081948195  0.91921509710971
 1 -9.38783083558356  5.67537368546855 -0.74010423862386
 1 -9.29828104400440  7.89303004190419  0.67885750755075
 1 -7.88916838263826  7.02149854935494  1.69479786528653
 1 -11.98106221132113  3.22208253425342 -2.15429843454345
 1 -13.25041471067107  2.05924981618162 -2.00492168366837
 1 -12.64246597769777  2.86972562726273 -0.48784002800280
 1 -12.31055583398340 -1.72002144724472 -1.14081903680368
 1 -13.33244196309631 -0.15490222702270 -1.62498802630263
 1 -13.14657100970097 -1.99458414461446 -3.59578946344634
 1 -12.48734229842984 -0.20588512611261 -3.94119761546155
 1 -11.20748702800280 -1.57936280338034 -3.54534315431543
 1 -8.57332693569357 -5.03805454835484 -1.96153941804180
 1 -7.87223658845885 -5.70232023622362 -0.47254686768677
 1 -9.78832871777178 -5.05964098539854 -0.53780560316032
 1 -3.38574927082708 -3.33896714741474 -0.25466073757376
 1 -1.48040620712071 -4.23228966866687  3.40748366366637
 1 -3.09469907850785 -5.24407602520252  3.53849668856886
 1 -1.65732384388439 -6.07035630883088  2.61793574647465
 1  2.77655695979598 -1.71083291919192 -1.63040700570057
 1  2.61711918951895  0.03986826642664 -1.95183833603360
 1  4.21580248584858 -0.99396161136114  0.40116333233323
 1  4.20211917541754  1.26754546494649 -2.55290366006601
 1  5.44020943264326  2.16454671357136 -1.79343581178118
 1  5.82895020262026  0.73912502000200 -2.81778050905090
 1  6.55328739163916  1.52569656965697  0.08616125892589
 1  6.22451657105711 -0.00182822022202  0.74810452715272
 1  7.29826721142114 -1.47857709290929 -0.78620994459446
 1  7.81559399529953  0.16558976707671 -1.93893681728173
 1  9.13318537013701  1.07329521452145  0.07517514971497
 1  9.16925541424142 -0.42102760896090  1.02785064876488
 1  10.44882243364336  0.04116665436544 -1.94607949744975
 1  9.06236122162216 -2.28361633813381 -1.77240316511651
 1  10.90773332903290 -2.66800358425843 -1.45023926782678
 1  9.92287517351735 -2.70049199119912 -0.10510995069507
 1  11.49026670757076  0.90698292849285  0.37297878537854
 1  11.55419847324733 -0.68177413871387  0.85225584718472
 1  12.84485780468047 -1.42258041924192 -1.15708337593759
 1  13.02170592309231  0.13962465346535 -1.51678503980398
 1  13.73942537923792  0.90191274727473  0.50049739273927
 1  13.96786954005401 -0.74862446714671  1.00876739323932
 1  15.49069235773577  0.32375186018602 -1.40177453545355
 1  15.75587303020302 -2.23273356545655 -0.06469792369237
 1  15.07251030173017 -1.95231760736074 -1.59610702580258
 1  16.77635726512651 -1.87190271517152 -1.30593206270627
 1  15.93892909360936  1.32207004070407  0.68490503480348
 1  16.41350579777978 -0.03928310341034  1.32244500570057
 1  18.35199613831383 -0.29755630303030 -0.52612595299530
 1  17.81834889938994  0.97493481238124 -1.25390896669667
 1  18.66890768336834  2.25054921262126  0.74002200750075
 1  18.89597675797580  0.86947112811281  1.67095709600960
 1  20.55286019871987  0.14573072127213 -0.27658059405941
 1  20.06736084268427  3.19606316821682 -0.89647324072407
 1  21.59313356545655  2.29950660346035 -1.21232259555956
 1  19.92746665106511  1.95159697049705 -2.14191116011601
 1  21.40367634283428  0.69648775787579  2.04727434463446
 1  22.29905161146115  1.72416364606461  0.75255022132213
 1  20.88105783568357  2.64666474977498  1.61542198269827
>>>>>>> 8e03b5b5abfc0030b3aa597dc0de36371bfbd096

