%nproc=4
%Mem=2GB
# td=(NStates=1) CAM-B3LYP/6-31G(d,p) 

TD

0 1
12 -7.13253382638264  0.58966771487149  0.09237692509251
 6 -4.93544816281628 -1.93639481788179  0.64803133583358
 6 -4.81796172507251  2.86148459575958  1.02141850675067
 6 -9.45300003550355  3.14468996449645 -0.40984384408441
 6 -9.64608492219222 -1.77205271627163 -0.86021245034503
 7 -5.11551497609761  0.38763858195820  0.79579999829983
 6 -4.34193389948995 -0.76225604760476  0.93872189538954
 6 -2.97399640504050 -0.39158858455846  1.23588394259426
 6 -2.98069150755075  1.11936460476048  1.61162189288929
 6 -4.36824381928193  1.48567931673167  1.15081211111111
 6 -2.94630971307131  1.32975526362636  3.15641705060506
 6 -1.96149961096110 -0.59620488188819  0.00317427572757
 6 -0.52047947054705 -0.45223957115712  0.55023915321532
 6  0.52935407260726 -0.65943945684568 -0.57431281178118
 8  0.34780602070207 -1.00397580518052 -1.69067539923992
 8  1.81771358185819 -0.37852524892489 -0.10140692959296
 7 -7.15088553645365  2.60810640044004  0.30959965546555
 6 -6.05809508850885  3.46036701250125  0.70199373297330
 6 -6.50355760886089  4.83296758615862  0.68137882508251
 6 -7.82851555855586  4.87102773427343  0.30218861016102
 6 -8.24693896549655  3.48449764506451  0.11900444674467
 6 -5.55287324402440  5.85751821772177  1.06131089158916
 6 -8.61271906950695  6.05728676237624  0.13095008040804
 6 -8.45803969526953  7.11791791039104  0.80681693149315
 7 -9.12835510811081  0.61020388148815 -0.56877091079108
 6 -9.86137239693969  1.80253020612061 -0.70751707580758
 6 -11.19448854545455  1.50301864096410 -1.12845456495650
 6 -11.21479388328833  0.11075643974397 -1.24116283028303
 6 -9.96729240994099 -0.46375835013501 -0.81256627272727
 6 -12.26943576727673  2.48042861386139 -1.33098987378738
 6 -12.39685423172317 -0.68344575467547 -1.85079588808881
 6 -12.31549903830383 -0.87936034723472 -3.34164928352835
 7 -7.26432590089009 -1.41396100970097 -0.04062873987399
 6 -8.39511975177518 -2.27093226532653 -0.51843679887989
 6 -7.85832197779778 -3.55235350285029 -0.54386166346635
 6 -6.53228711281128 -3.60853519051905 -0.01801353325333
 6 -6.25109770617062 -2.20317859915992  0.26242904710471
 6 -8.58590605800580 -4.89047188958896 -0.73823230163016
 6 -5.34670914121412 -4.32526641014101  0.23522639523952
 8 -5.11735057295730 -5.56869135253525  0.15819284998500
 6 -4.18839241864186 -3.34160995079508  0.54412427772777
 6 -3.54043467436744 -3.70360558185819  1.94034440734073
 8 -3.87890949154915 -3.13884062026203  2.93735641674167
 8 -2.65271646534653 -4.63277800020002  1.70848942984298
 6 -2.16139672757276 -5.16720094919492  2.95886082158216
 6  2.82913542524252 -0.70806860146015 -1.09492069246925
 6  4.15844793379338 -0.47634581088109 -0.49187933693369
 6  5.13034651905190  0.22236850225023 -0.99373914661466
 6  5.12876129912991  1.04306695599560 -2.26678084338434
 6  6.51329566236624  0.17169902010201 -0.16552303750375
 6  7.66198373627363 -0.42527287418742 -0.92947989848985
 6  8.98038991159116 -0.29939506990699 -0.16006781958196
 6  10.24008463296330 -0.71094816651665 -0.89164013451345
 6  10.11763846404640 -2.08491942804280 -1.42750621562156
 6  11.57859073597360 -0.30585436623662 -0.01809094049405
 6  12.77075198289829 -0.58328237933793 -0.73708373127313
 6  13.99767923632363 -0.19327052985299  0.17559462696270
 6  15.36724284918492 -0.13061679077908 -0.58153639343934
 6  15.80772244114411 -1.48589622342234 -1.19287890559056
 6  16.50912501840184  0.35168952895290  0.38571307850785
 6  17.84449903930393  0.85270666906691 -0.33438925352535
 6  18.77286765626563  1.35459367636764  0.76792722572257
 6  20.21462013121312  1.42738307180718  0.35282004520452
 6  20.47677903170317  2.34758305550555 -0.89599059175918
 6  21.10244117491749  1.95746868316832  1.42606797019702
 1 -4.07048853335333  3.71044656605661  1.40575516241624
 1 -10.27565795849585  3.84405524052405 -0.51354674617462
 1 -10.52146543594360 -2.35262460326033 -1.21326797899790
 1 -2.54265072197220 -1.07197551145115  1.92107279847985
 1 -1.96851045624563  1.73737732033203  1.16847749814982
 1 -2.04850930843084  1.08934938783878  3.57320103360336
 1 -3.17285234523452  2.42332639013901  3.39150131553155
 1 -3.81377482018202  0.77370205420542  3.79560197299730
 1 -1.94094657955796 -1.45497545794579 -0.43670757995800
 1 -2.10447211971197  0.20009726012601 -0.74217425702570
 1 -0.33815733313331  0.45516012991299  0.97909830893089
 1 -0.22185998799880 -1.23400791599160  1.27899185438544
 1 -5.93351212661266  6.85939458355836  0.59576528572857
 1 -5.64048103750375  5.95415877897790  2.25119141624162
 1 -4.45404936093609  5.73506467286729  0.82330550615061
 1 -9.52522457495750  5.99241538963896 -0.66746697489749
 1 -9.07060827672767  7.89104984388439  0.57451707350735
 1 -7.62217168296830  7.04697109660966  1.47555594109411
 1 -12.08002210731073  2.93252357835784 -2.33082608730873
 1 -13.42814248344834  1.99790368156816 -1.27102829432943
 1 -12.16818854995500  3.59690834553455 -0.69664090809081
 1 -12.44833961236124 -1.69243868896890 -1.61430638553855
 1 -13.17641636053605 -0.08560529732973 -1.50894642214221
 1 -13.12721907450745 -1.36004069026903 -3.82561244574457
 1 -12.48944250845085  0.10566602900290 -3.94983847954795
 1 -11.33672995229523 -1.36684155125513 -3.66578519851985
 1 -9.26805640864086 -4.68204894779478 -1.62235549964996
 1 -8.09600896569657 -5.72826283048305 -0.78770838383838
 1 -9.26457634253425 -5.01127614891489  0.17960613801380
 1 -3.49887058295830 -3.55141839253925 -0.12668794029403
 1 -1.59375754225422 -4.41089752945295  3.59217213251325
 1 -3.09771938053805 -5.55735735333533  3.65087792669267
 1 -1.75768387988799 -6.14878415161516  2.60148410131013
 1  2.80841014511451 -1.75036687258726 -1.31431539653965
 1  2.65147262486249 -0.14479019941994 -2.02149530173017
 1  4.25830673627363 -1.03242545774577  0.51335455145515
 1  4.09674863836384  0.85168387878788 -2.71283965366537
 1  5.53446885858586  2.04965522442244 -2.24165063326333
 1  5.93836114371437  0.55906701420142 -2.97164589558956
 1  6.71757382028203  1.45582958295830  0.17406004880488
 1  6.40538465786579 -0.22822085948595  0.90152986968697
 1  7.26859424412441 -1.45370460566057 -1.16141746534654
 1  7.64008644454445  0.08684189228923 -1.71672459605961
 1  9.01377342894289  0.77700558555856 -0.06280864866487
 1  8.87300578927893 -0.88084359055906  0.84975283898390
 1  10.36135368676868  0.10058259595960 -1.74351924142414
 1  9.25478046354636 -2.32587056355636 -1.99108503330333
 1  11.03899645534553 -2.38043482738274 -2.12230647454745
 1  10.18496138213822 -2.58010995299530 -0.48511795149515
 1  11.41655933683368  0.62943517371737  0.37450893839384
 1  11.62769582298230 -1.11653761506151  0.87503812541254
 1  12.79651297019702 -1.75023318451845 -0.97822549014901
 1  12.99484323682368 -0.12371168016802 -1.66073943524352
 1  13.94763620032003  0.80592314831483  0.58599594259426
 1  13.94461721482148 -0.99410901560156  0.84570108660866
 1  15.23582687118712  0.58756824182418 -1.48056241424142
 1  15.77189463236324 -2.27734802690269 -0.46016747064706
 1  15.21259431013101 -1.90476285188519 -2.07647506260626
 1  16.72505213461346 -1.39992551745175 -1.59687115661566
 1  16.09705490619062  1.41178901260126  0.84133067736774
 1  16.66582102930293 -0.24573374847485  1.26823958515852
 1  18.34277521622162  0.04095754835484 -0.64142748314831
 1  17.70445751025103  1.47746506540654 -1.19691326712671
 1  18.48042883548355  2.35792995069507  1.24887289258926
 1  18.69088624892489  0.71591577257726  1.52603260356036
 1  20.70148506120612  0.37232338053805  0.24621168516852
 1  20.14359846644664  3.44012757465747 -0.52460605400540
 1  21.57356160826083  2.18072472527253 -1.26564792809281
 1  19.92961686608661  1.89039084988499 -1.84361133013301
 1  20.93401937713772  1.48436654575458  2.36747636483648
 1  22.13458516481648  1.88910013971397  1.01519648594860
 1  20.82291202110211  2.96238632193219  1.68160860136014

