%nproc=4
%Mem=2GB
# td=(NStates=1) CAM-B3LYP/6-31G(d,p) 

TD

0 1
<<<<<<< HEAD
12 -7.26210678367837  0.53668241634163  0.13478116551655
 6 -4.78612323032303 -1.94951613001300  0.45868240094009
 6 -4.88410833973397  2.86669511681168  1.09412577747775
 6 -9.56240097559756  3.03507900340034 -0.29249210891089
 6 -9.55448576227623 -1.74409992099210 -0.85532196129613
 7 -5.09268269286929  0.47177699579958  0.64400481878188
 6 -4.29064877097710 -0.67531735373537  0.64349237243724
 6 -2.92209121452145 -0.27319674537454  1.22131248544854
 6 -3.06903034143414  1.17176984528453  1.64053478417842
 6 -4.46386338123812  1.55448619741974  1.16897392729273
 6 -2.92338742084208  1.24035632373237  3.10412182108211
 6 -1.82782624362436 -0.55398065946595  0.18728268656866
 6 -0.46087350995100 -0.50557490469047  0.56660078937894
 6  0.56500763796380 -0.67878139103910 -0.54627000750075
 8  0.24517575767577 -1.08179358695870 -1.62725905760576
 8  1.86005781628163 -0.30349774617462 -0.11450823972397
 7 -7.19102955085509  2.61844743454345  0.38319701520152
 6 -6.23286256525653  3.41186216201620  0.80781431503150
 6 -6.48975622872287  4.83168745814582  0.76924761196120
 6 -7.83851655865586  4.86735736723672  0.29969836113611
 6 -8.27462173377338  3.47512670797080  0.06441898819882
 6 -5.52780073677368  5.90797326322632  0.98345310581058
 6 -8.63688148574857  6.08251928562856  0.14440142554255
 6 -8.55225911721172  7.19282540114011  0.85840209000900
 7 -9.11859413201320  0.60401326242624 -0.46745077877788
 6 -9.92118837853785  1.75532548564856 -0.54645096919692
 6 -11.21901099769977  1.35867420652065 -0.95673739323932
 6 -11.23928633253325  0.04797016111611 -1.19876859085909
 6 -9.94071975267527 -0.41898387268727 -0.86807182328233
 6 -12.32698152185218  2.36063663466347 -1.36349312411241
 6 -12.33206775307531 -0.73791120122012 -1.68533934243424
 6 -12.27122461086109 -0.93618602980298 -3.18782390099010
 7 -7.24824429272927 -1.51004061766177 -0.21526620362036
 6 -8.25358559835984 -2.25405057715772 -0.63787874307431
 6 -7.77140328592859 -3.62998126562656 -0.57747502480248
 6 -6.40438432253225 -3.51237557455746 -0.13174490639064
 6 -6.13415601200120 -2.15542382368237  0.01964476867687
 6 -8.50143761116112 -4.89321216361636 -0.83619209760976
 6 -5.34570904120412 -4.32874675817582  0.08711158375838
 8 -5.18932777067707 -5.48794327772777  0.08969600030003
 6 -4.14827840724072 -3.25598138793879  0.48755862116212
 6 -3.46951758265827 -3.63322854415442  1.79147952085209
 8 -3.74014561516152 -3.10330706690669  2.80417309840984
 8 -2.60742193589359 -4.68971369376938  1.74116269716972
 6 -2.06597718561856 -5.03008723782378  3.00016495199520
 6  2.92808532023202 -0.72450024462446 -1.17126832723272
 6  4.19590167916792 -0.52863103940394 -0.56461661066107
 6  5.15024850925092  0.35318158355836 -1.01010078277828
 6  4.95061348434843  1.19613226252625 -2.24515868116812
 6  6.43093742654265  0.40047189738974 -0.30369685488549
 6  7.67384492239224 -0.25263561046105 -1.00452740324032
 6  8.91920379297930 -0.19839496989699 -0.14688650145015
 6  10.16581720622062 -0.67974504620462 -0.81004197469747
 6  10.00275697589759 -2.04669560566057 -1.28116158115812
 6  11.40551342824283 -0.19187296809681 -0.02545167656766
 6  12.75973088078808 -0.50426447754775 -0.60857087998800
 6  13.90438990739074 -0.15029623242324  0.35782284978498
 6  15.39175530043004 -0.27617134623462 -0.30492873267327
 6  15.69541121002100 -1.68907654145415 -0.73703332103210
 6  16.52622672857286  0.40331469146915  0.56291079827983
 6  17.78873346274627  0.55751715011501 -0.18763457805781
 6  18.87218758825883  1.33102131913191  0.79047948094809
 6  20.36874554375438  1.30466079957996  0.15459022222222
 6  20.37399875367537  2.04103240044004 -1.21265225792579
 6  21.19941087188719  1.96767970427043  1.10287565096510
 1 -4.27295878037804  3.72765828722872  1.58698328522852
 1 -10.30372076477648  3.72859369436944 -0.49967535903590
 1 -10.11772506190619 -2.45189453025303 -1.50901755395540
 1 -2.91433789068907 -1.04370268416842  1.97832852405241
 1 -2.36639024422442  1.79043262586259  1.12078272867287
 1 -1.90136459395940  0.80881133403340  3.49801351485148
 1 -3.05166022602260  2.31999605710571  3.51690385578558
 1 -3.70084352705270  0.51796648064806  3.63479589238924
 1 -1.97595007990799 -1.52749270967097 -0.13721763096310
 1 -2.04904657715772 -0.07530027962796 -0.65298533813381
 1 -0.23556707410741  0.41919653355336  1.09859025812581
 1 -0.23214101610161 -1.08669318451845  1.52046600180018
 1 -5.88613738913891  6.94889353345335  0.33031874107411
 1 -5.28090507990799  6.19803316641664  2.11532782988299
 1 -4.47852180818082  5.70492165856586  0.72808598419842
 1 -9.46413846634663  5.98914506260626 -0.55081530973097
 1 -8.97819903580358  8.17502824172417  0.58985860766077
 1 -7.88176764256426  7.29946634613461  1.69144753025303
 1 -11.99676378147815  3.12027235323532 -2.22784578927893
 1 -13.28969863906391  1.81116500770077 -1.86370756225623
 1 -12.80892262336234  2.93257191189119 -0.53408465246525
 1 -12.35785056345635 -1.59671911701170 -1.21303625852585
 1 -13.32645136403640 -0.47561429822982 -1.36113164066407
 1 -12.91762811541154 -1.61355604180418 -3.24900478497850
 1 -12.69149271347135  0.00915637803780 -3.70388388408841
 1 -11.09538581788179 -1.29050391749175 -3.36053467346735
 1 -9.19970957395740 -4.70448119101910 -1.81093435753575
 1 -7.79992935773577 -5.67420742494249 -0.87265687868787
 1 -9.27932781768177 -5.10111513281328 -0.13043486608661
 1 -3.57079777567757 -3.42489574027403 -0.52468774027403
 1 -1.37504567106711 -4.03492993269327  3.33464637993799
 1 -2.97841745034503 -4.98918053565357  3.88350118901890
 1 -1.54589270077008 -6.10348962216222  2.96721067396740
 1  2.76157546164616 -1.78180001590159 -1.52234619961996
 1  2.59343682128213 -0.03994971537154 -1.85174832703270
 1  4.40737164276428 -0.98423063826383  0.49639285528553
 1  3.97773673717372  1.08223693409341 -2.60085845554555
 1  5.38222363406341  2.01008126702670 -1.93864033223322
 1  5.45820312791279  0.63819492699270 -3.23095182618262
 1  6.70149221212121  1.42759675967597 -0.08818617581758
 1  6.17093121252125 -0.04681271867187  0.70322003870387
 1  7.42209959465947 -1.45129436463646 -1.09119044264426
 1  7.92903533943394  0.22826603470347 -1.89975289888989
 1  8.89570162176217  0.90780866586659  0.10463809600960
 1  8.94294278297830 -0.72356786298630  0.70298816251625
 1  10.24971252265226 -0.09354681698170 -1.81685657515752
 1  9.16412139763976 -2.28654663116312 -2.14318024282428
 1  10.91358391409141 -2.49612639653965 -1.90363460736074
 1  9.85369825582558 -2.73322526452645 -0.45164460416042
 1  11.34450213111311  0.83366559675968  0.26079756725673
 1  11.22726577997800 -0.76046200750075  0.94682530413041
 1  12.87799111801180 -1.54531269246925 -1.09382705030503
 1  12.99629338183818 -0.11315062406241 -1.68472183348335
 1  14.04600603730373  0.96083863986399  0.55821316431643
 1  13.95123787688769 -0.65352495719572  1.27474399089909
 1  15.52632592109211  0.51834131913191 -1.11277563556356
 1  15.87833527642764 -2.32142243434343  0.11366991309131
 1  14.77388043874388 -2.34919729532953 -1.29514692979298
 1  16.55964559395940 -1.54184970987099 -1.34812628212821
 1  16.15704090479048  1.55322315601560  0.84872141644164
 1  16.74132858005800 -0.10638981408141  1.39291205240524
 1  18.17569850855086 -0.53349989738974 -0.47872121252125
 1  17.64230129462947  1.08070538943894 -1.11462503830383
 1  18.51271206380638  2.43210736843684  0.87479548484848
 1  18.88947610791079  0.90674485548555  1.71250125042504
 1  20.72201711441144  0.39072522072207 -0.19198213421342
 1  19.83014712131213  2.92226578847885 -1.10534412781278
 1  21.28335258735873  2.19603625642564 -1.61671303460346
 1  19.77429133353336  1.42165397619762 -1.93354032303230
 1  21.45804177937794  1.64228233733373  2.20825044224422
 1  22.09919162546255  1.95043627332733  0.68591355765577
 1  20.76327605750575  2.82081216451645  1.41469190969097
=======
12 -7.11568214121412  0.52719146724672  0.15660334773477
 6 -4.88578319631963 -1.93856503490349  0.56716324902490
 6 -4.71351128002800  2.81923037033703  1.05738210311031
 6 -9.33423815931593  3.07878337383738 -0.37088994869487
 6 -9.53771408510851 -1.79283479447945 -0.79262569166917
 7 -5.12087551215122  0.43515333343334  0.70593101140114
 6 -4.37592729882988 -0.70514033603360  0.85359338253825
 6 -2.87787679307931 -0.39260868656866  1.19953030723072
 6 -2.91852529092909  1.07049971827183  1.61902263296330
 6 -4.33145013991399  1.48871962076208  1.12598962886289
 6 -2.79519460156016  1.21279356745675  3.10813222212221
 6 -1.91339480048005 -0.72974823622362  0.05925988428843
 6 -0.52944036663666 -0.44486883408341  0.44334846414641
 6  0.60710184738474 -0.59908342124212 -0.60781616211621
 8  0.21543278337834 -0.94695010261026 -1.72817914961496
 8  1.85657746824682 -0.36935433183318 -0.22795958485849
 7 -7.06351679957996  2.61341693149315  0.33625232073207
 6 -6.00383966296630  3.24979595539554  0.73219675327533
 6 -6.28054530763076  4.70584487388739  0.68470915811581
 6 -7.59341204820482  4.85738637013701  0.32259065036504
 6 -8.11348562016202  3.48196739203920  0.07884043034303
 6 -5.34099205590559  5.91510397629763  1.03628838933893
 6 -8.33691148874887  6.01943297699770  0.09264625002500
 6 -8.36797068836884  7.18489460806081  0.74659090889089
 7 -9.18153042564257  0.60025288638864 -0.40654468816882
 6 -9.86327258695870  1.75717567066707 -0.59942626672667
 6 -11.16160525712571  1.51591993109311 -1.12192391189119
 6 -11.15173757765777  0.16032139623962 -1.26985569956996
 6 -9.94577025772577 -0.48572054635464 -0.85573058915892
 6 -12.23238206190619  2.50522109310931 -1.42129890469047
 6 -12.26244079037904 -0.69415682578258 -1.67388819731973
 6 -12.39285677407741 -0.99551196239624 -3.14817993659366
 7 -7.22856232453245 -1.44083369696970 -0.06989166616662
 6 -8.27776801660166 -2.28673384548455 -0.55599055425543
 6 -7.95244138973897 -3.64210247774777 -0.40516779407941
 6 -6.54787867196720 -3.63602793979398  0.07921618971897
 6 -6.25232782918292 -2.22500078137814  0.28077088128813
 6 -8.63123059045905 -4.98121096349635 -0.83254173257326
 6 -5.39379384968497 -4.49250313381338  0.30599347194719
 8 -5.27356619451945 -5.67148163156316  0.41172820352035
 6 -4.21315489488949 -3.39676546634663  0.50179004430443
 6 -3.51747237813781 -3.54284950625062  1.87761813471347
 8 -3.75506710731073 -3.13931066726673  2.95175785688569
 8 -2.64058525222522 -4.56967168956896  1.78179676057606
 6 -2.16073666156616 -5.30306453555356  2.99906484198420
 6  2.86873938563856 -0.60526832143214 -1.28944014441444
 6  4.20159224822482 -0.46020419671967 -0.73740388938894
 6  5.05661914631463  0.47863412881288 -1.30642041474147
 6  4.95106352935294  1.29357200650065 -2.46694085938594
 6  6.46676100890089  0.57825967616762 -0.49640612581258
 6  7.59562710061006  0.05535518861886 -1.11888883938394
 6  8.89125099769977 -0.09389451985199 -0.19130094289429
 6  10.14156478097810 -0.56813388508851 -0.92623359385939
 6  9.96921362156215 -1.96553748984898 -1.39244270927093
 6  11.37369024592459 -0.28000178097810 -0.02725185658566
 6  12.72231713941394 -0.32128617971797 -0.73350337323732
 6  13.91847131553155  0.01142994019402  0.16159322682268
 6  15.23805993089309 -0.14749847894789 -0.43941218101810
 6  15.62708437733773 -1.53607124092409 -1.01306092379238
 6  16.36042014791479  0.32996735673567  0.42436694389439
 6  17.84856944634463  0.45092649104910 -0.11968778337834
 6  18.72238260776077  1.01420963796380  0.95866629962996
 6  20.15528419761976  1.33196352985299  0.41317608080808
 6  20.14277563136314  2.29097739493949 -0.73808480118012
 6  21.05577650845085  1.78069100540054  1.52342770617062
 1 -3.94723620812081  3.61411693309331  1.42768735563556
 1 -9.92464285698570  3.84574540954095 -0.80848624012401
 1 -10.40137342674267 -2.50682002280228 -0.91458811101110
 1 -2.74452090899090 -1.04950326422642  2.10993168436844
 1 -2.01496510171017  1.62109569216922  1.03824447484748
 1 -2.03497795529553  0.69527998089809  3.44290800430043
 1 -2.80083514351435  2.23728778627863  3.50127229262926
 1 -3.54279772247225  0.56453113711371  3.63976638943894
 1 -2.14159664456446 -1.85456541694169 -0.23577748694869
 1 -2.31200287278728 -0.11643439303930 -0.85280532013201
 1 -0.47459097649765  0.46065067896790  0.72755315441544
 1 -0.45312311431143 -1.02897741294129  1.34372832803280
 1 -5.76667544294429  6.86260490459046  0.72601831103110
 1 -5.34126111551155  6.00388375147515  2.02715901300130
 1 -4.32589654565457  5.69448061446145  0.71585476107611
 1 -9.02195424792479  6.17994414251425 -0.66447667586759
 1 -9.01718293419342  8.06638737763776  0.23619324112411
 1 -7.68718818461846  7.37793419291929  1.67686607210721
 1 -12.07986209130913  3.07386771277128 -2.42408541324132
 1 -13.19616928612861  2.13987787898790 -1.49564075557556
 1 -12.36129786088609  3.26767542224222 -0.55775701970197
 1 -12.52722750115012 -1.67584702980298 -1.19051400630063
 1 -13.31020973987399 -0.02665940274027 -1.37084261176118
 1 -13.24252060466047 -1.92516720292029 -3.21386127062706
 1 -12.50544410861086 -0.30088462606261 -3.93492698839884
 1 -11.56028230753075 -1.67359222632263 -3.30032865286529
 1 -8.95894549754975 -4.64085482838284 -1.88313157725773
 1 -7.91027039183918 -5.83602360656066 -0.84804441744174
 1 -9.53955384028403 -5.13680870217022 -0.06755857845785
 1 -3.32048274417442 -3.55585883658366 -0.14349962146215
 1 -1.58855702220222 -4.52801924162416  3.32640555585559
 1 -2.90443005160516 -5.59080069766977  3.66233907280728
 1 -1.57128524002400 -6.13113238643864  2.71671562446245
 1  2.57790709480948 -1.60289212511251 -1.64862882788279
 1  2.91790926852685 -0.00979670007001 -2.18821197339734
 1  4.50665157075708 -1.04763697889789  0.01317453345335
 1  3.98956792029203  1.31721043144314 -3.16692506220622
 1  5.37048245994599  2.28977923682368 -2.59791625982598
 1  5.49491679927993  0.73505461296130 -3.38487721872187
 1  6.47433949684968  1.75058905890589 -0.06891424862486
 1  6.43104722412241 -0.03063110051005  0.52023173987399
 1  7.40394777947795 -0.81517075227523 -1.53682500610061
 1  7.91946438233823  0.57954116221622 -2.16871979557956
 1  9.09860191179118  1.02256014101410  0.07270490269027
 1  8.84418290699070 -0.84336984318432  0.58520638433843
 1  10.49785733713371  0.00242277997800 -1.76911180068007
 1  9.17350233573357 -1.96543451995200 -2.09040496529653
 1  10.76801935763576 -2.14097088098810 -1.91422566646665
 1  9.83406629262926 -2.92552449444945 -0.71449088878888
 1  11.14966264716472  0.67474970517052  0.59589107660766
 1  11.41323437683769 -0.99816577787779  0.84117473907391
 1  12.98293161206121 -1.27172533373337 -1.15717338493849
 1  12.61452520502050  0.33735442644264 -1.53818718001800
 1  13.78778021472147  0.97371992799280  0.56446378937894
 1  14.01903465656566 -0.57594719941994  1.19470598709871
 1  15.25358864736473  0.55437492249225 -1.56408076607661
 1  15.77971541444144 -2.18960925302530 -0.17658911281128
 1  14.79601265196520 -1.91335371097110 -1.63661107620762
 1  16.71463109250925 -1.46955248014801 -1.44829629912991
 1  16.10063526422642  1.50640847454745  0.72559910421042
 1  16.31537598479848 -0.30168934403440  1.36061882308231
 1  18.29742068076808 -0.48696524392439 -0.59121246164616
 1  17.79001606610661  0.98176549544954 -1.04191776757676
 1  18.50826161876188  2.02129628732873  1.47235524082408
 1  18.84199135943594  0.15229941094109  1.72655265556556
 1  20.65630054275428  0.33199934813481  0.05580264426443
 1  19.91352545914591  3.27063062496250 -0.27057065046505
 1  21.04975922802280  2.14218087088709 -1.27788915221522
 1  19.51122502690269  1.91644345514551 -1.51300826982698
 1  21.11670764596460  1.04123223232323  2.21965158235824
 1  22.04761646794679  1.78198942864286  1.19590455675568
 1  20.75534526442645  2.70103018631863  1.84952539303930
>>>>>>> 8e03b5b5abfc0030b3aa597dc0de36371bfbd096

