%nproc=4
%Mem=3GB
# td=(NStates=1) iop(3/107=0140000000,3/108=0140000000) CAM-B3LYP/6-31G(d,p) 

TD

0 1
12 -7.17438212991299  0.57055543904390  0.04176054605461
 6 -4.91584040054005 -1.96184341494149  0.54062946534653
 6 -4.79754578517852  2.83663238113811  1.14395450065007
 6 -9.38484524902490  3.12452000500050 -0.40564303960396
 6 -9.53556965496550 -1.74293605930593 -0.90609741464146
 7 -5.11291832303230  0.47189327992799  0.61587941194119
 6 -4.40410265756576 -0.73997514071407  0.73572146684668
 6 -2.89582580318032 -0.42952135013501  1.13161883098310
 6 -2.99437266416642  0.96781548314831  1.63810008930893
 6 -4.44958519321932  1.50899555065507  1.13989838373837
 6 -2.92160834163416  1.12675549484949  3.08047336193619
 6 -1.84077980768077 -0.57907389658966 -0.04715090479048
 6 -0.49316502570257 -0.36567981598160  0.48247162946295
 6  0.57085900910091 -0.61768839073907 -0.65917570767077
 8  0.30165038183818 -0.88630240794079 -1.76494388748875
 8  1.71350994939494 -0.31727166556656 -0.15251063866387
 7 -7.14229187258726  2.55396860676068  0.21694261836184
 6 -6.05077522132213  3.35834960236024  0.79124500060006
 6 -6.38029293769377  4.73709057265727  0.76977523622362
 6 -7.62136692199220  4.80174197939794  0.25538166456646
 6 -8.10371989948995  3.45639257805781  0.03361135973597
 6 -5.46126816071607  5.83135260896090  1.27408756395640
 6 -8.34785479347935  6.04865513511351  0.20304091659166
 6 -8.16070448044804  7.23807295699570  0.88020207950795
 7 -9.05065410651065  0.74522151655166 -0.54276084998500
 6 -9.84011149744974  1.82053537783778 -0.77814062756276
 6 -11.28820277297730  1.48448789328933 -1.24452931263126
 6 -11.20927041424142  0.10275782158216 -1.23024305260526
 6 -9.92204980858086 -0.32091228462846 -0.95023722502250
 6 -12.31647258495850  2.37826306770677 -1.51349080178018
 6 -12.43738753165317 -0.68622474627463 -1.77776710731073
 6 -12.35918782768277 -1.06689688198820 -3.20110076127613
 7 -7.38410137253725 -1.44223905960596 -0.09092176727673
 6 -8.35287961426143 -2.26774532003200 -0.48318989888989
 6 -7.94054609440944 -3.68248880028003 -0.46862716251625
 6 -6.58603639413941 -3.58618160026003  0.00982890119012
 6 -6.29915364706471 -2.17059501530153  0.24717655305531
 6 -8.82465480498050 -4.82067816621662 -0.77724110721072
 6 -5.32768823172317 -4.39014257765777  0.28262323642364
 8 -5.24938593089309 -5.61546840384038  0.24093004160416
 6 -4.18839334193419 -3.29058650605061  0.59648797039704
 6 -3.58056223302330 -3.77010495319532  1.91264723322332
 8 -3.88631141454145 -3.24740209810981  2.94206756495650
 8 -2.75110046284628 -4.80193881238124  1.79625866336634
 6 -2.38867782478248 -5.51849705560556  2.98514591499150
 6  2.80694701510151 -0.41439972887289 -1.15446896409641
 6  4.08175906110611 -0.38050331823182 -0.48623118591859
 6  5.15873136443644  0.43242977097710 -0.87543042004200
 6  5.03617734333433  1.31693936923692 -2.11362549754976
 6  6.46916319501950  0.37762837883788 -0.11697222162216
 6  7.64921637423742 -0.20179872787279 -0.95601593029303
 6  8.95166287788779 -0.12503431953195 -0.08896499889989
 6  10.25513097369737 -0.44089575277528 -0.83851957195720
 6  10.11243452005201 -1.98996687658766 -1.14339130513051
 6  11.48080274407441 -0.23446833793379  0.08371040854085
 6  12.87824556005601 -0.44510454395440 -0.57113461856186
 6  14.02795406720672  0.06187047274727  0.17623403500350
 6  15.32392838383838 -0.07093617721772 -0.53731938443844
 6  15.55150142114211 -1.59946833513351 -0.85633746004600
 6  16.45124211691169  0.43271978927893  0.37166190089009
 6  17.86428401610161  0.62515624522452 -0.34799132613261
 6  18.87742816141614  1.17455553405341  0.63627688438844
 6  20.33404620902090  1.19819925242524  0.14937164316432
 6  20.50794364016402  2.09693699879988 -1.15366006190619
 6  21.39725479247925  1.69773147304730  1.27932187218722
 1 -4.00532089558956  3.49973322472247  1.28452454825483
 1 -10.01469359265927  3.87691996649665 -0.41564609080908
 1 -10.28559298339834 -2.45427096219622 -1.17328514791479
 1 -2.63908119531953 -1.17798800150015  2.09000549124912
 1 -2.17442090839084  1.70093215431543  1.15829947894789
 1 -2.17445053145315  0.76980608700870  3.74064440184018
 1 -3.17401451055105  2.12818204100410  3.45714373657366
 1 -3.84553735423542  0.72519767406741  3.47263894909491
 1 -2.18854397339734 -1.84888555935594 -0.39011701880188
 1 -2.22808917791779 -0.01477385758576 -0.91521825642564
 1 -0.57454288298830  0.62759234653465  0.66903076607661
 1 -0.22438085838584 -1.13260402700270  1.18866232453245
 1 -5.64367854555455  6.81528904090409  0.76382621392139
 1 -5.45444691599160  6.09487236863686  2.21934394689469
 1 -4.44169901450145  5.65008927692769  1.09658039063906
 1 -9.26445670547055  6.01756513851385 -0.40248160086009
 1 -8.97429649334934  8.04098381938194  0.60145992169217
 1 -7.41718965106511  7.28718555495550  1.71593055335533
 1 -12.37522799579958  2.96616576367637 -2.44774060556056
 1 -13.30695799349935  1.93585232763276 -1.67749347754775
 1 -12.48375940864086  2.79996733083308 -0.48103854335434
 1 -12.56370833573357 -1.49140006280628 -1.05863936483648
 1 -13.44772707180718 -0.01033374387439 -1.85676143054305
 1 -13.29777497669767 -1.66161982408241 -3.48542950105011
 1 -11.99525993169317 -0.15138360966097 -3.90983996239624
 1 -11.54678951835183 -1.87484851205121 -3.23988226642664
 1 -9.22253687228723 -4.57226372717272 -1.74548061106111
 1 -8.40385477067707 -5.94590054335434 -0.96818677377738
 1 -9.71763594259426 -5.01107955635564 -0.25498776747675
 1 -3.39559707820782 -3.50288689428943 -0.09434717281728
 1 -1.65147853545355 -4.73642585598560  3.53176489408941
 1 -3.25022145944594 -5.76675620052005  3.61288232593259
 1 -1.45818633913391 -6.32767355215522  2.76005936703670
 1  2.57027508230823 -1.44276089888989 -1.68419986868687
 1  2.48831527282728  0.23965205000500 -1.99681073857386
 1  4.21757224392439 -0.98215662946295  0.65503690389039
 1  4.07827313881388  1.53205874857486 -2.66113659935994
 1  5.55672260446045  2.37497792169217 -1.74624206260626
 1  5.57764733323332  0.93294448534853 -2.85007126402640
 1  6.56039422332233  1.34217419801980  0.14093370727073
 1  6.20073794589459 -0.28465580228023  0.73391958745875
 1  7.32058418121812 -1.23183385638564 -1.05397015421542
 1  7.92995555405541  0.24571367436744 -1.86441726462646
 1  9.05302134643464  0.73269276677668  0.31363379147915
 1  8.94508762956296 -0.59060741344134  0.87048317171717
 1  10.37020165196520  0.24251039883988 -1.68930408840884
 1  9.38714832393239 -2.04760304380438 -2.05130351225123
 1  11.22530167076708 -2.33918731803180 -1.51780713881388
 1  9.89901209830983 -2.63025714041404 -0.46569396309631
 1  11.56582822442244  0.87650408380838  0.29108687948795
 1  11.42944053955396 -0.72597389498950  0.91575789588959
 1  12.96526447894790 -1.43651107040704 -0.93553582508251
 1  13.02040787068707  0.02490742674267 -1.45553988768877
 1  13.75586700700070  1.08921428472847  0.44119894859486
 1  14.18931724232423 -0.47452383128313  1.12047442144214
 1  15.46111651305131  0.69556295329533 -1.53945521432143
 1  15.82611640844084 -2.03718305950595  0.19164102860286
 1  14.54327597199720 -2.10978549854986 -1.29437081058106
 1  16.36640492009201 -1.70606150315032 -1.57806431973197
 1  16.04377765126512  1.44684301800180  0.98041395769577
 1  16.54048812661266 -0.22361864666467  1.31979047374738
 1  18.34605134283428 -0.49794630863086 -0.54773496909691
 1  17.69909721932193  1.18550744484448 -1.28149389298930
 1  18.69985904280428  2.21833310131013  0.95919786658666
 1  18.73631959445945  0.73648848834883  1.61887513301330
 1  20.57349718201820  0.19521051865186 -0.22369647744774
 1  20.14459127762776  3.26822759925993 -0.83620580528053
 1  21.63154695549555  2.19229037113711 -1.50454843604360
 1  19.88708710631063  1.86850714091409 -1.96575495989599
 1  21.49201305480548  0.95523116401640  2.07679134793479
 1  22.46936482928293  1.72820329102910  0.79762641624162
 1  21.08286836533653  2.73610972817282  1.40199733643364

