%nproc=4
%Mem=2GB
# td=(NStates=1) CAM-B3LYP/6-31G(d,p) 

TD

0 1
12 -7.12817339033903  0.64801354945495  0.04742242964296
 6 -4.81550616861686 -1.84474565296530  0.59340587328733
 6 -4.83270319921992  2.93267171447145  1.15273163806381
 6 -9.42033676917692  3.05241073657366 -0.46914977467747
 6 -9.41036134983498 -1.74572008300830 -0.93437986708671
 7 -5.14254767936794  0.52166198429843  0.73814423272327
 6 -4.32552225832583 -0.62734255625563  0.85400342354235
 6 -2.89467847324732 -0.32220164586459  1.20956131033103
 6 -3.04198763716372  1.12312498079808  1.77304803550355
 6 -4.41066806170617  1.57914866366637  1.06072310221022
 6 -3.15700078217822  1.26110839893989  3.24896630553055
 6 -1.97651111211121 -0.43578884028403  0.07614157245725
 6 -0.49737716031603 -0.33291763896390  0.59213334263426
 6  0.56687782498250 -0.52887640054005 -0.53294867536754
 8  0.26621786188619 -0.87932333993399 -1.68754508620862
 8  1.79231104160416 -0.34392178857886 -0.08349513841384
 7 -7.19177962586259  2.63679926972697  0.38916761226123
 6 -6.11750102910291  3.38382935873587  0.82138567216722
 6 -6.57907516061606  4.85687997739774  0.77114780198020
 6 -7.79372207920792  4.83902453395340  0.29710810211021
 6 -8.17153142474248  3.43904309960996  0.00449299559956
 6 -5.63994195089509  5.84167663356336  1.34374913541354
 6 -8.63413121072107  6.02334336803680  0.09140612601260
 6 -8.68690258155816  7.12734885348535  0.72276852665267
 7 -9.06507878047805  0.60618347944794 -0.51094512821282
 6 -9.81973823352335  1.71081103420342 -0.75297162126213
 6 -11.17907700430043  1.36374471357136 -1.11981370087009
 6 -11.15970837473747  0.08350371447145 -1.30488920292029
 6 -9.84456013671367 -0.48840081438144 -0.85832084818482
 6 -12.29243806750675  2.34082465346535 -1.49540631543154
 6 -12.31851639793979 -0.83062047214721 -1.68176898539854
 6 -12.27849533793379 -1.04415682688269 -3.27251236983698
 7 -7.16818628692869 -1.36713632723272 -0.22505718271827
 6 -8.19859009880988 -2.24222939503950 -0.56323127832783
 6 -7.70767691329133 -3.64706297379738 -0.57058433573357
 6 -6.36258014211421 -3.50026436343634 -0.18732046394639
 6 -6.13542613901390 -2.23359164046405  0.11396420062006
 6 -8.39774724212421 -4.92553539593959 -0.91347982638264
 6 -5.32412688298830 -4.36156003950395  0.14730760336034
 8 -5.14370320822082 -5.55274975837584  0.09432646334633
 6 -4.13869744914491 -3.29217500730073  0.62805267056706
 6 -3.52884351525153 -3.63445866716672  1.93014338723872
 8 -3.74171577217722 -3.05437217341734  2.98342102320232
 8 -2.76771796549655 -4.74678940134013  1.79491807270727
 6 -2.25322591049105 -5.18788301740174  3.09094402990299
 6  2.69788229992999 -0.57731552615262 -1.15099630003000
 6  4.09719180818082 -0.48411658795880 -0.48455860486049
 6  5.12129561396140  0.30357662306231 -0.81517128982898
 6  5.00670909390939  1.13990663996400 -2.14882904820482
 6  6.40189452225222  0.39255110531053 -0.17490397559756
 6  7.55133267116712 -0.13567391429143 -1.03550050055006
 6  8.86930880348035 -0.13296842724272 -0.08055986878688
 6  10.21825244974497 -0.54823189488949 -0.92087305780578
 6  10.06505320552055 -1.96317725382538 -1.45459892489249
 6  11.45337821472147 -0.32356613741374  0.02165303390339
 6  12.77446235393539 -0.63144719581958 -0.69551957485749
 6  14.02029149754975 -0.17520872367237  0.11661872937294
 6  15.43514963986399 -0.21513524262426 -0.47918615841584
 6  15.65689735863586 -1.69869750355036 -0.83286290399040
 6  16.50507461336134  0.26224058405841  0.45163967116712
 6  17.94087867726773  0.34875627402740 -0.25820163476348
 6  18.78052842234224  1.21046926392639  0.64481491449145
 6  20.26665533473347  1.33389372287229  0.16677144034403
 6  20.44002535633564  2.06445474267427 -1.16829782248225
 6  21.13229416021602  2.03532646894689  1.29598496189619
 1 -4.10896238073807  3.59864538593859  1.68633322022202
 1 -10.21510190289029  3.83993482848285 -0.74714010551055
 1 -10.05346863626363 -2.49607894869487 -1.40643729592959
 1 -2.53525998289829 -0.97722603650365  2.13339403060306
 1 -2.27121072627263  1.64143772637264  1.31038168856886
 1 -2.09617407490749  1.02431288418842  3.62693640714071
 1 -3.34910997099710  2.27759181668167  3.48414057945795
 1 -3.98504194689469  0.64382906690669  3.78865127792779
 1 -2.15517800270027 -1.45319527992799 -0.35676958615862
 1 -1.80823249574958  0.23223047344734 -0.75243528312831
 1 -0.33137665506551  0.61115572947295  0.89628002710271
 1 -0.33055085708571 -1.04413892909291  1.47463141834183
 1 -6.13286206160616  6.87505614971497  0.95200090929093
 1 -5.59498648804880  5.84804816791679  2.36840313741374
 1 -4.65971992799280  5.75201636803680  0.98120129572957
 1 -9.25251730423042  6.00198634673467 -0.75227545574557
 1 -9.31939315521552  8.02437317621762  0.38768839063906
 1 -8.05989545534553  7.12292869236924  1.67951633713371
 1 -12.20390449554956  2.85385571157116 -2.38182118681868
 1 -13.43877354655466  1.92184607580758 -1.56209740124012
 1 -12.48139987108711  2.88730738543854 -0.54022526652665
 1 -12.28555333373338 -1.84722416751675 -1.19449440434043
 1 -13.24324304320432 -0.36392312911291 -1.24489001650165
 1 -13.09292564516452 -1.80148483468347 -3.53750363486349
 1 -12.17500106430643 -0.16612114971497 -3.75920941664166
 1 -11.26559283858386 -1.65920078717872 -3.34127274727473
 1 -8.92372197519752 -4.87761850475048 -1.96728999309931
 1 -7.71532089688969 -5.65975597979798 -0.91299091209121
 1 -9.17563744864487 -5.09244426572657 -0.34507633023302
 1 -3.29640033593359 -3.60708395909591 -0.04959023052305
 1 -1.43300146664666 -4.55929236893689  3.62002491779178
 1 -3.01756136473647 -5.58689030663066  3.69441228012801
 1 -1.84181229272927 -6.16382565576558  2.67322127502750
 1  2.81335063916392 -1.53041487738774 -1.54686865186519
 1  2.40030750835083 -0.06769248964897 -1.97953110531053
 1  4.29075998159816 -1.09577179237924  0.40290350635063
 1  4.00112907640764  1.21345005540554 -2.50001837153715
 1  5.29414482618262  2.10626088498850 -1.91916838503850
 1  5.68523583118312  0.78132924042404 -2.87126585758576
 1  6.74408647154715  1.49665366536654 -0.01361871907191
 1  6.44462858225823 -0.10175821322132  0.86044576127613
 1  7.29161654635463 -1.04091332653265 -1.22530385398540
 1  7.86600903680368  0.36115932403240 -1.92953587718772
 1  8.89510156175617  1.00310819581958  0.35590322252225
 1  8.76280476917692 -0.80345585178518  0.72893075677568
 1  10.30691824322432  0.25943848154815 -1.73471836133613
 1  9.27252223772377 -2.02761073757376 -2.17730365516552
 1  10.97881043674368 -2.32527931183118 -1.95520976487649
 1  9.79416230223022 -2.80764270627063 -0.62728216791679
 1  11.56406408730873  0.73646587678768  0.42407389488949
 1  11.50310336373637 -1.02478844014401  0.63570419201920
 1  12.84653797269727 -1.71182934413441 -0.80257792539254
 1  12.69233298579858  0.03344403540354 -1.62350571187119
 1  13.87963940064006  0.75619817581758  0.51278862186219
 1  13.79497225032503 -0.81355095979598  1.05606212271227
 1  15.38814210271027  0.42627211221122 -1.43357771577158
 1  15.66181362426243 -2.33462375447545  0.07663620972097
 1  14.95215826652665 -1.82285466106611 -1.52265968106811
 1  16.74740436983699 -1.74040956585659 -1.25048651815181
 1  16.18105330603060  1.12123995769577  0.72306885118512
 1  16.58295274247424 -0.36437561266127  1.38129089028903
 1  18.29897083578358 -0.47811435883588 -0.59734307470747
 1  17.77305436993700  0.64000131903190 -1.34648822462246
 1  18.14879567216722  2.30318447614761  0.70379838513851
 1  18.78199535983599  0.75067924892489  1.60911091139114
 1  20.71370628332834  0.33000914911491 -0.00285322132213
 1  20.15147925452545  3.17477103900390 -1.12839643304330
 1  21.32571682378238  2.00767742054205 -1.60934229752975
 1  19.69061296569657  1.77611942274227 -1.95669263826383
 1  21.09053502870287  1.46184429352935  2.30196981418142
 1  22.13148485478548  1.92608383808381  0.88975394169417
 1  20.80552028192820  3.03815389868987  1.46527696819682

