%nproc=4
%Mem=2GB
# td=(NStates=1) CAM-B3LYP/6-31G(d,p) 

TD

0 1
<<<<<<< HEAD
12 -7.12561313431343  0.62698144624462  0.06876456385639
 6 -4.88650326832683 -2.04677585598560  0.56688322102210
 6 -4.77646757565757  2.80254870217022  1.05813217811781
 6 -9.40759549504950  3.03420891639164 -0.33839669936994
 6 -9.49157947164717 -1.73494900590059 -0.92265869496950
 7 -5.09293271787179  0.43595341344134  0.69928034633463
 6 -4.32395210131013 -0.73796361836184  0.75632365556556
 6 -2.89669867526753 -0.45721514721472  1.19846020022002
 6 -3.03853729212921  1.03757642594259  1.65958668936894
 6 -4.40993798869887  1.48388913771377  1.12044907480748
 6 -2.89277435953595  1.27779006710671  3.18132954185419
 6 -1.92854631563156 -0.71230649204920  0.07897185548555
 6 -0.52765018761876 -0.59123347054705  0.56346047534753
 6  0.53990512771277 -0.78944245714571 -0.51977735823582
 8  0.30261150125012 -1.35185059265927 -1.62823915561556
 8  1.75039685018502 -0.46476387278728 -0.13743053195320
 7 -7.12782323022302  2.57799338913891  0.27900659615962
 6 -6.06028530753075  3.39682065786579  0.70039357295730
 6 -6.35708296139614  4.74535882528253  0.78260894809481
 6 -7.78947165416542  4.80984161566157  0.39549794109411
 6 -8.19533380498050  3.47332652795280  0.19775232153215
 6 -5.48122607930793  5.84105657155716  1.02439720022002
 6 -8.61345914351435  6.06887792149215  0.24367135253525
 6 -8.55559945124513  7.15668178677868  0.93836008580858
 7 -9.07157943054305  0.63272613371337 -0.59684371807181
 6 -9.85040129982998  1.83551350445045 -0.76437276137614
 6 -11.17259635623562  1.46896523562356 -1.16267798729873
 6 -11.14385678957896  0.07817318141814 -1.32196091009101
 6 -9.81922760346035 -0.38088006230623 -1.07474249034903
 6 -12.30546937063706  2.47007757875788 -1.30493726852685
 6 -12.31832637893789 -0.75343275337534 -1.79473028152815
 6 -12.18196568496850 -0.91166357755776 -3.35900101870187
 7 -7.24084355265527 -1.41792140574057 -0.25850052705271
 6 -8.20019025882588 -2.15440061216122 -0.65923087828783
 6 -7.82915906150615 -3.60884915241524 -0.51041831913191
 6 -6.56452033613361 -3.52587692469247 -0.11603333523352
 6 -6.18771136753675 -2.23447172847285  0.08866167036704
 6 -8.68293576097610 -4.88224106650665 -0.88864734313431
 6 -5.27054152445245 -4.34691857535754  0.15318819141914
 8 -5.22162100000000 -5.62523700710071  0.20423745444544
 6 -4.19890346974697 -3.31002679247925  0.56342620792079
 6 -3.59994062496250 -3.71165638693869  1.92723309620962
 8 -3.76954855545555 -3.14777151335134  2.96824950605060
 8 -2.77046824052405 -4.75422014441444  1.89207778867887
 6 -2.33050363826383 -5.20170439953995  3.20560549604961
 6  2.83489600130013 -0.63132092669267 -1.11881308170817
 6  4.15630771977198 -0.27281545784578 -0.40724087308731
 6  5.14429791419142  0.46020228562856 -0.85373514621462
 6  5.14811323432343  1.19974262356236 -2.10691485678568
 6  6.42023635643564  0.55101695189519 -0.11016750195020
 6  7.62919045694569  0.07793744684468 -0.97461441194119
 6  9.00635250785079  0.13286815641564 -0.09748156095610
 6  10.16092671717172 -0.42716978867887 -0.87060803130313
 6  10.06358305850585 -1.87414835093509 -1.27178064306431
 6  11.47026990389039 -0.12637641844184 -0.00118925032503
 6  12.79255416311631 -0.38625267636764 -0.72006202910291
 6  13.95610507890789 -0.00459166196620  0.17199426692669
 6  15.28652477737774 -0.27771150025002 -0.43088132793279
 6  15.61761343024302 -1.77852548634863 -0.61518113581358
 6  16.48262236813681  0.40170453045305  0.38951345854585
 6  17.81700629002900  0.37977937633763 -0.21762757735774
 6  18.80658102760276  1.19263748074807  0.60129056205621
 6  20.23938260746074  1.29695002850285  0.07262202540254
 6  20.26911826562656  2.03581187838784 -1.28219921262126
 6  21.16842777357736  1.87502043834383  1.10616597999800
 1 -3.98614009850985  3.39156467786779  1.38153274017402
 1 -10.08910930363036  3.81974280928093 -0.53499889138914
 1 -10.27342063146315 -2.38321766256626 -1.33538019021902
 1 -2.53249970687069 -0.91231954585459  2.07515820702070
 1 -2.19211281648165  1.70448403100310  1.06356700710071
 1 -2.06428088558856  0.71635208810881  3.49803351685169
 1 -2.83012807280728  2.40017407490749  3.41970413581358
 1 -3.77081052375238  0.68159284328433  3.58215062786279
 1 -1.95533801870187 -1.75304526492649 -0.36373028222822
 1 -2.25296696919692  0.07293454385439 -0.70292033163316
 1 -0.28836235363536  0.53692830673067  1.06447684678468
 1 -0.18564636663666 -1.33295781098110  1.35308926412641
 1 -6.09714849024903  6.90549919401940  0.72534824402440
 1 -5.19857684708471  6.16698006110611  2.25154145124512
 1 -4.40089404540454  5.90127129352935  0.59638281388139
 1 -9.33749580208021  5.87087323542354 -0.49016924512451
 1 -9.48119933583358  7.87828856775678  0.74603422522252
 1 -7.79932939873987  7.39852625212521  1.62712109760976
 1 -12.07331143624362  3.17164749074907 -2.11817482218222
 1 -13.42613228242824  2.29133302450245 -1.66217740924092
 1 -12.49607133823382  3.04909356405641 -0.38207945194519
 1 -12.52290706910691 -1.80166961206121 -1.23300825572557
 1 -13.40664938383838 -0.31911864866487 -1.54869039653965
 1 -12.95170152275228 -1.56213089928993 -3.80907079157916
 1 -12.41640520472047  0.08351381378138 -3.84090758645865
 1 -11.20585686498650 -1.35571043814381 -3.59160778077808
 1 -9.15207481048105 -4.65083582648265 -1.93769703380338
 1 -8.06077544234423 -5.66092609680968 -0.87182679567957
 1 -9.50506039093909 -4.95103012431243 -0.15198702130213
 1 -3.51273196909691 -3.61075432613261 -0.27804307580758
 1 -1.70635880238024 -4.38392483218322  3.61521443674367
 1 -3.14867447604761 -5.51513313091309  3.77247008590859
 1 -1.66421453295330 -5.98498777197720  3.13043699659966
 1  2.74686399049905 -1.81627346324632 -1.23298726372637
 1  2.60732821042104 -0.28239395979598 -2.23873702590259
 1  4.19747065266527 -0.45507772297230  0.68656187218722
 1  4.14956391989199  1.20889960036004 -2.52836120582058
 1  5.47977338903890  2.21398165706571 -1.69727619581958
 1  5.83309061666167  0.87276838433843 -2.86733546454646
 1  6.55126718961896  1.60282428242824  0.26197884068407
 1  6.35888000740074 -0.17906594399440  0.84089380608061
 1  7.44735211991199 -0.81479071427143 -1.36740806440644
 1  7.89840227612761  0.78872208030803 -1.83434635823582
 1  9.30241229282928  1.22479036403640  0.22145977817782
 1  8.97341583028303 -0.36414192039204  0.90232809650965
 1  10.36640419181918  0.13657619531953 -1.81401629112911
 1  9.36260124562456 -2.12735071157116 -2.16469239403940
 1  11.00075263096310 -2.02798958285829 -1.82224646854685
 1  9.74526741274127 -2.67723966596660 -0.60285972567257
 1  11.51586926782678  0.87827005720572  0.47874936243624
 1  11.34641769516952 -0.84015997729773  0.90840146174617
 1  13.04466778567857 -1.43953211441144 -0.96547421502150
 1  12.81571532403240 -0.01652096109611 -1.64213757505751
 1  13.81988342504251  1.05994855085509  0.38678602160216
 1  13.94990774387439 -0.62046165086509  1.07239375587559
 1  15.20933422192219  0.10210969596960 -1.52019637763776
 1  15.59428687158716 -2.38472876497650  0.44697324342434
 1  15.06489954065407 -2.30243261886189 -1.43152056715672
 1  16.67004663406341 -1.71908743364336 -0.87930940044004
 1  16.35132033273327  1.60760859455946  0.77434397869787
 1  16.56111055825582 -0.12076125122512  1.40872363356336
 1  18.25819675837584 -0.66678322572257 -0.48765210561056
 1  17.62308937343735  0.76580389928993 -1.30858443424342
 1  18.35732652525252  2.14233839153915  0.93561156645665
 1  18.84115127542754  0.94563874487449  1.59902990329033
 1  20.54774968766877  0.32355850405040 -0.22572550855086
 1  20.08450255685568  3.07306086798680 -0.87279087248725
 1  21.04946919901990  2.03215986878688 -1.83222458575858
 1  19.48343224762476  1.83217502830283 -1.95586255525553
 1  21.24703067826783  1.42381049014901  2.02819243644364
 1  22.13305501180118  1.75280651035104  0.69478444474447
 1  20.86493622352235  2.92863294659466  1.42194263476348
=======
12 -7.11615218821882  0.60351910001000  0.15302298969897
 6 -4.83003762176218 -1.94011518991899  0.46348288098810
 6 -4.83592352125213  2.84802324962496  1.10554691959196
 6 -9.40594533003300  3.12750824632463 -0.42122498219822
 6 -9.64767508120812 -1.74573008400840 -0.71189761886189
 7 -5.10299372397240  0.46045586368637  0.75646606490649
 6 -4.25940564666467 -0.72318214021402  0.77214523772377
 6 -2.90626963236324 -0.36197562326233  1.19989034323432
 6 -2.95275871427143  1.05389805810581  1.61517224792479
 6 -4.36677367226723  1.47879862866287  1.09510654055406
 6 -3.02437751985199  1.10429271737174  3.14959636853685
 6 -1.93620708170817 -0.53280854225423 -0.04404044574457
 6 -0.47421484408441 -0.37282162936294  0.36062019131913
 6  0.56046718391839 -0.59443295619562 -0.72073745424542
 8  0.25651689178918 -0.99128453605361 -1.80319665136514
 8  1.75577738823882 -0.31433883028303 -0.35177196609661
 7 -7.11008145604560  2.56101169096910  0.24921361686169
 6 -6.04368364736474  3.40315129092909  0.74244777837784
 6 -6.36413366646665  4.76281057045705  0.82755344254425
 6 -7.71625433243324  4.78927955945595  0.33190158145815
 6 -8.21212548414842  3.40022921822182 -0.02064951865187
 6 -5.61539949664967  5.98891135703570  1.11844660516052
 6 -8.54148194579458  6.04758579227923  0.12422940834083
 6 -8.38720261156116  7.19093521212121  0.71342759255926
 7 -9.22661493409341  0.62609547064706 -0.50610464416442
 6 -9.88183444314431  1.79859981308131 -0.67641396549655
 6 -11.29415851245124  1.43727206630663 -1.14770649014902
 6 -11.28483088698870  0.10230559465947 -1.19509822382238
 6 -10.03594927562756 -0.45841781608161 -0.76407142324232
 6 -12.35648447214721  2.46105667666767 -1.39498627342734
 6 -12.44337888418842 -0.83569097919792 -1.54342515101510
 6 -12.48406589498950 -1.04436684788479 -3.15627074567457
 7 -7.24482395069507 -1.43096270987099 -0.09025370237024
 6 -8.34720496029603 -2.24455962806281 -0.39044399959996
 6 -7.85027117271727 -3.61170943844384 -0.45774305160516
 6 -6.49279316341634 -3.54173851085109 -0.10051178307831
 6 -6.19972256865687 -2.18023630493049  0.12110491469147
 6 -8.60886835423542 -4.94065690809081 -0.71862034043404
 6 -5.24095856615662 -4.31479536303630  0.17804067666767
 8 -5.18455729362936 -5.54940942434243  0.24495152585259
 6 -4.14422800220022 -3.29184497429743  0.43901376667667
 6 -3.50896152705271 -3.73208843014301  1.89715008790879
 8 -3.72940454105411 -3.22930966716672  3.00610329142914
 8 -2.63937513121312 -4.62685740814081  1.77244582548255
 6 -2.08842943084308 -5.28228245734573  2.90745568106811
 6  2.83630614231423 -0.59517731233123 -1.30693189358936
 6  4.12905499449945 -0.45896407270727 -0.67191734073407
 6  5.12265574997500  0.35190145554555 -1.06496626932693
 6  5.02220064306431  1.30379302860286 -2.26740090539054
 6  6.46494082688269  0.39736158635864 -0.35271175637564
 6  7.68873641154115 -0.22947329422942 -1.04589153965397
 6  8.92490436303630 -0.17927305770577 -0.15452726552655
 6  10.24766539103910 -0.55968304000400 -0.95447641814181
 6  10.17385408560856 -2.17797873397340 -1.12603606860686
 6  11.41453433033303 -0.12670645144514 -0.00009914131413
 6  12.80947585528553 -0.39746379747975 -0.66995701860186
 6  13.97802727112711 -0.00020122292229  0.27013408090809
 6  15.37968409330933 -0.13237696679668 -0.54488272807281
 6  15.70401207010701 -1.56799443324332 -0.80935055275528
 6  16.41530563646365  0.44025838583858  0.47177168436844
 6  17.84041863126313  0.45921732013201 -0.07827364196420
 6  18.78473884338434  1.19617783478348  0.74761519451945
 6  20.26767543674367  1.31522185568557  0.27654241744174
 6  20.38528988278828  2.08303660086009 -0.97878887158716
 6  21.15558648944895  1.83526646294629  1.41482684608461
 1 -4.09549103360336  3.59338485988599  1.40944553145315
 1 -10.21703209590959  4.00679151415142 -0.80619601110111
 1 -10.44815810521052 -2.38736807760776 -0.94990164236424
 1 -2.42184864176418 -1.20469878377838  1.95665635683568
 1 -2.08777238243824  1.76635021762176  1.33396404680468
 1 -2.23214767226723  0.58250870377038  3.76388010151015
 1 -3.17013207320732  2.13743780128013  3.51764392979298
 1 -3.85411885458546  0.50168485248525  3.45928834163416
 1 -2.08015049995000 -1.46303626402640 -0.43309721892189
 1 -2.32336400890089  0.40251750215022 -0.78382842244224
 1 -0.26531004840484  0.55368998289829  1.03202360146015
 1 -0.27233503550355 -1.17169168436844  0.93626758195820
 1 -6.05840461586159  6.81248989308931  0.54521023022302
 1 -5.54828181758176  6.23833719681968  2.14006030313031
 1 -4.57553150915091  5.99458062446245  0.81139431503150
 1 -9.20725277777778  6.11417756585659 -0.73711393959396
 1 -9.02955417131713  7.94381512041204  0.69584920672067
 1 -7.55498496429643  7.31455785528553  1.64368275377538
 1 -11.88996310141014  3.21052137813781 -2.22650565526553
 1 -13.26631630083008  2.10178406960696 -1.89650084158416
 1 -12.61632336343635  3.14262291699170 -0.53131437543754
 1 -12.38060283868387 -1.80066951205121 -1.04920987588759
 1 -13.53841256015602 -0.55626236303630 -1.26079160666067
 1 -13.30560691329133 -1.64478916511651 -3.64042392689269
 1 -12.39270283448345 -0.22820735833583 -3.88134162986299
 1 -11.52302858215822 -1.65783065016502 -3.34267288728873
 1 -8.72235183818382 -5.10994173707371 -1.87758102220222
 1 -8.14028339313931 -5.92390239443944 -0.35644525752575
 1 -9.55768565346535 -4.85662068336834 -0.24640646324632
 1 -3.26729742564256 -3.26694994569457 -0.20760603210321
 1 -1.37330549704971 -4.50751719141914  3.43712662796280
 1 -2.90611021962196 -5.51292290989099  3.63112595149515
 1 -1.67871598309831 -6.15046431963196  2.62130608350835
 1  2.54973427752775 -1.51880371627163 -1.87652161716172
 1  2.91249872747275  0.07714199379938 -2.28672182438244
 1  4.36840774637464 -1.16880909610961  0.22909612561256
 1  3.96344530803080  1.52084079447945 -2.62768113781378
 1  5.52668808050805  2.24266452535254 -1.84423089128913
 1  5.73220052765276  0.95530663816382 -3.00340907190719
 1  6.62304436733673  1.52674667466747 -0.07935529272927
 1  6.33853797319732 -0.01371940934093  0.68278799549955
 1  7.66824420912091 -1.17672690789079 -1.42886421002100
 1  7.80488292419242  0.33066627472747 -2.04394731833183
 1  9.11508355995599  0.94079196419642  0.35134276647665
 1  8.64741323002300 -0.81408691489149  0.65373323702370
 1  10.25649320072007 -0.01001846414641 -1.81645653515351
 1  9.22686767226723 -2.24916289278928 -1.67540346514651
 1  10.97308986468647 -2.41482826672667 -1.67244148804880
 1  9.91191407740774 -2.74361630363036 -0.20008944864486
 1  11.42660034093409  0.80501273147315  0.28200968846885
 1  11.16439949334934 -0.69972593389339  1.04361498309831
 1  12.91388470737074 -1.42176033723372 -0.96874454205421
 1  12.88926267876788  0.12235292629263 -1.57080044134413
 1  13.95408684538454  0.96373892989299  0.50309765276528
 1  14.11330408350835 -0.56832643734373  1.17581409790979
 1  15.31059434793479  0.63089257425743 -1.26060041804180
 1  15.61378882178218 -2.37296758885889 -0.03524497839784
 1  14.93834688538854 -2.23498587418742 -1.26154356945695
 1  16.59060869026903 -1.96224174907491 -1.43326479597960
 1  16.14762996369637  1.56713454715472  0.68923546784678
 1  16.39430387758776 -0.03383255835584  1.54518727992799
 1  18.20082102080208 -0.56561310871087 -0.32566590699070
 1  17.91090815531553  0.83206052495250 -1.21102467826783
 1  18.41256204880488  2.10995515321532  0.98135614091409
 1  18.75415257555756  0.59703388438844  1.70194019431943
 1  20.76388130083008  0.33224937313731 -0.09392232823282
 1  19.92485659225922  3.06411997389739 -1.00529412281228
 1  21.25823007510751  2.20011666446645 -1.33724508780878
 1  19.89099300370037  1.60867267806781 -1.83700066906691
 1  21.19885586078608  0.96903501260126  2.23469308650865
 1  22.19563126942694  2.03345457515752  1.22148711501150
 1  20.84541427132713  2.85076515981598  1.74743518401840
>>>>>>> 8e03b5b5abfc0030b3aa597dc0de36371bfbd096

