%nproc=4
%Mem=3GB
# td=(NStates=1) iop(3/107=0140000000,3/108=0140000000) CAM-B3LYP/6-31G(d,p) 

TD

0 1
12 -7.14477916961696  0.59762814631463  0.13683005300530
 6 -4.89886870337034 -1.92473970457046  0.41708711111111
 6 -4.81661769236924  2.81128984688469  1.24599470467047
 6 -9.50307707220722  3.08903645664566 -0.23169564486449
 6 -9.67326342434244 -1.81016278197820 -0.71705851075108
 7 -5.04203123432343  0.46793288388839  0.62436026002600
 6 -4.33038528582858 -0.73758490169017  0.72261015571557
 6 -2.93867008760876 -0.38209660766077  1.20028569766977
 6 -3.01613484038404  1.03383208480848  1.62454873417342
 6 -4.34524475917592  1.50807545864586  1.10537493139314
 6 -2.84415059585959  1.28617143644364  3.14631994659466
 6 -1.91021675137514 -0.59595558475848  0.02306611691169
 6 -0.46217192639264 -0.31614486248625  0.56191957425743
 6  0.44150607380738 -0.53568018991899 -0.59149893999400
 8  0.23671388818882 -0.95119889758976 -1.75528292139214
 8  1.74107270567057 -0.35696563496350 -0.20525591319132
 7 -7.13973161656166  2.60876408630863  0.43311423552355
 6 -6.04093423722372  3.38290205760576  0.82761863796380
 6 -6.41391630003000  4.78285514911491  0.73325158385839
 6 -7.73020780608061  4.84882668786879  0.44148027442744
 6 -8.10952047954795  3.48130506930693  0.08192619121912
 6 -5.50300233413341  5.86377585128513  1.01780193539354
 6 -8.48542855085508  6.04683495309531  0.10246085858586
 6 -8.44587299729973  7.24680383008301  0.71128518781878
 7 -9.19379842094209  0.65338233263326 -0.52245881978198
 6 -9.94831231753175  1.70019334363436 -0.59705251875188
 6 -11.28655260796080  1.42553199769977 -1.04662952265227
 6 -11.28396788398840 -0.00097255145515 -1.20812084038404
 6 -9.99838744234424 -0.44875506890689 -0.82886508780878
 6 -12.35621655935594  2.42964820622062 -1.40814026672667
 6 -12.43008680158016 -0.76837296109611 -1.68263759435944
 6 -12.31585349424943 -1.00091028332833 -3.22561321252125
 7 -7.25603856625663 -1.39765460116012 -0.12314498959896
 6 -8.33097742404241 -2.23812235773577 -0.52525410531053
 6 -7.87346938673867 -3.59916046744674 -0.39133943374337
 6 -6.57315510601060 -3.55452843494349 -0.13830591229123
 6 -6.21654538623862 -2.13909186498650 -0.02456062066207
 6 -8.67074941444144 -4.83631973037304 -0.75325870897090
 6 -5.35502096499650 -4.37688125152515  0.18916389048905
 8 -5.17391838413841 -5.52746960396040  0.24173012161216
 6 -4.25582008460846 -3.28189563696370  0.52761108270827
 6 -3.57652182898290 -3.70279822252225  1.79068503700370
 8 -3.64759754315432 -3.06428378627863  2.82599595779578
 8 -2.80677603040304 -4.74225284378438  1.61957099459946
 6 -2.14137309430943 -5.27761296719672  2.76033343374337
 6  2.81582790319032 -0.60365865476548 -1.16949046624662
 6  4.14705559075908 -0.39926519441944 -0.53622618541854
 6  5.18793428472847  0.35394192219222 -1.00017289428943
 6  5.23010673627363  1.20345802110211 -2.24318845384538
 6  6.47663394209421  0.35338595459546 -0.21515203960396
 6  7.65824727732773 -0.20114866286629 -0.95701603030303
 6  8.96473418501850 -0.02849466556656 -0.17735383778378
 6  10.26456191679168 -0.57178884208421 -0.89964568456846
 6  10.13348662526253 -2.09306718661866 -1.10811777777778
 6  11.51947661146115 -0.31642653375338 -0.03947190969097
 6  12.84905264076408 -0.51945197869787 -0.70514801990199
 6  13.98806007780778  0.07028131383138  0.08881529312931
 6  15.43408939993999 -0.16140522412241 -0.43950960346035
 6  15.69572584358436 -1.59544793309331 -0.83574540084008
 6  16.44545153785378  0.41582810011001  0.46916165086509
 6  17.86976456415642  0.44395812541254 -0.09251577857786
 6  18.88076849544954  1.10756883538354  0.87181043774377
 6  20.29164196859686  1.18736816931693  0.23923062906291
 6  20.31246409220922  2.08175548064806 -1.14122881878188
 6  21.16132119911991  1.84168586848685  1.29645358535854
 1 -4.08267863136314  3.72492574397440  1.64762085788579
 1 -10.06437856115612  3.92324459895990 -0.51311583778378
 1 -10.46994141824182 -2.58157369246925 -0.85485330473047
 1 -2.38034532173217 -1.00264046674668  2.00648713941394
 1 -2.33746721302130  1.76574863596360  1.34903855285529
 1 -1.95405849224923  0.78062716911691  3.63420375777578
 1 -2.91034814391439  2.20354957775778  3.49686770897090
 1 -3.65814861536154  0.71687684198420  3.65627731293129
 1 -2.13081820082008 -1.65587625842584 -0.35135314241424
 1 -2.19387575657566 -0.00137251745174 -0.86629336393639
 1 -0.39579500820082  0.85832541984198  0.51260512351235
 1 -0.21552997329733 -0.89887065366537  1.37419087738774
 1 -5.80515469316932  6.60058757075708  0.20802063336334
 1 -5.43903537483748  6.38529141054105  2.04830684318432
 1 -4.50835568016802  5.51281554955496  0.94677541014101
 1 -9.24370463026303  5.93314669666967 -0.74327568026803
 1 -9.06933599729973  8.15948566956696  0.37510728642864
 1 -8.03001093319332  7.24284112051205  1.76675563586359
 1 -11.97507798079808  2.96543569066907 -2.23658949044904
 1 -13.47950524822482  1.97671641404140 -1.50187591579158
 1 -12.47385841854186  3.15029236333633 -0.68323876337634
 1 -12.69848181308131 -1.71886280908091 -1.23204670557056
 1 -13.46473877297730 -0.24243695419542 -1.61363711811181
 1 -13.13789898909891 -1.50748441054105 -3.72337329542954
 1 -12.43221362706270 -0.22323079437944 -3.92277125552555
 1 -11.36710154955495 -1.50325135233523 -3.51509978817882
 1 -8.74747936653665 -4.82691919271927 -1.92029809280928
 1 -7.88961334653465 -5.56406235953595 -0.53815377047705
 1 -9.56349052805281 -4.85986443484348 -0.08156042474247
 1 -3.69449696819682 -3.43177978357836 -0.37951568966897
 1 -1.47552093969397 -4.36961917531753  3.20877259485949
 1 -2.84175061236124 -5.71497102200220  3.53467450515051
 1 -1.68581910241024 -6.20144092889289  2.32265562666267
 1  2.56615467026703 -1.52403902670267 -1.47248869756976
 1  2.79536597789779  0.06704478927893 -2.14245530303030
 1  4.25497598429843 -0.85494390819082  0.42182358255826
 1  4.40337564906491  1.34509005170517 -2.69639012471247
 1  5.55006193839384  2.23257368126813 -1.91498893729373
 1  5.99137870637064  0.78144933583358 -2.84257051395140
 1  6.64707289118912  1.61944192479248 -0.08116850295030
 1  6.30643851595160  0.01482414571457  0.86070226572657
 1  7.45930805360536 -1.21840251325133 -1.16165092229223
 1  7.95917847634763  0.20963006600660 -1.85416623952395
 1  9.21031707600760  1.14621411891189  0.04079650775078
 1  8.94384750555056 -0.56707506020602  0.85662178557856
 1  10.26272090389039  0.11659780758076 -1.82153731173117
 1  9.37233684278428 -2.38210649414941 -1.99808819071907
 1  11.22356149674968 -2.43670707000700 -1.48898425652565
 1  9.95879807690769 -2.78046216091609 -0.22378977267727
 1  11.30060170177018  0.69707614101410  0.19538730953095
 1  11.60705830133013 -0.87558885648565  0.99171549164917
 1  13.04544249674968 -1.68220563986399 -0.86392866436644
 1  12.94814064396440 -0.10529559355936 -1.80058439213921
 1  13.75183660396040  1.28449381268127  0.13859868856886
 1  13.80299861046105 -0.27038341724172  1.21446382038204
 1  15.41492189358936  0.41096449344934 -1.46996826562656
 1  15.64432822962296 -2.13059240044004  0.06882874737474
 1  14.89959160356035 -1.95480000000000 -1.44728610211021
 1  16.71729000860086 -1.82867376437644 -1.24079059235924
 1  16.09600287378738  1.44507284098410  0.65257117341734
 1  16.51743582138214  0.07316103130313  1.44965346004600
 1  18.04617135483548 -0.66870338433843 -0.36825702130213
 1  17.73668097769777  0.99660855495550 -0.88282402600260
 1  18.62951200810081  2.08300956895690  1.08511045784578
 1  18.85883184568457  0.70067490699070  1.84991823732373
 1  20.73434326662666  0.08566956455646 -0.03593770157016
 1  19.95714253275328  3.08891966846685 -0.89287147184718
 1  21.21777557835784  2.23147428952895 -1.46008398959896
 1  19.75242363996400  1.80309059925993 -2.23123150755075
 1  21.38162201570157  0.97697333823382  2.14822849164917
 1  22.17239513231323  2.21472194289429  0.69818647224722
 1  20.68939901840184  2.72298841604160  1.62345948264826

