%nproc=4
%Mem=2GB
# td=(NStates=1) CAM-B3LYP/6-31G(d,p) 

TD

0 1
12 -7.03223379637964  0.56936568466847 -0.00850316291629
 6 -4.84950956895690 -1.88804998339834  0.52549908260826
 6 -4.83823375227523  2.83980242754275  1.23541990689069
 6 -9.44853958945895  3.11590708620862 -0.36130899059906
 6 -9.43704401810181 -1.72379789078908 -0.97646407550755
 7 -5.16834025862586  0.50578039613961  0.82685310361036
 6 -4.38376808290829 -0.66990681268127  0.75956397959796
 6 -2.86142514791479 -0.33981340704070  1.24998535273527
 6 -3.11013445184518  1.13376604490449  1.65888661936194
 6 -4.40813780868087  1.50738148694870  1.18917594749475
 6 -2.93734881698170  1.32192448054805  3.21018242714271
 6 -1.92968642964296 -0.53865912731273  0.09905386368637
 6 -0.50137756035604 -0.43134748194819  0.53186731603160
 6  0.55335647284728 -0.61725523842384 -0.59242462296230
 8  0.21472271237124 -1.07447285488549 -1.70750708240824
 8  1.75727753825383 -0.41715911231123 -0.25925271417142
 7 -7.10682113001300  2.66585217501750  0.31934062956296
 6 -6.07114639363936  3.37471844764476  0.74125765936594
 6 -6.36181343444344  4.75898018741874  0.74397508470847
 6 -7.70365307230723  4.87990862236224  0.31411980328033
 6 -8.13789806140614  3.51555075037504  0.07309985628563
 6 -5.57502545924592  5.92521498739874  1.18020278077808
 6 -8.57198499609961  6.04658569226923  0.17408439383938
 6 -8.60898478977898  7.06083220182018  1.00559680948095
 7 -9.09367163976398  0.68236109720972 -0.56102013571357
 6 -9.88683494319432  1.76447640074007 -0.61993831793179
 6 -11.11385048164816  1.45258359745975 -1.23175489498950
 6 -11.20240264416442  0.02943830793079 -1.26216493049305
 6 -9.85839151985198 -0.43284525882588 -0.97631264736474
 6 -12.23601242494249  2.38375894689469 -1.32222899769977
 6 -12.37780232653265 -0.81298870897090 -1.67563837233723
 6 -12.44470195859586 -1.20467287848785 -3.22430754935494
 7 -7.16723619191919 -1.42088170177018 -0.20489516651665
 6 -8.19039927972797 -2.24959013111311 -0.57896285148515
 6 -7.80301644724472 -3.62622088958896 -0.47947522482248
 6 -6.45349923402340 -3.56095043204320 -0.15898763066307
 6 -6.15043764016402 -2.23159144044404  0.02890569476948
 6 -8.66204367176718 -4.84750759315932 -0.83489196759676
 6 -5.33693816411641 -4.35318920242024  0.20671354395440
 8 -5.10369920782078 -5.55967045044504  0.25333236393639
 6 -4.14102768216822 -3.26985277507751  0.60380024532453
 6 -3.45106573747375 -3.64825004630463  1.88653902680268
 8 -3.88414001460146 -3.06725346154615  2.87974065516552
 8 -2.57559875357536 -4.62933765616562  1.81286986788679
 6 -2.03021360926093 -5.01339556865686  3.05555049054905
 6  2.81799431113111 -0.64005179977998 -1.17008820922092
 6  4.11468355735574 -0.46622479877988 -0.53957410641064
 6  5.13210669506951  0.28482474787479 -1.11617138983898
 6  4.97228565156516  1.09284193349335 -2.38595276057606
 6  6.32367670047005  0.37387923812381 -0.34471095629563
 6  7.56201373927393 -0.21538188508851 -1.07475442594259
 6  8.91530340294029 -0.07474260466047 -0.15661747454745
 6  10.09402002650265 -0.55369244094409 -0.84564553505351
 6  10.20088678887889 -2.09417035313531 -1.25969943494349
 6  11.50633351025103 -0.22199598039804 -0.07928706010601
 6  12.77090199789979 -0.42368641974197 -0.72874289718972
 6  13.96456592499250 -0.07006820962096  0.18265533303330
 6  15.30250637553755 -0.17371110021002 -0.45878411821182
 6  15.55705737463746 -1.61914954875488 -0.98108772647265
 6  16.40300440634064  0.39546390639064  0.44988949614961
 6  17.84699928932893  0.39049044744474 -0.13740955555556
 6  18.77339770927093  1.25564378137814  0.79100953395340
 6  20.26912558175817  1.32145247874787  0.27009177237724
 6  20.35492684648465  2.13347164436444 -0.99166015871587
 6  21.15320625142514  1.90105304160416  1.38310367376738
 1 -4.14371585608561  3.59454497589759  1.59192377927793
 1 -10.30851124382438  3.87726856185619 -0.54679007050705
 1 -10.11281457085709 -2.57207654845485 -1.28924557675768
 1 -2.56746320322032 -1.04394270817082  2.08520921212121
 1 -2.20523412861286  1.43124670727073  0.98167881828183
 1 -1.96169062656266  1.02182263516352  3.64636835033503
 1 -3.00678573857386  2.27402145964596  3.59798196359636
 1 -3.72686612931293  0.69300398439844  3.60343275607561
 1 -2.37894037893789 -1.34201416181618 -0.56092000120012
 1 -2.14039571207121  0.03361061146115 -0.80704074367437
 1 -0.34720823822382  0.52003661756176  0.90841124022402
 1 -0.27629543154315 -1.08801331653165  1.35013896909691
 1 -6.02756153155316  6.90280892499250  0.77268297749775
 1 -5.50005699509951  5.98435179827983  2.25731202830283
 1 -4.53806776277628  5.78258942534253  0.76906008160816
 1 -9.23990604310431  6.06730287838784 -0.55655588378838
 1 -9.48377959385938  7.77032777167717  1.00559018081808
 1 -8.14105357115712  7.18369476897690  1.89724811031103
 1 -12.23712781788179  3.09947027302730 -2.29594259895990
 1 -13.30862053125312  1.85907979917992 -1.27527871937194
 1 -12.21162289338934  3.04923357805781 -0.52381362536254
 1 -12.38265304370437 -1.71445089018902 -1.13864881978198
 1 -13.17120583948395 -0.25510224702470 -1.41525705320532
 1 -13.44848120072007 -1.75502018821882 -3.44269415391539
 1 -12.32135569976998 -0.30953549114911 -3.65510900660066
 1 -11.45773205250525 -1.68926379347935 -3.51623024302430
 1 -9.08380798379838 -4.74683542644264 -1.90428369246925
 1 -7.90586995179518 -5.59799980418042 -0.72093170617062
 1 -9.46840672557256 -5.08176319761976  0.09116729412941
 1 -3.42010270617062 -3.78763201390139 -0.13405867736774
 1 -1.60953912041204 -4.20672711241124  3.67416033133313
 1 -2.65999560816082 -5.26408802640264  3.84697753665367
 1 -1.26979509100910 -5.78058733193319  3.03387734063406
 1  2.62767207130713 -1.67735957185719 -1.48205217021702
 1  2.60627810541054 -0.02727844824482 -2.08125127732773
 1  4.46710761636164 -1.16953916911691  0.21742495849585
 1  3.90908987248725  1.39816852725273 -2.44858322802280
 1  5.56873228492849  1.97764802370237 -2.08137460566057
 1  5.22192950055006  0.51519262676268 -3.34325305630563
 1  6.69328139103910  1.40457445744574  0.07656029882988
 1  6.32452657205721 -0.41030906830683  0.43236295299530
 1  7.49069645434543 -1.34960419561956 -1.35179650325033
 1  7.69631206710671  0.20303351145114 -2.08299122272227
 1  8.98631068266827  0.81053893889389  0.18588622082208
 1  8.70250873957396 -0.89432493869387  0.52700056375638
 1  10.07201475287529 -0.02521998429843 -1.78314320382038
 1  9.21389637513751 -2.17424540104010 -1.93172909770977
 1  11.15460801650165 -2.56472325622562 -1.64360860476048
 1  10.04714760076008 -2.55141708370837 -0.31917135683568
 1  11.43376105700570  0.72351458165817  0.33088457595760
 1  11.29313236663666 -0.75579154045404  0.88229885148515
 1  12.85205852475248 -1.56140430163016 -0.77842551015102
 1  12.98150190269027 -0.03991330033003 -1.61820518181818
 1  13.65403684038404  0.98067062306231  0.42165950895090
 1  13.94243699679968 -0.68421802650265  1.26349286578658
 1  15.11987527602760  0.52854233923392 -1.23525788378838
 1  15.67851529442944 -2.38047833993399 -0.19910136403640
 1  14.66163921462146 -1.87342971857186 -1.67542495759576
 1  16.65088471787179 -1.65163068796880 -1.43904537403740
 1  16.15812101280128  1.32356018971897  0.74780132443244
 1  16.20246469366937 -0.29345852095210  1.23971673287329
 1  18.14306524522452 -0.65313186058606 -0.16727006740674
 1  17.80812787728773  0.80173749264926 -1.21204478027803
 1  18.48332912551255  2.25925008270827  0.78821682698270
 1  18.71255841614161  0.68969315031503  1.81562156245625
 1  20.58070298299830  0.29129527772777  0.22999006300630
 1  19.73119722632263  2.97214077597760 -0.99828342174217
 1  21.46077032913291  2.39878653145314 -1.26065742904290
 1  19.97680158455846  1.38690050085008 -1.82231920092009
 1  21.05852182738274  1.32207031613161  2.31118073527353
 1  22.18521022732273  1.78895012471247  1.00073503980398
 1  20.92856258615862  2.89681976527653  1.64424486498650

