%nproc=4
%Mem=2GB
# td=(NStates=1) CAM-B3LYP/6-31G(d,p) 

TD

0 1
<<<<<<< HEAD
12 -7.09770034303430  0.56438518661866  0.08052573997400
 6 -4.89451406940694 -1.91575275367537  0.59000553325333
 6 -4.82214214311431  2.78375682298230  1.13068943384338
 6 -9.34882961846185  3.12764826032603 -0.46255911561156
 6 -9.52414272797280 -1.63985949694970 -0.88771520062006
 7 -5.08227165176518  0.34896471457146  0.76028644694469
 6 -4.30082978907891 -0.73690351235124  0.79164718791879
 6 -2.88403740914091 -0.44908433413341  1.35826618081808
 6 -3.02199563796380  1.01119378767877  1.61954268496850
 6 -4.44743173807381  1.45255600440044  1.15619264916492
 6 -2.85241032313231  1.25419770787079  3.15719712861286
 6 -1.86706016701670 -0.73301856325633  0.14630858915892
 6 -0.38589601220122 -0.34623897109711  0.52191632093209
 6  0.60846198339834 -0.52711622452245 -0.67797317781778
 8  0.23957519761976 -0.89613502110211 -1.72672900460046
 8  1.89557136763676 -0.49259665606561 -0.24288107700770
 7 -7.12747319521952  2.56941253105311  0.30861955745575
 6 -5.96835611461146  3.33787476327633  0.67467100070007
 6 -6.40391764486449  4.74950924032403  0.66601728892889
 6 -7.77276998399840  4.86689732123212  0.31220961226123
 6 -8.12045631723172  3.49615881118112  0.11153369966997
 6 -5.44232218891889  5.80116258215822  1.14806956745675
 6 -8.61350914851485  6.05213624732473  0.15879286468647
 6 -8.36907079837984  7.17523364196420  0.76373262306231
 7 -9.13602587518752  0.70581344244424 -0.48870290399040
 6 -9.95173143284328  1.79351930503050 -0.71971829592959
 6 -11.24263335993599  1.43429176827683 -1.18454017351735
 6 -11.27410981488149  0.16776214031403 -1.39398811281128
 6 -9.93000868156816 -0.35666764106411 -0.90261527762776
 6 -12.32593141684168  2.50754132513251 -1.33285005980598
 6 -12.38060260656066 -0.76521393149315 -1.89029983848385
 6 -12.30036752515251 -1.15725813701370 -3.33237835643564
 7 -7.23234270257026 -1.40654026762676 -0.12339701670167
 6 -8.25123536333633 -2.20042521462146 -0.55901085628563
 6 -7.83313945954595 -3.54165243274327 -0.57555483278328
 6 -6.44350823492349 -3.51774611161116 -0.14975670757076
 6 -6.18991158755876 -2.19131741304130  0.12730553475348
 6 -8.61881934933493 -4.78007084948495 -0.82217069546955
 6 -5.36702117241724 -4.36730061356136  0.24651752435244
 8 -5.21682051995200 -5.56904138753875  0.22235926662666
 6 -4.20194377377738 -3.38734452425243  0.66603646894689
 6 -3.62917354825483 -3.77142236353635  2.01869224212421
 8 -3.76135773637364 -3.12699943614361  3.05297797889789
 8 -2.81763295699570 -4.80922564496450  1.85479406030603
 6 -1.99378996689669 -5.08281251035103  2.97199213471347
 6  2.88706121782178 -0.82356015061506 -1.16018721912191
 6  4.12766485548555 -0.52190036633663 -0.62927307630763
 6  5.11096458085809  0.32652891829183 -0.88172794549455
 6  5.04054247724772  1.35061771107111 -1.96048021332133
 6  6.43281761456146  0.40193204340434 -0.07341382658266
 6  7.60537807570757 -0.10337068396840 -0.90746769726973
 6  8.97091896449645 -0.07223235363536 -0.11300311311131
 6  10.17160778527853 -0.56324339603960 -0.89269023952395
 6  10.05653235343534 -1.98304924102410 -1.26379984498450
 6  11.51843472037204 -0.15723950475048 -0.00827995939594
 6  12.74839974767477 -0.55181923302330 -0.69353937683768
 6  13.94169363776378 -0.03855505830583  0.02590965846585
 6  15.35623174807481 -0.23933766286629 -0.53655189498950
 6  15.56431810071007 -1.68535616941694 -0.94544416211621
 6  16.48517262316232  0.32564692469247  0.42127663486349
 6  17.79082367176717  0.41331272967297 -0.23700951555156
 6  18.72159252875288  1.21743996099610  0.77251768476848
 6  20.20618928812881  1.41367170067007  0.18239300250025
 6  20.14472582638264  2.29008730593059 -1.02348334103410
 6  21.22078300910091  1.92830576687669  1.28333369676968
 1 -4.20817230173017  3.51552707410741  1.41249583648365
 1 -9.92565295799580  3.86556739173917 -0.81435682718272
 1 -10.19333262266227 -2.57878721952195 -0.81858851105111
 1 -2.54603106000600 -1.03494180808081  2.24178486968697
 1 -2.17985159035904  1.57599118171817  0.98428907930793
 1 -1.86235069256926  1.01070152305231  3.49677339083908
 1 -3.15370043004300  2.26740079757976  3.62307447284728
 1 -3.68139158185819  0.60817550155016  3.59865227802780
 1 -1.83853633853385 -1.75858581898190 -0.19082299149915
 1 -1.95701737423742  0.05479272967297 -0.68584862446245
 1 -0.34626814421442  0.72688730263026  0.75993639273927
 1 -0.06840464246425 -0.98455297049705  1.22623657885789
 1 -5.67673644904490  6.82375101920192  0.67679338853885
 1 -5.58976596599660  5.90280364346435  2.06062235933593
 1 -4.42487644364437  5.68132929932993  0.91523469906991
 1 -9.70087213971397  5.78675482358236 -0.38345857405741
 1 -8.91065228112811  8.21656239513951  0.66593621542154
 1 -7.54808427422742  7.17086348584859  1.38261664716472
 1 -12.15357946304630  3.32786311231123 -2.08716172087209
 1 -13.20798046724672  2.14529842104210 -1.85168636013601
 1 -12.59285101620162  2.65958461316132 -0.31995323932393
 1 -12.56084086248625 -1.59575902100210 -1.09307426232623
 1 -13.35502422132213 -0.35724246104611 -1.72729825732573
 1 -12.97157350995099 -1.96280096629663 -3.46526641114111
 1 -12.58092165636564 -0.27330186778678 -4.08812230793079
 1 -11.30027630693069 -1.46415128222822 -3.59577819781978
 1 -8.90757036003600 -4.96723746664666 -1.91650491459146
 1 -7.95649501430143 -5.58326833103310 -0.78619823282328
 1 -9.64227411231123 -4.83018804010401 -0.44321614421442
 1 -3.34878557445745 -3.32568581928193  0.00935566406641
 1 -1.18720688718872 -4.27133357305731  3.28047096239624
 1 -2.74204381298130 -5.25653727132713  3.93742658155816
 1 -1.59521763326333 -6.27936720992099  2.79734368726873
 1  2.60179948404840 -1.67745958185819 -1.64219818481848
 1  2.70703818141814 -0.22012773317332 -2.04508766096610
 1  4.19381028662866 -1.14092630783078  0.32812602860286
 1  4.01235019851985  1.38036674707471 -2.50772914261426
 1  5.20708612031203  2.32346260516052 -1.51926839503950
 1  5.92414972257226  1.24362547004701 -2.75199393039304
 1  6.63777584048405  1.29036303630363  0.35255789858986
 1  6.39613373277328 -0.37688572597260  0.85180489718972
 1  7.59749713441344 -1.18193742894289 -1.08344966856686
 1  7.90189262516252  0.56401961006101 -1.73313623722372
 1  9.21643369496950  1.06792467746775  0.13485111731173
 1  8.97185567426743 -0.74105961216122  0.69019688338834
 1  10.36024357575757 -0.00176763906391 -1.86615150465047
 1  9.20797578307831 -2.32826080258026 -1.82320824562456
 1  10.90659321502150 -2.19755653955396 -2.01831607550755
 1  10.04505739173917 -2.84890683268327 -0.45946538623862
 1  11.40287796869687  0.84643687388739  0.05656714421442
 1  11.18854190759076 -0.57080304160416  1.03926454805481
 1  12.86275959485948 -1.61974013521352 -0.66576424402440
 1  12.78352210471047 -0.19245855485549 -1.77777113841384
 1  13.76900833753375  0.94624718071807  0.23223056605661
 1  13.72325507860786 -0.55231483618362  0.97482399889989
 1  15.42280556905691  0.37868735373537 -1.56671102910291
 1  15.51043848674868 -2.31017130923092 -0.14801625552555
 1  14.86751980268027 -1.98865124072407 -1.74849226432643
 1  16.48271790119012 -1.60861638653865 -1.50955242474247
 1  16.08018321902190  1.31610944464446  0.57423396769677
 1  16.58156260346034 -0.17002617771777  1.30355311651165
 1  18.00786172487249 -0.58396494389439 -0.32283562396240
 1  17.43784084858486  0.77040435933593 -1.30482405820582
 1  18.34052484508451  2.29980413811381  0.72042004730473
 1  18.60388754905491  0.83654783578358  1.73191319161916
 1  20.38219313201320  0.48554470267027 -0.08556149214921
 1  19.63991809840984  3.38105166706671 -0.95615920932093
 1  21.14269852195219  2.41652830563056 -1.60330169346935
 1  19.41402530693069  1.70312212301230 -1.81347831683168
 1  21.21808778397840  1.25409351845185  2.19175879307931
 1  22.29557126342634  1.83080431013101  0.98831379767977
 1  20.92635236513652  2.83119320262026  1.60568100860086
=======
12 -7.11027160016002  0.60319906800680 -0.00960327292729
 6 -4.86761137913791 -1.97265844424442  0.52877941064106
 6 -4.89836976587659  2.80763921122112  1.21821818671867
 6 -9.33601833733373  3.10678617411741 -0.43369622932293
 6 -9.52992330603060 -1.77859337033703 -0.95451188028803
 7 -5.11276470107011  0.36368618671867  0.63094351265127
 6 -4.38928863496350 -0.74356417841784  0.84827285048505
 6 -2.95851485688569 -0.40374980068007  1.16507686188619
 6 -3.03414685308531  1.04259692799280  1.69693042374237
 6 -4.40630762566257  1.51043179197920  1.15258228812881
 6 -2.88164324642464  1.24749703780378  3.14803621252125
 6 -1.86977043804380 -0.73170843224322  0.11360531883188
 6 -0.43979140174017 -0.54861920912091  0.54974910421042
 6  0.47032817001700 -0.65193870677068 -0.51711709220922
 8  0.26522776287629 -0.85487089468947 -1.69493582528253
 8  1.77471928242824 -0.41956935333533 -0.09380616951695
 7 -7.05199564746475  2.64299988978898  0.27023571907191
 6 -6.06640591959196  3.35894687048705  0.65485901950195
 6 -6.40628788188819  4.77043133253325  0.78493918111811
 6 -7.69350205720572  4.83693432493249  0.42560095139514
 6 -8.10454472607261  3.48376757205721 -0.01313876757676
 6 -5.52036999369937  5.90968343424342  1.27682244274427
 6 -8.59167696529653  5.99490052375238  0.15824280968097
 6 -8.48979287058706  7.20494661326133  0.76585283508351
 7 -9.12048432103210  0.65548840994099 -0.50337437113711
 6 -9.80824708440844  1.76439639273927 -0.66552287638764
 6 -11.15632472907291  1.51990032913291 -1.26730845034503
 6 -11.23859626352635  0.11535689978998 -1.42814152815282
 6 -9.92947862856286 -0.34303627792779 -0.97615263136314
 6 -12.17055587928793  2.48987955895590 -1.50791756655666
 6 -12.40445499179918 -0.70521793189319 -1.79520032853285
 6 -12.41584907330733 -0.99304171537154 -3.31759687828783
 7 -7.24639410771077 -1.44062367596760 -0.18363304030403
 6 -8.27790803060306 -2.24610978307831 -0.52619757495750
 6 -7.87861400700070 -3.61205947344734 -0.48560583788379
 6 -6.48401228532853 -3.57342167916792 -0.09742147404740
 6 -6.15259785618562 -2.18054633593359  0.08249105330533
 6 -8.65518298569857 -4.95215805820582 -0.67599607800780
 6 -5.35410988128813 -4.39970385388539  0.28181105370537
 8 -5.28453729162916 -5.64320880428043  0.33940097079708
 6 -4.28638221762176 -3.34623041284128  0.58709857515752
 6 -3.57416804770477 -3.71323654495450  1.91212158505851
 8 -3.83263486408641 -3.26912364856486  2.99413209430943
 8 -2.57447864156416 -4.61333605600560  1.72737131803180
 6 -1.89161974987499 -5.11992622172217  2.99367430293029
 6  2.76946945864586 -0.61258905350535 -1.20192139253925
 6  4.08877096609661 -0.35221339763976 -0.49799994899490
 6  5.11383486788679  0.43403966936694 -0.84625439813981
 6  4.99803822682268  1.19827247654765 -2.17973213851385
 6  6.46801113391339  0.42005385558556 -0.12035852105211
 6  7.67861539943994  0.00827048014801 -0.91607855835584
 6  8.91244311691169  0.00409527912791 -0.04645645844584
 6  10.17852847734773 -0.50562763446345 -0.83343431393139
 6  10.09047574777478 -1.90492142824282 -1.33217668266827
 6  11.43076595349535 -0.31808558935894  0.07745861446145
 6  12.79990489818982 -0.56641069216922 -0.61300132303230
 6  14.00975044344434 -0.16923812661266  0.23714078157816
 6  15.27913403830383 -0.28077180628063 -0.55674391419142
 6  15.73285495439544 -1.69555718951895 -0.88196781448145
 6  16.42885699159916  0.32291665166517  0.36843135033503
 6  17.76687127652765  0.48129952835284 -0.28175398999900
 6  18.80184055355535  1.24691290829083  0.71276170917092
 6  20.22505117431743  1.31945227872787  0.08011277447745
 6  20.34714606840684  2.15311360856086 -1.13505449814981
 6  21.12856378717872  1.95765870217022  1.24623998739874
 1 -4.18419990449045  3.27150267166717  1.77144173107311
 1 -10.12337272997300  3.87560839583958 -0.38788417991799
 1 -10.22663595299530 -2.47937727852785 -1.25440209240924
 1 -2.60327678457846 -1.02689100300030  2.01612230343034
 1 -2.32486609180918  1.69899348194819  1.09519016941694
 1 -2.03447790529053  0.83834428732873  3.71658537203720
 1 -2.97266232623262  2.34745880338034  3.55700786618662
 1 -3.61954539723972  0.55240992499250  3.76749916271627
 1 -1.94669715461546 -1.64606456685669 -0.54175808500850
 1 -1.94841651415141 -0.04932768236824 -0.74808484808481
 1 -0.11316483388339  0.35071968586859  1.13057345644564
 1 -0.33732153415342 -1.42251676687669  1.21202515771577
 1 -5.81855063046305  6.90333897799780  0.73858956815682
 1 -5.39721671107111  5.92876623972397  2.32997929502950
 1 -4.40984494049405  5.75805697209721  0.98201137673767
 1 -9.37571962446245  5.86702285038504 -0.65282551075107
 1 -9.26108732463246  7.99614035293529  0.31646126792679
 1 -8.03781324712471  7.53874027352735  1.71639002450245
 1 -12.04524862996300  3.23652397839784 -2.13921692639264
 1 -13.14630429962996  1.99268315951595 -1.81935312681268
 1 -12.26650838193819  3.04084273897390 -0.52106335033503
 1 -12.13887866626663 -1.76295574067407 -1.01206616151615
 1 -13.30933965286529 -0.21976871367137 -1.56374190169017
 1 -13.24764111671167 -1.81092577877788 -3.71595147964796
 1 -12.60492405660566  0.05684114651465 -3.84638813451345
 1 -11.49908618791879 -1.51631649874987 -3.87300592059206
 1 -8.85875547854786 -5.12918366126613 -1.79829309340934
 1 -8.12977234203420 -5.77965796999700 -0.35447506050605
 1 -9.51241112601260 -5.21759678097810  0.07355553295330
 1 -3.33960465636564 -3.62974622532253 -0.15835110661066
 1 -1.37359552605261 -4.44449088878888  3.55026794209421
 1 -2.89188879747975 -5.56328794639464  3.57889072797280
 1 -1.19528764026403 -5.94911418461846  2.63212716561656
 1  2.69489879397940 -1.55345718161816 -1.66599056405641
 1  2.60483796139614  0.17512179177918 -1.86655980818082
 1  4.37359826542654 -0.98494070927093  0.34314753075308
 1  3.93258222172217  1.43903261366137 -2.53378174787479
 1  5.52026743844384  2.18629888878888 -2.07083355155516
 1  5.41595890349035  0.72679378687869 -3.24513324432443
 1  6.59455151805180  1.55557955795580  0.34575721852185
 1  6.28649276867687 -0.13573161056106  0.93119283598360
 1  7.45994337903790 -1.11765100030003 -1.40122144574457
 1  7.83587602350235  0.86222943104310 -1.68171109470947
 1  9.00391244284428  1.00211809680968  0.23778141034103
 1  8.99253774247425 -0.67452295849585  0.74654251795180
 1  10.27719527092709  0.40558309600960 -1.62286717621762
 1  9.23048803430343 -2.15311328782878 -1.95489141394139
 1  10.93015557125713 -2.21804858875888 -1.86613085698570
 1  9.97531041704170 -2.64843678567857 -0.53626306600660
 1  11.38149583048305  0.72909513971397  0.27620910841084
 1  11.24543759715972 -0.86142210351035  0.94138476007601
 1  12.99701302020202 -1.54457261846185 -0.98656632423242
 1  12.86996074857486  0.16361705270527 -1.44301766306631
 1  13.92030346704671  0.75785834183418  0.49082642564256
 1  13.80992374547455 -0.89195880058006  1.26668318481848
 1  15.21954524302430  0.27862734773477 -1.44863922192219
 1  15.69711715461546 -2.24363465556556  0.03579212531253
 1  14.97091014171417 -2.26248862446245 -1.60750816591659
 1  16.56449607900790 -1.79182470737074 -1.67807927742774
 1  15.94194939563956  1.37336517021702  0.62524906920692
 1  16.36034048124812 -0.34435361046105  1.21266402760276
 1  18.09138007670767 -0.66065261266127 -0.61502484288429
 1  17.63604066856686  1.04835215411541 -1.19923349914992
 1  18.41431222382238  2.37010116781678  0.98766677197720
 1  18.85412257255726  0.88408258925893  1.70241024132413
 1  20.60887580028003  0.27734388258826 -0.11090402640264
 1  19.87108121472147  3.04755831773177 -1.08156174957496
 1  21.42605685778578  2.46838349114911 -1.48309967326733
 1  20.00752465686569  1.59445125592559 -2.04902187118712
 1  21.10239621482148  1.56654476357636  2.08295791299130
 1  21.99148085438544  2.20877210691069  0.92135710201020
 1  20.78186791669167  3.16683676697670  1.42771321182118
>>>>>>> 8e03b5b5abfc0030b3aa597dc0de36371bfbd096

