%nproc=4
%Mem=3GB
# td=(NStates=1) iop(3/107=0140000000,3/108=0140000000) CAM-B3LYP/6-31G(d,p) 

TD

0 1
12 -7.12443713541354  0.66252463596360  0.20932730273027
 6 -4.84546336283628 -1.96065329592959  0.47722312471247
 6 -4.75411144174417  2.82121083898390  1.07870797599760
 6 -9.38055481998200  3.12508006100610 -0.30384285958596
 6 -9.59658575657566 -1.74325609130913 -0.91383818871887
 7 -5.11305833703370  0.45820191079108  0.70313813781378
 6 -4.42108435573557 -0.65926706990699  0.72186008070807
 6 -2.92496871747175 -0.39406780478048  1.14396006510651
 6 -3.01918514541454  1.22944164576458  1.55157143644364
 6 -4.35969620432043  1.61557620872087  1.05507990189019
 6 -2.94487066786679  1.27535035433543  3.06336165076508
 6 -1.93031876157616 -0.45374136333633 -0.03768995869587
 6 -0.46195190439044 -0.62199544754475  0.45669905220522
 6  0.59205112831283 -0.76495311721172 -0.58155794589459
 8  0.30009022582258 -0.99235301300130 -1.80920831393139
 8  1.83390198859886 -0.46498643704370 -0.19391477907791
 7 -7.04811245464546  2.56757996789679  0.42765368946895
 6 -6.06951709550955  3.42434620202020  0.80078595469547
 6 -6.37266217461746  4.79293615721572  0.76415467416742
 6 -7.77213199849985  4.77244905010501  0.42533866026603
 6 -8.15061458895890  3.40663760256026  0.19748774737474
 6 -5.55046708060806  5.90192966666667  1.11155131033103
 6 -8.56928693669367  5.97307757735774  0.21831244374437
 6 -8.53399180918092  7.22101125082508  0.72211627092709
 7 -9.11261030213021  0.63794078847885 -0.39489606350635
 6 -9.85044253055305  1.77330065436544 -0.51564437793779
 6 -11.19693364606461  1.47864730923092 -1.05258011771177
 6 -11.27251673887389  0.16982452825283 -1.23909393769377
 6 -9.94782238583858 -0.35877607100710 -0.83966616791679
 6 -12.29135007270727  2.52010725212521 -1.25031448414841
 6 -12.37352114501450 -0.65053117691769 -1.62752208280828
 6 -12.19772168106811 -1.46929712201220 -3.02795344654465
 7 -7.20093305570557 -1.42863769946995 -0.30738341344134
 6 -8.27080140644065 -2.29029757525753 -0.65085666556656
 6 -7.74351639143914 -3.61803235463546 -0.63989428922892
 6 -6.52565035553555 -3.62885586768677 -0.21780386208621
 6 -6.17387111881188 -2.18219617541754  0.01342317771777
 6 -8.57933027252725 -4.82727882628263 -0.97474085718572
 6 -5.32084754765477 -4.29088265166517  0.10818579267927
 8 -5.08959995229523 -5.54268112511251  0.15896184478448
 6 -4.19958446104611 -3.33115056245625  0.56844516611661
 6 -3.60608478527853 -3.62531047374737  1.93391936043604
 8 -3.85829861326133 -3.07101445934593  2.98213157135714
 8 -2.72358771157116 -4.61373999249925  1.85826486398640
 6 -2.44486344334433 -5.28976418231823  3.13091049144915
 6  2.78474479487949 -0.54396268516852 -1.28642215941594
 6  4.14954583978398 -0.32596786468647 -0.67330989378938
 6  5.20694618591859  0.43051957995800 -1.08449132613261
 6  5.13438716431643  1.28919659495950 -2.32420655565557
 6  6.51325760446045  0.51523213921392 -0.19672019641964
 6  7.56349780238024 -0.08314686268627 -0.99594992369237
 6  8.94575228682868  0.05948413231323 -0.19585568796880
 6  10.21280674127413 -0.52910457365737 -0.88560428042804
 6  10.09613288988899 -1.97702558245825 -1.30065703170317
 6  11.36378104190419 -0.28373326442644 -0.06844480698070
 6  12.70733846934693 -0.60733076657666 -0.71573907900790
 6  13.97558883068307 -0.21761747604760  0.26083249484949
 6  15.36858284928493 -0.31447053065307 -0.34513016551655
 6  15.74451072207221 -1.70530891919192 -0.94525635193519
 6  16.52152914561456  0.23877039433943  0.54485922062206
 6  17.87667525522552  0.44666839643964 -0.08724525152515
 6  18.81088150675068  1.15787386588659  0.89419267596760
 6  20.22952575697570  1.37568700120012  0.30003670967097
 6  20.22405525132513  1.94273157825783 -1.09667436333633
 6  21.13174824182418  2.02045374527453  1.31306524652465
 1 -3.98883924742474  3.49291254265427  1.51913800960096
 1 -10.14434655795580  3.95029730423042 -0.55634016021602
 1 -10.16183060716071 -2.70336587168717 -1.23959177857786
 1 -2.57329461666167 -1.09676987968797  1.92747923862386
 1 -2.32865633193319  1.67046910801080  1.00231388038804
 1 -2.07714080048005  0.65271437783778  3.40252058945895
 1 -2.93823093219322  2.30385960876088  3.29547756995699
 1 -3.94095689618962  1.01457661196120  3.51356304150415
 1 -2.10886600560056 -1.46075674647465 -0.74601260836084
 1 -2.07518388738874  0.44613223302330 -0.75874260886089
 1 -0.05114054275428  0.36957654495450  0.91476533953395
 1 -0.35429384968497 -1.43098386498650  1.14914837313731
 1 -5.77680185788579  6.81760927292729  0.62311214251425
 1 -5.71337280858086  6.32562544394439  2.05791780428043
 1 -4.51639648424842  5.67563183118312  0.85092582518252
 1 -9.58156841664166  5.79645302730273 -0.33657501020102
 1 -9.32664172787279  7.99443916491649  0.67162693839384
 1 -7.67198513061306  7.43699053545355  1.38618757905791
 1 -11.99398987198720  3.12290143724372 -2.01516734823482
 1 -13.22676997469747  1.90637938033803 -1.57866359455946
 1 -12.49596062876288  3.12653998809881 -0.34364480398040
 1 -12.61901386628663 -1.29402032483248 -0.70929443034304
 1 -13.35674797389739 -0.02165487598760 -1.74531028542854
 1 -13.13851905110511 -1.94881854395440 -3.06974793289329
 1 -11.78846925262526 -0.74555302660266 -3.92604158255826
 1 -11.42805764516451 -2.41957298449845 -3.14847312551255
 1 -8.91294591319132 -4.63596009680968 -2.02844890789079
 1 -8.04946933213321 -5.66929288258826 -1.06495645074507
 1 -9.48659283828383 -5.08002645104511 -0.29019128782878
 1 -3.31711923042304 -3.40804741034103 -0.10307804590459
 1 -1.71776516411641 -4.60191240464046  3.68981069866987
 1 -3.39088552585259 -5.31298082298230  3.57358839653965
 1 -2.16998751925193 -6.44240502530253  2.65643900500050
 1  2.88763681848185 -1.49054567736774 -1.74967641634163
 1  2.56091253255326  0.14114219901990 -2.16728778627863
 1  4.21893237993799 -0.93404181798180  0.22234363456346
 1  4.06716202770277  1.14065960866087 -2.79502998869887
 1  5.26374330653065  2.44987541144114 -2.19530696909691
 1  5.80991055955596  1.10937212811281 -3.16781303820382
 1  6.76756494039404  1.57366734733473  0.11840145404540
 1  6.27137500960096  0.02663532683268  0.80846704220422
 1  7.68709083188319 -1.21287196019602 -1.31333609080908
 1  7.48766132463246  0.39704880788079 -1.97465828872887
 1  8.99357540184018  1.08407790529053  0.24049647774777
 1  8.95638875967597 -0.56102445514551  0.79162528592859
 1  10.35199983178318  0.09353550135014 -1.88420357835784
 1  9.14644425352535 -2.21582986648665 -1.67897627952795
 1  10.91799093969397 -2.30213361266127 -1.93313867196720
 1  10.07331952905291 -2.54752886758676 -0.43925131883188
 1  11.43273491509151  0.85540197359736  0.16005377617762
 1  11.43235083058306 -0.92273357095710  0.92345866596660
 1  12.80256820932093 -1.73915133443344 -0.96290856235624
 1  12.89036486638664 -0.09914497849785 -1.57333166686669
 1  13.82856427672767  0.78552391569157  0.44979980868087
 1  13.97422573317332 -0.78344472337234  1.11772414641464
 1  15.23162356375638  0.44539793679368 -1.21546281508151
 1  15.88407220402040 -2.35147448864886 -0.14358249374937
 1  14.84247589198920 -1.88971349134914 -1.52264363786379
 1  16.60516879647965 -1.87788868586859 -1.71140765406541
 1  16.12048532203220  1.12604093779378  1.07739365566557
 1  16.65855993379338 -0.40348663346335  1.44291278597860
 1  18.25904264196420 -0.54746126012601 -0.48096829242924
 1  17.58395570517052  0.93463235733573 -1.13033877747775
 1  18.40963001990199  2.22978424642464  0.99121106790679
 1  18.74280024252425  0.80745558505851  1.92975622112211
 1  20.79489932223223  0.45552655025503  0.30975686788679
 1  19.92023884238424  3.03781455795580 -1.17766995169517
 1  21.20747454825483  1.98494963706371 -1.70670865206521
 1  19.56520491809181  1.44988527872787 -1.82925130953095
 1  21.21947580108011  1.43558919981998  2.20738440724072
 1  21.94828272107211  2.22859333003300  0.60352700630063
 1  20.82350242874288  3.11873799099910  1.67483462016202

