%nproc=4
%Mem=2GB
# td=(NStates=1) CAM-B3LYP/6-31G(d,p) 

TD

0 1
<<<<<<< HEAD
12 -7.04218479147915  0.58385713381338  0.06537422482248
 6 -4.95805042304230 -1.88914009240924  0.51118765146515
 6 -4.87787771667167  2.85853430073007  1.28769513441344
 6 -9.38585332083208  3.04192968846885 -0.32803566326633
 6 -9.51326163986399 -1.75880139113911 -0.99920634973497
 7 -5.08551197579758  0.50697051515152  0.57963838213821
 6 -4.29486919301930 -0.69539936193619  0.82031005420542
 6 -2.90072907830783 -0.39002842854285  1.23578393259326
 6 -3.01782522092209  1.13404607290729  1.64983571427143
 6 -4.36452344724472  1.56654740354035  1.16146317621762
 6 -2.82367744984498  1.36790907900790  3.04519592849285
 6 -1.82462592359236 -0.64710997239724  0.13336729502950
 6 -0.42677009960996 -0.35103945114511  0.54237836713671
 6  0.54511564876488 -0.68394190709071 -0.65273065356536
 8  0.19164040414041 -0.93441884948495 -1.72924925662566
 8  1.80828263876388 -0.46918431483148 -0.20447723662366
 7 -7.11597204510451  2.57782337213721  0.32388108360836
 6 -6.09656893589359  3.32629360516052  0.80920445404540
 6 -6.50702795589559  4.75277956735674  0.82273296049605
 6 -7.75679838683868  4.80748137963796  0.31421981328133
 6 -8.13890816241624  3.51926112141214  0.06753930023002
 6 -5.60265822252225  5.92050451635164  1.30577533803380
 6 -8.65779357695770  6.01181221492149  0.15586257165717
 6 -8.49806369766977  7.17105322392239  0.81939818961896
 7 -9.17165943854386  0.63140600170017 -0.61889592329233
 6 -9.91991825152515  1.78304825792579 -0.70292661676168
 6 -11.31959105570557  1.42900123922392 -1.12158387788779
 6 -11.31639404330433  0.07668303240324 -1.34721343534353
 6 -9.94824050475047 -0.41467344164416 -0.98028304440444
 6 -12.40013883758376  2.35207577857786 -1.30215699049905
 6 -12.43632817911791 -0.86605401550155 -1.80790159865987
 6 -12.30709819821982 -1.22507491869187 -3.22047716631663
 7 -7.24959442774277 -1.38068768236824 -0.19916459345935
 6 -8.29023926372637 -2.22188736083608 -0.46124107930793
 6 -7.87050319591959 -3.60242851035104 -0.47418469576958
 6 -6.52686657075708 -3.49390372737274 -0.05665739763976
 6 -6.27364996139614 -2.16369465076508  0.05548835303530
 6 -8.66021348874887 -4.84767761016102 -0.75089356775678
 6 -5.40489495979598 -4.30821470497050  0.18014088668867
 8 -5.25929476737674 -5.54560904430443  0.37027405810581
 6 -4.16427000640064 -3.24174996479648  0.54604446974697
 6 -3.62069270017002 -3.57772299359936  1.84597497039704
 8 -3.69815141574157 -3.00705744194419  2.95901858295830
 8 -2.85079627332733 -4.73139786218622  1.77658623952395
 6 -2.09123971187119 -5.19919414851485  2.96955189068907
 6  2.82409492119212 -0.66199399399940 -1.19195039543954
 6  4.18048013701370 -0.47617579387939 -0.52831298029803
 6  5.17834131853185  0.25710197559756 -0.97558733143314
 6  5.10867929092909  1.14139678897890 -2.19374353965397
 6  6.44900923372337  0.36798864906491 -0.13798028322832
 6  7.61394893279328 -0.24348469536954 -1.01823877437744
 6  9.00908278087809 -0.13270840124012 -0.25419723252325
 6  10.24578520302030 -0.50558763046305 -0.99125009550955
 6  10.14864156435643 -2.08723966006601 -1.44109757475748
 6  11.46478935583558 -0.28356213701370 -0.09751888328833
 6  12.87027193489349 -0.41723577467747 -0.70717073997400
 6  14.00703017141714 -0.15579678247825  0.18750581808181
 6  15.42248837373737 -0.28721245034503 -0.45732397219722
 6  15.88596026492649 -1.64144177797780 -0.84672429012901
 6  16.43480758665867  0.37421178117812  0.51224573177318
 6  17.84114870427043  0.40636203460346 -0.11161697629763
 6  18.88456882638264  1.15019323632363  0.76915734873487
 6  20.30609927912791  1.35939627312731  0.25722048524852
 6  20.35167652145214  2.26973527072707 -1.07188818151815
 6  21.16325725652565  2.00543347964796  1.35965132853285
 1 -4.20667215171517  3.62545806720672  1.48739332623262
 1 -10.10372076477648  3.82237307230723 -0.27898328982898
 1 -10.39456274567457 -2.47031637243724 -1.41411806400640
 1 -2.60096655355536 -1.27776609050905  1.89361005220522
 1 -2.24465807100710  1.72002558515852  1.01256190659066
 1 -1.97648210571057  1.11198165106511  3.43661737523752
 1 -2.80686574657466  2.47740179767977  3.25754792019202
 1 -3.55306874957496  1.06697138113811  3.83406581938194
 1 -2.09050153505351 -1.57788774917492 -0.18870277947795
 1 -2.05036670917092  0.10710796119612 -0.67061710131013
 1 -0.37409092649265  0.72911752565257  0.82640303940394
 1 -0.22596039803980 -0.88494300950095  1.57807176237624
 1 -5.74945372077208  6.96328497259726  0.79106481568157
 1 -5.62406939633963  6.10966432953295  2.44261055815582
 1 -4.65928988498850  5.78267943434343  0.69292246784678
 1 -9.39107115961596  6.00877702580258 -0.55296552475248
 1 -9.08087930383038  8.00992173107311  0.69766938873887
 1 -7.72347181298130  7.19035543504350  1.51212959845985
 1 -12.25542964806481  3.06829715571557 -2.19116212091209
 1 -13.49842951215121  1.89974386558656 -1.68083927542754
 1 -12.68351008210821  2.99733838853885 -0.47914915891589
 1 -12.62616739513951 -1.60618006310631 -0.93810876577658
 1 -13.49580829972997 -0.42030876767677 -1.54845037253725
 1 -13.25096144874487 -1.65404009020902 -3.43950383488349
 1 -12.16482004620462 -0.30730526812681 -3.92590608630863
 1 -11.39203548284829 -1.89650451755176 -3.29192781278128
 1 -8.95194479747975 -5.01101184408441 -1.95274853895390
 1 -8.04373373817382 -5.76618662286229 -0.56068568156816
 1 -9.73697358225823 -4.59235425672567 -0.20953277587759
 1 -3.42345304120412 -3.38986223692369 -0.30116538803880
 1 -1.50279844634463 -4.55449188888889  3.32995591089109
 1 -2.77915752435243 -5.52242385998600  3.68555139403940
 1 -1.51757986948695 -6.00365963916392  2.48541249414941
 1  2.71383068716872 -1.66532836873687 -1.65329929492949
 1  2.67247472507251  0.01614589418942 -2.05448860106011
 1  4.22075298089809 -1.06499871507151  0.41254447044704
 1  4.06924588808881  1.24080279067907 -2.60008837853785
 1  5.38871428312831  2.17872813171317 -1.85031149934994
 1  5.78654596219622  0.84389549704971 -2.95124385538554
 1  6.63101516441644  1.43586758675868  0.18245088788879
 1  6.23221734113411 -0.19318735613561  0.71266098279828
 1  7.32083946864686 -1.22110134533453 -1.32944426802680
 1  7.79125156105611  0.46442965106511 -1.92550547414742
 1  9.05901795339534  0.90765865086509  0.30749838203820
 1  8.99033752245225 -0.69403490969097  0.63380124382438
 1  10.35554310571057  0.24825736343634 -1.85106999649965
 1  9.43391837733773 -1.86772474897490 -2.16650257505751
 1  10.92690524622462 -2.42373915781578 -1.80895513941394
 1  9.79143202920292 -2.57139908190819 -0.49416885658566
 1  11.42742042294229  0.79702193239324  0.21817330483048
 1  11.29430248364837 -0.77177313861386  0.81029165076508
 1  13.00699401830183 -1.36859502070207 -1.08612628022802
 1  12.90647439993999  0.34285497649765 -1.41167452875288
 1  13.85830726742674  0.97915047104710  0.48373571657166
 1  13.94259701280128 -0.63072267696770  1.11400791729173
 1  15.21265455395539  0.35980546554655 -1.44180853885389
 1  16.01102854575458 -2.27863815591559 -0.04613606750675
 1  14.95644869556956 -2.27808018361836 -1.45716313141314
 1  16.82826245564556 -1.67045257015702 -1.49418088758876
 1  16.20059526022602  1.35820365406541  0.93232977727773
 1  16.59538398559856 -0.19682885798580  1.48039080028003
 1  18.09054999369937 -0.65425197259726 -0.24759810021002
 1  17.79935700020002  0.74942226112611 -1.09803337913791
 1  18.41965275787579  2.18157231493149  0.93262126742674
 1  19.13109026932693  0.57757193819382  1.72148214851485
 1  20.82614752745275  0.42012816101610 -0.19303223922392
 1  20.10359446604660  3.39911347324732 -0.92971656505650
 1  21.26909116121612  1.98872552535254 -1.91211257455746
 1  19.81265516991699  1.84752656345635 -1.89815678467847
 1  21.22229820502050  1.14822293139314  2.19950956815682
 1  22.20268197449745  2.25789701940194  0.96795176147615
 1  20.73311304120412  2.94928501180118  1.84825526602660
=======
12 -7.10036060906091  0.57131587968797  0.10141782918292
 6 -4.90391500950095 -1.90630180858086  0.56710324302430
 6 -4.73986391529153  2.84702314961496  1.12959932483248
 6 -9.40927566306631  3.10545604110411 -0.32172503220322
 6 -9.57151746544655 -1.80182569356936 -0.90522695179518
 7 -5.13481690629063  0.45676549464946  0.81040145844584
 6 -4.35110481658166 -0.69428925092509  0.83120114331433
 6 -2.92112111751175 -0.45255468116812  1.16283663786379
 6 -3.06955039343934  1.08343101140114  1.74160489118912
 6 -4.34255125002500  1.53124387318732  1.14526155605561
 6 -2.84057914001400  1.31674396249625  3.19982139103910
 6 -1.79041250225023 -0.65176043744374  0.10486444474447
 6 -0.39623704630463 -0.39752409960996  0.43821795109511
 6  0.51109224642464 -0.64642815571557 -0.66395177567757
 8  0.24544578467847 -0.92475788338834 -1.77105343704370
 8  1.85216702720272 -0.57125452185219 -0.12785957485749
 7 -7.07430787868787  2.65286087588759  0.26666536203620
 6 -5.94779405840584  3.42911388718872  0.69094262786279
 6 -6.32187944104410  4.69909419881988  0.72701338853885
 6 -7.58264097109711  4.90812144364436  0.37523591489149
 6 -8.12222649424943  3.45013420872087  0.00040258655866
 6 -5.45092304900490  5.87048951485149  1.06802156265627
 6 -8.48582638023802  5.98687972167217  0.16224320972097
 6 -8.40882477377738  7.24048016661666  0.77990424022402
 7 -9.12292456505651  0.58755161626163 -0.49922395609561
 6 -9.82869912961296  1.78865881898190 -0.56804312841284
 6 -11.13169226582658  1.49012735183518 -1.05448716821682
 6 -11.17956035993599  0.11796716081608 -1.32055076907691
 6 -9.96194187488749 -0.42349432373237 -0.97309232533253
 6 -12.26510533423342  2.51122169316932 -1.27963473827383
 6 -12.44314886118612 -0.56277368746875 -1.82830363886389
 6 -12.25512300070007 -1.06451886308631 -3.20842596119612
 7 -7.28920838913891 -1.40117973157316 -0.13654833183318
 6 -8.26441668146815 -2.28306347844784 -0.56018097329733
 6 -7.92191833743374 -3.61604987248725 -0.53831110841084
 6 -6.55373925802580 -3.57307164416442 -0.02701443334333
 6 -6.18468106450645 -2.23366164746475  0.13997680188019
 6 -8.78294576197620 -4.88827166956696 -0.89596807520752
 6 -5.36840131043104 -4.37570145364536  0.26859973257326
 8 -5.17814665256526 -5.57050153355336  0.20404743544354
 6 -4.21842542194219 -3.30093588338834  0.56668653395340
 6 -3.62517314821482 -3.67725294659466  1.86382675557556
 8 -3.67213881448145 -3.08848558475848  2.99831251235124
 8 -2.85481667536754 -4.72968769116912  1.68215679657966
 6 -2.23438402630263 -5.33291752085209  2.87607254275428
 6  2.86104861656166 -0.60471826642664 -1.14559575997600
 6  4.14841693069307 -0.39831800810081 -0.45152530153015
 6  5.13669715411541  0.26117238263826 -1.05205497819782
 6  5.20878930193019  0.98725137443744 -2.31838600390039
 6  6.42047638043804  0.35261711191119 -0.19192567776778
 6  7.56509404730473 -0.20413075997600 -0.89744669516952
 6  8.87546941954195 -0.18719384978498  0.01260944814481
 6  10.12582320682068 -0.66072314401440 -0.82721369186919
 6  10.05207190739074 -2.10674161026103 -1.30983444844484
 6  11.36880975787579 -0.38243202400240 -0.02169130053005
 6  12.62745765346535 -0.57617166826683 -0.68149817271727
 6  13.89709917831783 -0.20558176097610  0.21484855235524
 6  15.35223134803480 -0.42150587968797 -0.44265250505050
 6  15.72390405930593 -1.79689732353235 -0.69207882558256
 6  16.43433753965397  0.46219057905791  0.36822132933293
 6  17.76313090249025  0.77231863026303 -0.20166598119812
 6  18.77816818631863  1.48791700870087  0.73516394939494
 6  20.15253392259226  1.60032036553655  0.18971373457346
 6  20.40199155295529  2.28232652985299 -1.16940793349335
 6  21.10160109090909  2.20382331863186  1.24962032543254
 1 -3.92105358985899  3.49424494589459  1.58236282318232
 1 -10.18084847754775  3.89412024702470 -0.27653304480448
 1 -10.39367265666567 -2.58206754755476 -1.05240189238924
 1 -2.57358381528153 -1.06981529542954  1.96547723892389
 1 -2.28088169336934  1.70546412901290  1.20895154555456
 1 -2.02626708420842  0.74784523742374  3.57448116161616
 1 -2.71845690569057  2.25983004050405  3.38307047244724
 1 -3.72418586128613  0.67142182618262  3.71134354715472
 1 -1.88530101500150 -1.61796175657566 -0.43978788798880
 1 -2.01611328382838  0.13732098249825 -0.68518855845585
 1 -0.38122163956396  0.40360497439744  0.95292569166917
 1 -0.35913371537154 -1.28218273347335  0.98762271747175
 1 -5.70227900330033  6.85026367046705  0.53579928912891
 1 -5.56115310471047  6.06955031813181  1.96126242334233
 1 -4.39371332733273  5.76880804720472  1.00190336593659
 1 -9.39925197769777  5.75677182528253 -0.41854208240824
 1 -9.12963417931793  7.88492923182318  0.61953157495750
 1 -7.39935940174017  7.62079847934793  1.41542992849285
 1 -12.01519562466247  3.23689401540154 -1.93804680938094
 1 -13.15044471367137  2.14075796699670 -1.76514770627063
 1 -12.34720645174518  3.29422807750775 -0.38668991299130
 1 -12.87909268766877 -1.34617406250625 -1.06992194709471
 1 -13.26365508440844  0.26731999519952 -1.70594612211221
 1 -13.06311266386639 -1.68220290649065 -3.64442432693269
 1 -12.23568713291329 -0.10322486008601 -3.93272676837684
 1 -11.25485176447645 -1.56321118821882 -3.27160578057806
 1 -8.89085868886889 -4.95758650155016 -2.03570683478348
 1 -8.31055041984198 -5.73977398159816 -0.46908652165217
 1 -9.81250113501350 -4.78828384968497 -0.48662048464846
 1 -3.40868156405641 -3.46785003570357 -0.25634090559056
 1 -1.66703486998700 -4.62585902560256  3.35383829912991
 1 -2.83851345994599 -5.96425804340434  3.49530236913691
 1 -1.50109822132213 -6.02490176337634  2.45861981488149
 1  2.68827813191319 -1.52427426332633 -1.58184214921492
 1  2.83681115871587  0.11660594019402 -1.95308846104610
 1  4.44008491409141 -0.97867008220822  0.34028724472447
 1  4.28603756725673  0.92424113451345 -2.80600897059706
 1  5.51386679837984  1.96126638553855 -1.94739120732073
 1  6.01767907550755  0.49501060856086 -2.91164989598960
 1  6.61358342124212  1.42133613361336  0.01166380918092
 1  6.33434755415542 -0.15118315571557  0.84597431413141
 1  7.47026441114111 -1.28254748994900 -1.26492781638164
 1  8.00524296019602  0.46694990309031 -1.85152807640764
 1  8.95198725032503  0.87504538953895  0.40153778597860
 1  8.94506299499950 -0.80602610881088  0.78965682938294
 1  10.14157170857086 -0.05666312861286 -1.79895478497850
 1  9.19111409690969 -2.45473344984498 -1.67161308610861
 1  11.02620517621762 -2.13726050995100 -2.04707895179518
 1  10.06251913791379 -2.81312325432543 -0.49020846054605
 1  11.39877755865587  0.63880611081108  0.41572305980598
 1  11.16337939133913 -0.94589055035504  0.96819744134413
 1  12.67014033293329 -1.66363452465247 -1.05027269486949
 1  12.58893264576458  0.02244293529353 -1.67665102640264
 1  13.81269270597060  0.87062961896190  0.37542488548855
 1  13.89178193129313 -0.90386999169917  1.15439195569557
 1  15.12207549604960  0.09342882788279 -1.50724508250825
 1  15.93592103500350 -2.61752204430443  0.20865941204120
 1  15.17836088678868 -2.50730310591059 -1.32988040314031
 1  16.64454408380838 -1.74670019491949 -1.38031950145014
 1  16.09540474117412  1.39617745144514  0.82396894119412
 1  16.56004045124512 -0.11606078117812  1.33128588978898
 1  18.42205314401440 -0.13291983938394 -0.76409975037504
 1  17.61771883638364  1.46058337723772 -1.12362593839384
 1  18.24961575417542  2.38079223692369  1.10424843014301
 1  18.89013617391739  0.99704388538854  1.77515751605161
 1  20.57714262696270  0.66605275347535 -0.09157209320932
 1  20.24381848844885  3.37180074197420 -0.99946353975398
 1  21.31818607070707  2.07242389518952 -1.68581994529453
 1  19.56366027042704  2.04863667446745 -2.06848381738174
 1  21.07914388958896  1.73560166926693  2.21643126032603
 1  22.18949065536554  2.31817304700470  0.94841980828083
 1  20.73086281618162  3.12959304260426  1.29718015851585
>>>>>>> 8e03b5b5abfc0030b3aa597dc0de36371bfbd096

