%nproc=4
%Mem=2GB
# td=(NStates=1) CAM-B3LYP/6-31G(d,p) 

TD

0 1
12 -7.13131370437044  0.56779552765277  0.10103779117912
 6 -4.86120073807381 -1.93107428582858  0.52080861356136
 6 -4.88340826972697  2.81336978427843  1.19014537943794
 6 -9.36323105860586  3.12797829332933 -0.34486734643464
 6 -9.64513482718272 -1.70303581458146 -0.87132356145615
 7 -5.16289971457146  0.44103392149215  0.80854127242724
 6 -4.34850455655566 -0.72352217421742  0.81310933413341
 6 -2.87167617301730 -0.41208063376338  1.22382273647365
 6 -2.98747218561856  1.13860652895290  1.69544027472747
 6 -4.38119511441144  1.46394714351435  1.17427445734573
 6 -2.94526960906091  1.34434672277228  3.23220462936294
 6 -1.90276373737374 -0.61137639903990  0.03961792009201
 6 -0.49680710331033 -0.52708705590559  0.43008713801380
 6  0.58449958715872 -0.73846735963596 -0.60794617511751
 8  0.29579081918192 -1.05152055965597 -1.66501283298330
 8  1.81567337783778 -0.40053745014501 -0.18372516141614
 7 -7.09001944984499  2.63757934773477  0.25382407790779
 6 -6.08564784378438  3.37777875367537  0.75991952555256
 6 -6.39800705380538  4.74479876927693  0.71699238643864
 6 -7.74532723972397  4.83090372187219  0.35204359565957
 6 -8.14424869646965  3.51370056535654  0.02864541084108
 6 -5.46970492719272  5.77109957585759  1.07997275777578
 6 -8.53633143074307  6.01411244494450  0.12200918631863
 6 -8.45114900620062  7.16323244184418  0.83778002780278
 7 -9.20773304590459  0.69240210131013 -0.51641567526753
 6 -9.86897315701570  1.85878583168317 -0.64516084018402
 6 -11.18717781438144  1.42631097019702 -1.13278499799980
 6 -11.29426183008301  0.11436680078008 -1.25694440844084
 6 -10.00806648734874 -0.37790976527653 -0.91012602870287
 6 -12.33493231693169  2.37435800680068 -1.48457523232323
 6 -12.39382392869287 -0.76412382248225 -1.67584839333933
 6 -12.37227471587159 -1.09909232043204 -3.18047316591659
 7 -7.30273974227423 -1.44450406400640 -0.16096077307731
 6 -8.37501774157416 -2.26066123822382 -0.50607556275628
 6 -7.90043618921892 -3.62371063856386 -0.56995427272727
 6 -6.52125600970097 -3.53573791079108 -0.21221295319532
 6 -6.24177677407741 -2.18556683798380  0.10337314151415
 6 -8.54871233863386 -4.89053189558956 -0.92754123252325
 6 -5.31057552785279 -4.32873675717572  0.15292816541654
 8 -5.26000483838384 -5.56958144154415  0.20120715141514
 6 -4.21999557895790 -3.20328611841184  0.62212207750775
 6 -3.48044867576758 -3.67336255755576  1.90353072597260
 8 -3.77825942654265 -3.22129886608661  2.97903058415842
 8 -2.65645683938394 -4.74537926032603  1.67163574447445
 6 -1.97994858275828 -5.11776600570057  2.98984391989199
 6  2.78934144584458 -0.56484427902790 -1.21756295669567
 6  4.04237632663266 -0.39221739803980 -0.56446659565957
 6  5.03182666706671  0.39632589798980 -1.02338211091109
 6  5.06794521752175  1.19279192849285 -2.24027819311931
 6  6.49943427622762  0.36842869306931 -0.26995348054806
 6  7.61423896179618 -0.15780612751275 -1.02945989648965
 6  8.92167404000400 -0.16056118651865 -0.10500231303130
 6  10.22669329382938 -0.49615668736874 -0.81322229272927
 6  10.35960266046605 -2.05749668576858 -1.17104056905691
 6  11.44456733363336 -0.20765454625463  0.03526439503950
 6  12.75746065376538 -0.42531658275828 -0.56342636553655
 6  13.96835630403040  0.05359415661566  0.24906197369737
 6  15.39282540744074 -0.23636736583658 -0.34810305010501
 6  15.60374204310431 -1.63167080088009 -0.70696031373137
 6  16.46509061496150  0.28250261026103  0.49700420762076
 6  17.82525711511151  0.57062846124612 -0.20271608620862
 6  18.86638700820082  1.30624884188419  0.67240767376738
 6  20.31869053825383  1.24273460696070  0.10692545574557
 6  20.26208756255626  2.04403270047005 -1.19490048274827
 6  21.25962689348935  1.90933386968697  1.13058842224222
 1 -4.28771025552555  3.45032055345535  1.67152173907391
 1 -10.05085547824782  3.96881771677168 -0.52934832633263
 1 -10.39773306270627 -2.34220356115612 -1.23417006920692
 1 -2.55475193209321 -1.11312962686269  2.06921761296130
 1 -2.27440104530453  1.66670025262526  1.13018366876688
 1 -1.99124358185819  1.02388284118412  3.62783649714972
 1 -3.07988304830483  2.41021507900790  3.61618378377838
 1 -3.83006644934493  0.97376206020602  3.71581399419942
 1 -2.25627811271127 -1.68347830823082 -0.39783369256926
 1 -2.08782045454545  0.00315756615662 -0.85181522112211
 1 -0.21472498989899  0.49084369826983  0.82313271237124
 1 -0.35214301630163 -1.44645916111611  1.18564251945194
 1 -5.71343011841184  6.82697134123412  0.73876958615862
 1 -5.40572756215621  5.75651901500150  2.34612090919092
 1 -4.57147110311031  5.68921008740874  0.89416259185919
 1 -9.49918197069707  5.88306445454545 -0.46991721992199
 1 -9.20468168406841  8.10834157305731  0.68664828662866
 1 -7.66119558535854  7.41304770427043  1.65123350885089
 1 -11.85785989108911  3.41711203720372 -1.95465847054705
 1 -13.10340000920092  1.85495938713871 -2.40574176567657
 1 -13.08119985108511  2.68745740044004 -0.51288253225323
 1 -12.46687146554656 -1.65608505360536 -1.04336929182918
 1 -13.39458817771777 -0.19268600540054 -1.56183171067107
 1 -12.96167251985199 -1.95957064326433 -3.42502238673867
 1 -12.67456102030203 -0.21962650025003 -3.81647514321432
 1 -11.37898417771777 -1.41121598869887 -3.63885250525053
 1 -9.05154475747575 -4.87138788168817 -1.97918118221822
 1 -7.80941030583058 -5.71701170537054 -0.70878049104910
 1 -9.40114999989999 -5.05640066136614 -0.10186200880088
 1 -3.40293098899890 -3.36099935063506 -0.09206447794779
 1 -1.67076524302430 -4.22493893359336  3.38202111741174
 1 -2.90221983058306 -5.61816343394339  3.51502434133413
 1 -1.28222633413341 -5.89040831403140  2.71830578347835
 1  2.62590189428943 -1.46575841174117 -1.72892685768577
 1  2.45991346894689  0.25182946254625 -2.06309946214621
 1  4.28298920452045 -0.95907812301230  0.37113032903290
 1  4.06631559505951  1.59917862826283 -2.67241561126113
 1  5.62130754245425  2.14960521942194 -2.08451491969197
 1  5.76411371897190  0.80362146964696 -3.10823955495550
 1  6.89742180508051  1.26994099409941  0.09950259305931
 1  6.12618673807381 -0.22097013441344  0.54073379007901
 1  7.68311569626963 -1.31766100130013 -1.33735505910591
 1  7.81125356125613  0.25095830393039 -2.00499342294229
 1  8.85493754535453  0.87342522752275  0.33947157935794
 1  8.82645113381338 -0.63486899309931  0.78341620532053
 1  10.17378492989299  0.12670520822082 -1.66743163266327
 1  9.43343832933293 -2.44133210971097 -1.44773069786979
 1  11.14465702140214 -2.43381016491649 -1.88526277017702
 1  10.51175406140614 -2.66666860886089 -0.09303874357436
 1  11.41943962486249  0.80665289548955  0.25321680918092
 1  11.25068812221222 -0.62797875917592  1.05506612821282
 1  12.83845716461646 -1.52536069726973 -0.82692035963596
 1  12.76181993449345  0.04021471247125 -1.51600496179618
 1  14.03791522822282  1.22774533053305  0.37808515151515
 1  14.11376412951295 -0.48459806450645  1.21328784528453
 1  15.17078036653665  0.53626311131113 -1.13462782078208
 1  15.26676411931193 -2.18112840494049  0.21379992609261
 1  14.81324437513751 -2.06445882148215 -1.35304271937194
 1  16.62188181758176 -1.84098962386239 -0.89415088458846
 1  16.19070427112711  1.37250508420842  0.82994953925393
 1  16.58006245344534 -0.36003517861786  1.38595135633563
 1  18.17717865656566 -0.27567411481148 -0.47862120252025
 1  17.51584864936494  1.12480979987999 -1.29412298809881
 1  18.66498729132913  2.38412256995700  0.95274327962796
 1  18.82110927122712  0.97589177017702  1.61642164246425
 1  20.70982589528953  0.09735588378838  0.02189925392539
 1  19.95217932453245  3.03935749764976 -1.06699029242924
 1  21.14617886998700  2.24952160496050 -1.53997536083608
 1  19.56429033343334  1.68917072787279 -2.03811078007801
 1  21.16469244444444  1.48888699779978  2.26922653985399
 1  22.25775748204820  1.79825105480548  0.61138610491049
 1  21.14406413631363  3.03855393869387  1.27747818831883

