%nproc=4
%Mem=2GB
# td=(NStates=1) CAM-B3LYP/6-31G(d,p) 

TD

0 1
12 -7.18077865086509  0.60325907400740  0.09232692009201
 6 -4.89516413441344 -1.97855903430343  0.59116564926493
 6 -4.86405633453345  2.85314376167617  1.23100946584658
 6 -9.46991172667267  3.11693718921892 -0.36194905460546
 6 -9.54415472917292 -1.82207771877188 -0.89825625472547
 7 -5.18887231183118  0.48315813391339  0.77200761906191
 6 -4.40521022712271 -0.65922574457446  0.84715273847385
 6 -2.93499250465047 -0.42041146684668  1.32093244744474
 6 -3.01980541894189  1.11562423072307  1.68025875657566
 6 -4.39633662856286  1.54859560836084  1.16449347924792
 6 -2.91701678377838  1.33505579367937  3.14504591349135
 6 -1.96778023902390 -0.65254051545155  0.20830478877888
 6 -0.48482590519052 -0.45249959715972  0.54789891919192
 6  0.51064220142014 -0.61021453435344 -0.58740412091209
 8  0.19277051715172 -1.04064947254726 -1.70024635633563
 8  1.77369918041804 -0.37465486188619 -0.15767255615562
 7 -7.17004745264526  2.58278386818682  0.47542623812381
 6 -6.09302858185819  3.36043701950195  0.76545007860786
 6 -6.39946719981998  4.74402869226923  0.70980166736674
 6 -7.68801150815082  4.85546617811781  0.26970536183618
 6 -8.13311758335834  3.39659885518552  0.08160070637064
 6 -5.52383033973397  5.92149461536154  0.98681344184418
 6 -8.52205000260026  6.06585761946195  0.02238922432243
 6 -8.52595648694870  7.23017913651365  0.71729797959796
 7 -9.17192946554655  0.67203006410641 -0.47585161886189
 6 -9.92932919261926  1.83827378047805 -0.54830115421542
 6 -11.26949604620462  1.47792613171317 -1.09458117761776
 6 -11.22231463536354  0.03801916601660 -1.32035074907491
 6 -10.01356703740374 -0.39389136343634 -0.81175619171917
 6 -12.32597142084208  2.44040461146115 -1.30326710151015
 6 -12.39966451275128 -0.86390380048005 -1.79292010051005
 6 -12.27802529092909 -0.96383879507951 -3.31417653625363
 7 -7.18664813311331 -1.38429804340434 -0.20233491049105
 6 -8.31804204400440 -2.17016218831883 -0.54999995519552
 6 -7.85378152375238 -3.66263453095310 -0.52534981228123
 6 -6.51388527262726 -3.55171950895090 -0.10215194709471
 6 -6.19253184958496 -2.16797507880788  0.04667747194719
 6 -8.54744221162116 -4.91950479287929 -0.88694717311731
 6 -5.31168563886389 -4.38932281578158  0.18047091969197
 8 -5.17444628252825 -5.56130061346135  0.03585061576158
 6 -4.19259283868387 -3.37643343314331  0.56979684498450
 6 -3.61422205310531 -3.71513673497350  1.91562193509351
 8 -3.71561316191619 -3.04841157735774  2.94392707380738
 8 -2.87842903660366 -4.81059578197820  1.81700028092809
 6 -2.26029661756176 -5.24330855995600  3.05530046554655
 6  2.82044455615562 -0.62547034163416 -1.09238043844384
 6  4.11947403640364 -0.45889406570657 -0.55375552455246
 6  5.19022250665066  0.26963322872287 -1.00211998469847
 6  5.16533495649565  1.06368901820182 -2.35142930823082
 6  6.50883521632163  0.37702955315532 -0.19989647484748
 6  7.68452599049905 -0.10190053695370 -0.99245619611961
 6  8.86555842844285 -0.17784291469147 -0.19121093389339
 6  10.23160378487849 -0.44975204690469 -0.96605757625763
 6  10.17337403760376 -1.94275521162116 -1.49889335433543
 6  11.48798167506751 -0.40267404820482 -0.06692582398240
 6  12.78469337703770 -0.55188924002400 -0.73580360326033
 6  13.99954942334233 -0.20085128792879  0.24041110861086
 6  15.40133625852585 -0.17837156625663 -0.39423766356636
 6  15.80155182408241 -1.63717135093509 -0.78304792249225
 6  16.45546965286529  0.47635199519952  0.51874638183818
 6  17.86154074347435  0.63110450885089 -0.20644645924592
 6  18.84574494399440  1.33055127212721  0.74303473647365
 6  20.34444311351135  1.38838917241724  0.20152491569157
 6  20.38551990579058  2.14544284148415 -1.14298529122912
 6  21.28368929972997  1.84615755205521  1.32355771917192
 1 -4.10692217671767  3.72672819421942  1.35252983988399
 1 -10.26950734343434  3.81954278927893 -0.43097848934894
 1 -10.35938922832283 -2.51294063486349 -1.02557921012101
 1 -2.77020347724772 -0.97933624752475  2.19351004220422
 1 -2.37061066626663  1.83381696429643  1.21236188658866
 1 -1.77144160166017  1.16055650855085  3.43239695319532
 1 -3.18350341034103  2.37146120362036  3.44916708210821
 1 -3.43210665336534  0.62792747674767  3.83652606540654
 1 -1.95005749064906 -1.61503146354636 -0.17409131833183
 1 -2.18076974947495 -0.04848759835984 -0.66542658225823
 1 -0.32381589898990  0.60014462836284  0.94543494259426
 1 -0.30308811081108 -1.28855337053705  1.30692464766477
 1 -5.97531630703070  6.79228787288729  0.38022373157316
 1 -5.59468645804580  6.12527589068907  2.11319761686169
 1 -4.54981893789379  5.78373954035404  0.84748792439244
 1 -9.18023007550755  5.89301544964496 -0.68893912211221
 1 -9.03355457135714  8.00233097199720  0.59244886668667
 1 -7.98205767156716  7.30968736823682  1.79480786628663
 1 -11.95391949704971  3.01409173517352 -2.14804780948095
 1 -13.21493116231623  2.00656454765477 -1.56285747724772
 1 -12.46092782388239  2.98545720042004 -0.30437168116812
 1 -12.42220699909991 -1.80217966306631 -1.16157111201120
 1 -13.20364908380838 -0.35070180698070 -1.39906543404340
 1 -13.19947630023002 -1.44317900410041 -3.79112899739974
 1 -12.19722328652865 -0.06797133473347 -3.86226972267227
 1 -11.38109438873887 -1.59632449954996 -3.63429204920492
 1 -8.91586118911891 -4.93130387328733 -1.94167743184318
 1 -8.08888825362536 -5.77062706690669 -0.57009662266227
 1 -9.52551243614361 -4.93009803110311 -0.28708053065307
 1 -3.41230192609261 -3.33366661736174 -0.19421469296930
 1 -1.68510667716772 -4.49692613231323  3.60705362066207
 1 -2.93538314691469 -5.59603122072207  3.65588842774277
 1 -1.71785989748975 -6.10881015421542  2.80072402530253
 1  2.54139344344434 -1.62790462636264 -1.40954491949195
 1  2.88671614921492 -0.02268798919892 -1.92391554375438
 1  4.45299620522052 -1.02057427262726  0.34278749474948
 1  4.20987995149515  0.96116482688269 -2.65275364506451
 1  5.21580699239924  2.07899815871587 -2.09072554075408
 1  5.85531283888389  0.85823693119312 -3.03493222422242
 1  6.62407447034703  1.53129712971297  0.00705334813481
 1  6.35327944734473 -0.27906594399440  0.70082979967997
 1  7.42738012271227 -1.10353958915892 -1.33666499009901
 1  7.78517095299530  0.59919312741274 -1.97173009660966
 1  9.09391144274427  0.87017490249025  0.22528016021602
 1  8.65297378607861 -0.76204171037104  0.74252211591159
 1  10.46098364976498  0.22848538623862 -1.94115900540054
 1  9.40526551205120 -2.14571254775478 -2.15463138793879
 1  11.20809336503650 -2.17614439833983 -1.97416166006601
 1  9.91933481948195 -2.57630957295730 -0.45913535323532
 1  11.72225990689069  0.60703293349335  0.51940342784278
 1  11.28477153055306 -1.01982794409441  0.85668629022902
 1  12.90178349724973 -1.64019218041804 -0.99159682728273
 1  12.95557931043104 -0.08120742974297 -1.65269863116312
 1  13.82162359905991  0.94978753475348  0.52038938193819
 1  14.08573132623262 -0.84034363906391  1.12432894939494
 1  15.48646193469347  0.43553303830383 -1.32560691869187
 1  16.08427587048705 -2.43740403250325  0.01340988708871
 1  15.26575962666267 -2.10479285488549 -1.50607802290229
 1  16.55304493389339 -1.68086361126113 -1.45411688118812
 1  16.06959215991599  1.35162299599960  0.92544908920892
 1  16.61474592179218 -0.07400657575758  1.28643140434043
 1  18.32869380808081 -0.14847139453945 -0.52955629602960
 1  17.72036910141014  1.37200451935194 -1.17719129492949
 1  18.45777657025702  2.36156031373137  1.07643564886489
 1  18.78454561486149  1.08730291129113  1.73199319961996
 1  20.57964287698770  0.23925007320732 -0.04685762176218
 1  19.83669777637764  3.22907646954695 -1.23557715111511
 1  21.50192444454445  2.17978463126313 -1.20812217551755
 1  19.91747565196520  1.58345015581558 -1.85141211021102
 1  21.43703967916792  1.21005911501150  2.13299291649165
 1  22.24262596889689  1.89177040674067  0.84016898319832
 1  21.05204493439344  2.98207829112911  1.82421286178618

