%nproc=4
%Mem=2GB
# td=(NStates=1) CAM-B3LYP/6-31G(d,p) 

TD

0 1
12 -7.21216178917892  0.62767151525153  0.09646733413341
 6 -4.82189680768077 -1.94863604200420  0.54059059175918
 6 -4.81932186108611  2.83018146544654  1.10018638353835
 6 -9.35744047954795  3.11101659715972 -0.49876273597360
 6 -9.52706302000200 -1.69258476947695 -0.79081551065107
 7 -5.13143656825683  0.32218203630363  0.65612603090309
 6 -4.33648335443544 -0.73753357535754  0.83652167536754
 6 -2.85169417481748 -0.40784020972097  1.20230058425843
 6 -3.02809624802480  1.09828249654966  1.60798152885289
 6 -4.44793178807881  1.47184793359336  1.14644167406741
 6 -2.90071515361536  1.23403569166917  3.13303471237124
 6 -1.83287674867487 -0.58807406880688  0.12140609890989
 6 -0.34799222182218 -0.46551089828983  0.47397152645265
 6  0.51697283448345 -0.56020953385339 -0.69540492099210
 8  0.18892013211321 -0.95198060566057 -1.82178851055106
 8  1.83625543604360 -0.42865026142614 -0.30300708960896
 7 -7.14866531443144  2.61717730753075  0.26056475197520
 6 -6.08935821482148  3.38777975377538  0.80687422102210
 6 -6.45540279337934  4.77110139953995  0.83023371057106
 6 -7.79398210521052  4.91368199969997  0.33451184248425
 6 -8.12273654525453  3.49016821212121  0.03569611591159
 6 -5.51433939063906  5.85125759165917  1.05383014351435
 6 -8.50101789938994  6.07497853155316  0.14316130153015
 6 -8.40343423472347  7.30390650925093  0.79028527832783
 7 -9.10390266286629  0.65652851395140 -0.49736377007701
 6 -9.82325858555856  1.77926787988799 -0.66478280238024
 6 -11.26381547814781  1.44444278337834 -1.07837955745575
 6 -11.27902030593059  0.04842020612061 -1.27017573157316
 6 -9.95650133083308 -0.36406838113811 -0.85438045414541
 6 -12.21078990269027  2.42520309130913 -1.24372114691469
 6 -12.38086263256326 -0.79343675377538 -1.59187999649965
 6 -12.42053954235424 -1.08782119331933 -3.12870798939894
 7 -7.21048051635164 -1.46819643324332 -0.08615329232923
 6 -8.30231047084708 -2.23307847994799 -0.46128108330833
 6 -7.83754990059006 -3.63829209670967 -0.46819409670967
 6 -6.59976386048605 -3.57721205820582  0.04680294839484
 6 -6.21372396879688 -2.22115039633963  0.17479028322832
 6 -8.66401386878688 -4.84335717811781 -0.89934841324132
 6 -5.30000447074707 -4.39702358585859  0.22288516111611
 8 -5.20119895779578 -5.61148563196320  0.27018404910491
 6 -4.13642722212221 -3.37482327212721  0.46788665396540
 6 -3.53482411331133 -3.69129435073507  1.82847322022202
 8 -3.70618221882188 -3.07115385158516  2.89659234033403
 8 -2.66346754045405 -4.68195291769177  1.71664024492449
 6 -2.01202179007901 -5.19252348144814  2.82295723122312
 6  2.84948746044604 -0.70123791839184 -1.36275747614761
 6  4.10153224222422 -0.39786796309631 -0.57049719871987
 6  5.18090157455746  0.30784705010501 -1.02409218191819
 6  5.05682410541054  1.12131478077808 -2.24891905720572
 6  6.38881321412141  0.44818666886689 -0.16536302150215
 6  7.63608114601460 -0.15964631153115 -1.02540949144915
 6  8.84747662026203 -0.10851598199820 -0.15645745854585
 6  10.19985060956096 -0.46871394309431 -0.93663463396340
 6  10.16133283348335 -2.00838177427743 -1.32960642564256
 6  11.37944082098210 -0.13468724952495 -0.02575170657066
 6  12.79193410111011 -0.41723577467747 -0.74204422732273
 6  13.98647811621162 -0.07712891569157  0.14986205370537
 6  15.31728785368537 -0.21846557565757 -0.35639387918792
 6  15.55908757765777 -1.68326596039604 -0.82533215091509
 6  16.44842894879488  0.33251761176118  0.54296880408041
 6  17.85932052145214  0.34150554895490 -0.02346816141614
 6  18.77814818431843  1.28469668666867  0.74748518151815
 6  20.19446811601160  1.32601293479348  0.22659742294229
 6  20.42965431923193  2.07326562376238 -1.03354434713471
 6  21.06239717051705  2.07089002530253  1.39238460186019
 1 -4.07110859535954  3.45329085048505  1.42542712961296
 1 -10.21195158785879  3.97449828482848 -0.64002939443944
 1 -10.33556684608461 -2.37200654145415 -1.12608926112611
 1 -2.55010146704670 -0.96366468036804  2.19430012121212
 1 -2.34113771897190  1.76470005260526  1.04443509390939
 1 -1.96130058755876  0.91728218111811  3.38775248874887
 1 -3.39651471147115  2.18897295479548  3.35516768216822
 1 -3.55870931363136  0.49236392039204  3.62752516531653
 1 -1.83267575247525 -1.53726368676868 -0.45379928912891
 1 -2.16428810131013  0.17462471287129 -0.73500353995400
 1 -0.23583710111011  0.70537515141514  0.61393179227923
 1 -0.14142194419442 -1.02201671687169  1.42363631883188
 1 -5.78949772517252  6.59770841494149  0.32515822502250
 1 -5.55068205760576  6.16254961806181  2.02748904600460
 1 -4.61864582058206  5.50380154655466  0.42366554215421
 1 -9.48659071157116  5.96377252535253 -0.46322655085508
 1 -8.93918513441344  8.22662340124012  0.56350597239724
 1 -7.57737720352035  7.35302170167017  1.57424581008101
 1 -11.98916302140214  3.16605693169317 -2.08543154785479
 1 -13.17382705190519  2.06972086328633 -1.55373656515652
 1 -12.28311004210421  2.94060271497150 -0.32630387438744
 1 -12.30295507390739 -1.79386883198320 -0.93276823172317
 1 -13.34834355325533 -0.34609134593459 -1.26650217771777
 1 -13.37729408200820 -1.68029271547155 -3.17029691419142
 1 -12.38964252845285 -0.18855339293929 -3.82498599429943
 1 -11.39744602390239 -1.61885675277528 -3.51148976897690
 1 -8.82890249324933 -4.86352709560956 -2.03007627172717
 1 -8.25480484528453 -5.73475347954795 -0.72803241624162
 1 -9.69003888878888 -5.02418744004400 -0.41779360196020
 1 -3.37217791369137 -3.71973522422242 -0.15699097059706
 1 -1.18696686318632 -4.54985142484248  3.21900481578158
 1 -2.82243185178518 -5.07675929352935  3.83518635753575
 1 -1.58317642914291 -6.19109838303830  2.53966791969197
 1  2.76076538063806 -1.77565940184018 -1.61925589058906
 1  2.72333981158116 -0.06912263266327 -2.17282043424342
 1  4.12506341194119 -0.90742295749575  0.44156737273727
 1  4.05493445694569  1.24808351875188 -2.57762613231323
 1  5.59338475017502  2.11361162006201 -1.88780524872487
 1  5.60478778637864  0.42976408390839 -2.90725945694569
 1  6.81083314621462  1.29685368536854 -0.00293765096510
 1  6.53903802320232 -0.06229426682668  0.89873959065907
 1  7.23520090479048 -1.09927916311631 -1.41221254485449
 1  7.75758819471947  0.38534174227423 -1.87077000060006
 1  8.82181423302330  0.90779866486649  0.46053368556856
 1  8.59366785548555 -0.83865937213721  0.60927879157916
 1  10.40575812721272  0.13925646334633 -1.86408129762976
 1  9.29070405590559 -2.30002797929793 -2.05063098789879
 1  11.12459501520152 -2.38372515641564 -1.90397464136414
 1  9.93362624862486 -2.61825376737674 -0.57648708840884
 1  11.56762444334433  0.92744497469747  0.32288377587759
 1  11.49248230163016 -0.74165012631263  0.94649527112711
 1  12.79505282418242 -1.50195835703570 -1.02912057965797
 1  12.73349710221022  0.11733242424242 -1.54469783108311
 1  13.61508294499450  0.91961451745175  0.34934227722772
 1  13.91965471857186 -0.55886549124913  1.20790730723072
 1  15.60530381888189  0.39486897189719 -1.28083244124412
 1  15.55303274617462 -2.42185247734774  0.01888043414341
 1  14.96083913461346 -2.04488686428643 -1.38683609870987
 1  16.66831646104611 -1.98967449234923 -1.12854432393239
 1  16.32768796949695  1.19034686838684  0.94499104340434
 1  16.47847229442944 -0.19201837693769  1.34950771197120
 1  18.39782072077208 -0.74482102950295 -0.19681302170217
 1  17.78335540004000  0.71712903180318 -1.14977855365537
 1  18.32591338393840  2.28015217291729  0.80472847814781
 1  18.97321448174818  0.91370555155516  1.74078407870787
 1  20.58893380608061  0.45391153935394  0.08730579457946
 1  20.20634474107410  3.15421898379838 -0.78642223562356
 1  21.34828908100810  2.00954760756076 -1.40371173447345
 1  19.84812871727173  1.79949175997600 -2.02193916291629
 1  21.10229620482048  1.63855196429643  2.33449306650665
 1  22.13636534283428  2.23662489218922  0.92012697899790
 1  20.62539226912691  3.06283636693669  1.49491993249325

