%nproc=4
%Mem=2GB
# td=(NStates=1) CAM-B3LYP/6-31G(d,p) 

TD

0 1
12 -7.06575714871487  0.57839658775878  0.11004869226923
 6 -4.80539515751575 -1.93422460086009  0.52492902560256
 6 -4.84492442134213  2.89822827012701  1.19953631853185
 6 -9.35724045954595  3.07134262976298 -0.41211407110711
 6 -9.56315662936294 -1.76768227922792 -0.79562599169917
 7 -5.17501092569257  0.51573139123912  0.71570198849885
 6 -4.35520522662266 -0.67524734673467  0.69295731893189
 6 -2.89009801520152 -0.43350277597760  1.04923527772777
 6 -3.04237767616762  1.05550821912191  1.71135186588659
 6 -4.37797479237924  1.58702945174517  1.09631666156616
 6 -2.90844592669267  1.26070835893589  3.10391180008001
 6 -1.89629309030903 -0.49432469386939 -0.15585162686269
 6 -0.46540396299630 -0.46143049024902  0.46023015231523
 6  0.55776691389139 -0.61943545644564 -0.75444082458246
 8  0.27978921902190 -0.92998840644064 -1.87718405010501
 8  1.84172598309831 -0.46482387878788 -0.33610039893989
 7 -7.08430887878788  2.62083767356736  0.26612530803080
 6 -6.10318959795980  3.41330230603060  0.71640517411741
 6 -6.43465071817182  4.85659994939494  0.80301098829883
 6 -7.71915462246225  4.91793242474247  0.38491688298830
 6 -8.10764503610361  3.51978117341734  0.12155470177018
 6 -5.59812776947695  5.95516798269827  1.20929569006901
 6 -8.64454225182518  6.02526356005601  0.18955594099410
 6 -8.68185207650765  7.24214033263326  0.71118736853685
 7 -9.07710998359836  0.55686854795480 -0.41841587528753
 6 -9.78085434513451  1.74296424952495 -0.65841216531653
 6 -11.11119021562156  1.44441278037804 -1.08826054555456
 6 -11.16038844274427  0.01373673777378 -1.25409412341234
 6 -9.88064374507451 -0.49827180148015 -0.78961397749775
 6 -12.13223204690469  2.44974554555456 -1.39571634643464
 6 -12.35604015031503 -0.77526493659366 -1.77798860736074
 6 -12.26320380878088 -1.30326273747375 -3.25655077367737
 7 -7.20362983128313 -1.38329794339434 -0.02700737773777
 6 -8.27260750055006 -2.24607978007801 -0.37346230143014
 6 -7.77084322992299 -3.60269853735374 -0.39049632693269
 6 -6.52320620472047 -3.51353569056906 -0.03054478637864
 6 -6.19386198259826 -2.16797507880788  0.17036984118412
 6 -8.68631609900990 -4.78558140054005 -0.72722120052005
 6 -5.30843531383138 -4.36675055855586  0.22263513611361
 8 -4.99482832073207 -5.50624510791079  0.04047107780778
 6 -4.19365294469447 -3.25980176997700  0.59907977327733
 6 -3.48461909280928 -3.57777299859986  1.87586795969597
 8 -3.62996459705971 -3.03078981518152  2.95773845494549
 8 -2.72203339703970 -4.70940566296630  1.75153373427343
 6 -2.03313390129013 -5.24414864396440  2.88667360286029
 6  2.86779929162916 -0.60386818141814 -1.29564076447645
 6  4.15455754475447 -0.51090926722672 -0.57341749074907
 6  5.11565504990499  0.30137640304030 -0.97693746644664
 6  5.10962938593859  1.28861151045105 -2.14148831413141
 6  6.38936326912691  0.39787163736374 -0.09247573277328
 6  7.59945748364837 -0.19162950985099 -0.89289624012401
 6  8.92161403400340 -0.13247837823782 -0.15968778157816
 6  10.12561318581858 -0.63765083678368 -0.86321729222922
 6  10.01826852705270 -2.13620455655566 -1.19239270427043
 6  11.35104798169817 -0.41085486628663  0.07324819341934
 6  12.66217112481248 -0.68199225032503 -0.63170319321932
 6  13.91042051045105 -0.19106030883088  0.17370443794379
 6  15.23170929582958 -0.32217594669467 -0.49847808760876
 6  15.62068373727373 -1.74115174897490 -0.88524814251425
 6  16.43803790969097  0.37186154615462  0.42598710591059
 6  17.68017260666067  0.59153055145515 -0.20274608920892
 6  18.76968733823382  1.26879509650965  0.78539897289729
 6  20.21795046424642  1.41503183668367  0.24143890709071
 6  20.28805015881588  2.35909420662066 -1.07267826052605
 6  21.13477440824083  1.93138607490749  1.27459282268227
 1 -3.82231371587159  3.56787230863086  1.49990457735774
 1 -10.00708110081008  3.83222405740574 -0.32830822232223
 1 -10.50267355675568 -2.40845018581858 -1.02138879107911
 1 -2.56610306720672 -1.01473978787879  1.77849854105411
 1 -2.30287389258926  1.79229281188119  1.24274492489249
 1 -1.83716817431743  0.95139559245925  3.45926964046405
 1 -2.98620368036804  2.23832789028903  3.39102126752675
 1 -3.50565400810081  0.54929961396140  3.69026143894389
 1 -2.12107459235924 -1.34672463286329 -0.79563347254725
 1 -2.09515118761876  0.52780003040304 -0.79732977257726
 1 -0.07737125452545  0.54822943684368  1.13611401050105
 1 -0.21638944094409 -1.43846836203620  1.07669162436244
 1 -5.86854562996300  6.88048669276928  0.92431814101410
 1 -5.57126411581158  5.77332069516952  2.36587288438844
 1 -4.47588154415442  5.94196536293629  0.85503867946795
 1 -9.24558661116112  6.10274642274227 -0.74286451465147
 1 -9.31565278117812  8.22158289718972  0.43185280708071
 1 -8.12541200700070  7.49789618911891  1.69396778227823
 1 -11.98804290939094  2.95073539953995 -2.49036204090409
 1 -13.28044771397140  2.12856674787479 -1.46200739223922
 1 -12.16111784288429  3.01453010771077 -0.49315055905591
 1 -12.53503828222822 -1.64529397449745 -1.15778073297330
 1 -13.37879659855986 -0.14146088288829 -1.70272580008001
 1 -13.14866121872187 -1.95119980618062 -3.45650553505351
 1 -12.58851241544155 -0.48658319591959 -4.12561605730573
 1 -11.27098337763777 -1.83851871897190 -3.40397901790179
 1 -9.17782738573857 -4.64739548244825 -1.64155741984198
 1 -8.02079144394439 -5.80173017721772 -0.64116372937294
 1 -9.58879876477648 -4.98561358265827 -0.18134995759576
 1 -3.27120781668167 -3.28898214891489 -0.25734100560056
 1 -1.35645381188119 -4.39796623632363  3.09171208650865
 1 -2.87680728932893 -5.41352296989699  3.68687152605260
 1 -1.68062617411741 -6.29517879107911  2.59400335323532
 1  2.70293959805981 -1.68486032193219 -1.58434239923992
 1  2.88806628422842  0.35621990159016 -1.99835298749875
 1  4.31842274787479 -1.04468668386839  0.35876909290929
 1  4.13191215471547  1.45636434683468 -2.53085145484549
 1  5.51547695939594  2.18568882778278 -1.77016348454845
 1  5.67550485808581  0.78323943144314 -2.98745747674767
 1  6.67273933683368  1.45856985698570  0.19068171097110
 1  6.07203132253225 -0.16674471187119  0.83442315901590
 1  7.29585697039704 -1.11316055125513 -1.19074039763976
 1  7.57778021392139  0.54973818191819 -1.94909783338334
 1  8.96607865946595  0.82644052905291  0.41939957215722
 1  8.53928241694170 -0.89582508870887  0.66406427012701
 1  10.21138869026903 -0.03693115541554 -1.74060895039504
 1  9.23067805330533 -2.26738471497150 -1.96826275107511
 1  10.91356391209121 -2.54301108500850 -1.66617086098610
 1  9.61866475247525 -2.72895483748375 -0.11729116881688
 1  11.25820350125013  0.68540077027703  0.49571105860586
 1  11.32708576197620 -0.94508046934693  0.98822944454445
 1  12.77383070197020 -1.70742890409041 -0.97233490109011
 1  12.78028178067807 -0.21343065206521 -1.60921428272827
 1  13.52109354605460  0.92575513151315  0.52271961496150
 1  13.74405715881588 -0.93308291299130  0.97550406690669
 1  15.35335862436244  0.23127261226123 -1.47882224022402
 1  15.73973141604160 -2.20121041314131  0.12662120822082
 1  14.87658070877088 -2.31109348494850 -1.44599201430143
 1  16.57445707510751 -1.85314083898390 -1.35552702220222
 1  16.12440764146415  1.41149898359836  0.73942048634864
 1  16.29820426762676 -0.24355353045305  1.40854361556156
 1  18.09096003470347 -0.39383593099310 -0.47403074347435
 1  17.60171723622362  1.13104042294229 -1.18238181398140
 1  18.48996978957896  2.43402756045605  0.93041104640464
 1  18.78378553885389  0.99688386938694  1.87626762706271
 1  20.66875178787879  0.42298844704470 -0.02567550355035
 1  19.80386449304930  3.15072863476348 -0.61863545694569
 1  21.23560781288129  2.38625527832783 -1.46331769506951
 1  19.72944684908491  1.85400721152115 -1.93291026002600
 1  21.12971894709471  1.19899800890089  2.20474009120912
 1  22.11322302860286  2.00501173087309  0.92721768806881
 1  20.87781751165117  3.04810489378938  1.60058049854986

