%nproc=4
%Mem=2GB
# td=(NStates=1) CAM-B3LYP/6-31G(d,p) 

TD

0 1
12 -7.17033760676068  0.58113686178618  0.05561324872487
 6 -4.87667228522852 -2.04232541094109  0.53568010071007
 6 -4.86629655855586  2.76891533883388  1.26876324122412
 6 -9.45046978247825  3.06130162566257 -0.38830168986899
 6 -9.54171448514852 -1.68368387938794 -0.86625305440544
 7 -5.17395081968197  0.37451726982698  0.60981139943994
 6 -4.31918162426243 -0.76781660366037  0.70188821202120
 6 -2.92005101050105 -0.36712613831383  1.20780113431343
 6 -3.06045948434843  1.14059672797280  1.63189392009201
 6 -4.46502349724972  1.43975472427243  1.15650268016802
 6 -2.88926400850085  1.33290557865787  3.16400780968097
 6 -1.93944740574057 -0.57878313971397  0.02670662896290
 6 -0.51796921952195 -0.35323967116712  0.55845997529753
 6  0.55007614481448 -0.62097561046105 -0.61021640214021
 8  0.17166840694069 -1.01448685628563 -1.72652898459846
 8  1.78866067656766 -0.41588898529853 -0.21558834773477
 7 -7.22387283518352  2.55771136093609  0.33534222972297
 6 -6.03575285428543  3.43233420922092  0.74481801540154
 6 -6.40339759285929  4.68089237863786  0.77607829502950
 6 -7.81579428642864  4.72828345984598  0.35943433473347
 6 -8.17978224982498  3.43072226752675  0.04519706600660
 6 -5.55998395509551  5.90110257615762  1.10922568306831
 6 -8.58895669326933  5.98582961666167  0.16525351075108
 6 -8.37738162946295  7.27778389698970  0.67622387218722
 7 -9.10320259285929  0.70178303940394 -0.47112114581458
 6 -9.87626388608861  1.78722867596760 -0.61894821892189
 6 -11.20598969556956  1.43652199129913 -1.09138085758576
 6 -11.20116252015202  0.09108447254725 -1.20640935493549
 6 -9.83809949064906 -0.37584955925593 -0.84437945404540
 6 -12.29608843254325  2.46111668266827 -1.43597037183718
 6 -12.32358690499050 -0.77303471357136 -1.71724253275328
 6 -12.28487597599760 -0.97439985118512 -3.28093321192119
 7 -7.27385685398540 -1.38322793639364 -0.20256493349335
 6 -8.25986622642264 -2.21509668176818 -0.42381733693369
 6 -7.98270441604160 -3.63149141664166 -0.45177245454545
 6 -6.58471235533553 -3.57346168316832 -0.05184691659166
 6 -6.18806140254025 -2.20666894819482  0.09588239243924
 6 -8.70212768016802 -4.83738658105811 -0.74114259265927
 6 -5.38059252955296 -4.41257514101410  0.26216908950895
 8 -5.21056989488949 -5.59456393979398  0.25971300200020
 6 -4.21976555595560 -3.41441723152315  0.44512437773777
 6 -3.57900853175318 -3.71133635493549  1.81630200310031
 8 -3.75803740434043 -3.15943267946795  2.89490217131713
 8 -2.65949714341434 -4.71823654605461  1.71458003890389
 6 -2.19434002190219 -5.23770799989999  2.91810674617462
 6  2.77960047174717 -0.73445123972397 -1.30555175557556
 6  4.07199928892889 -0.49542771907191 -0.56189633863386
 6  5.08055153955396  0.29948621402140 -0.85207498019802
 6  5.09358778177818  1.19640228952895 -2.18217238253825
 6  6.35485981878188  0.35753760396040 -0.14290077527753
 6  7.65583312121212 -0.05704605150515 -0.86983393389339
 6  8.92823469606961 -0.08107323772377 -0.06727854065407
 6  10.16994761926193 -0.49374644634463 -0.95425639613961
 6  10.17093379357936 -1.97089802590259 -1.32290575557556
 6  11.39720259715972 -0.09287306810681 -0.07144627602760
 6  12.85274018171817 -0.31679573067307 -0.62456247914791
 6  14.05572504090409 -0.01547275007501  0.25158222572257
 6  15.40977710261026 -0.11170489958996 -0.32487072687269
 6  15.65968763766377 -1.65905353915392 -0.58657827552755
 6  16.56347045294530  0.53490785078508  0.45757026422642
 6  17.90323491289129  0.47725912431243 -0.16996281088109
 6  18.94181455095510  1.27868608560856  0.63889432243224
 6  20.28056672587259  1.26834716821682  0.04081884508451
 6  20.35584693849385  2.09543784098410 -1.18022901560156
 6  21.30652158295830  1.69956289258926  1.23714907830783
 1 -3.98766025052505  3.52319784118412  1.63601818871887
 1 -10.19545993869387  3.93439427442744 -0.50206559805981
 1 -10.35755904530453 -2.42400174097410 -1.28865551775178
 1 -2.71373783068307 -0.94721303520352  2.00579127032703
 1 -2.33630723592359  1.84938852145215  1.03100375077508
 1 -1.80172462996300  1.03550400330033  3.22666638013801
 1 -3.03187824782478  2.30936499399940  3.66021818721872
 1 -3.41515495819582  0.54848953295330  3.82210462326233
 1 -1.99743222812281 -1.48738869926993 -0.48630253945395
 1 -1.97379905240524  0.14801205160516 -0.72272231183118
 1 -0.46275979337934  0.60128474237424  0.89974037313731
 1 -0.33960176217622 -1.14092860806081  1.17549150435044
 1 -5.84944371977198  6.73069171327133  0.49624533373337
 1 -5.73363035243524  6.20804416751675  2.13657995509551
 1 -4.55367932393239  5.41678284468447  0.86477965356536
 1 -9.33331538403840  5.86454260236024 -0.58832906110611
 1 -8.82354357025702  8.05691643054305  0.30326994879488
 1 -7.65598506430643  7.41013741324132  1.22709109460946
 1 -11.79127323242324  3.31706203220322 -2.10730373507351
 1 -13.11236090529053  1.85437932913291 -1.96394758625863
 1 -12.80404213531353  2.76068472317232 -0.38900014401440
 1 -12.21032581098110 -1.65709515461546 -1.25704065896590
 1 -13.25553427232723 -0.31501823862386 -1.53468899639964
 1 -13.04618097069707 -1.53549823602360 -3.68435832033203
 1 -12.46291985618562  0.10579604200420 -3.63193668936894
 1 -11.29860613991399 -1.47349221632163 -3.39524814481448
 1 -8.91909151215122 -4.71611235413541 -1.73662692679268
 1 -8.13527289208921 -5.66769677387739 -0.64883449644964
 1 -9.54204408930893 -4.68361338263826 -0.42721454405441
 1 -3.36614731063106 -3.41614486518652 -0.25941121262126
 1 -1.70383855035504 -4.56533297299730  3.66028894419442
 1 -2.79904951355136 -5.53779539713971  3.70792363126313
 1 -1.28964707620762 -6.04539381258126  2.61781573447345
 1  2.75102440654066 -1.73776561246125 -1.72086605160516
 1  2.62567004460446 -0.13503922432243 -2.11229438163816
 1  4.28378928452845 -1.24554676987699  0.18635185118512
 1  4.22539150265026  1.31940065046505 -2.65450382008201
 1  5.27635304700470  2.32408266716672 -2.06151261946195
 1  5.77438474607461  0.74006511401140 -2.94220295129513
 1  6.48060012291229  1.34110811081108  0.29563220602060
 1  6.00717483688369 -0.24320235763576  0.80988070477048
 1  7.49199658435844 -1.03572280748075 -1.18271959555956
 1  7.69365180108011  0.52544575267527 -1.74280720432043
 1  9.28297034863486  1.02016990199020  0.25518315051505
 1  8.98264675337534 -0.76488199439944  0.74105196889689
 1  10.16211376277628  0.11106364406441 -1.78244313381338
 1  9.08959394489449 -2.13449142564256 -1.77940386518652
 1  10.88233078877888 -2.16046283018302 -2.05055929982998
 1  10.48093097909791 -2.72295423742374 -0.43209264896490
 1  11.12538021892189  0.96840907110711  0.17834932243224
 1  11.53799685308531 -0.59329529082908  0.78945956755676
 1  12.81521484038404 -1.30688885008501 -0.99596726432643
 1  13.03856760926092  0.20378106910691 -1.55314867616762
 1  13.76936837353735  1.05869842584258  0.51352869586959
 1  13.93650640374037 -0.54513411811181  1.30142665916592
 1  15.40964425292529  0.30420990599060 -1.26214057205721
 1  15.84719216211621 -2.28957925002500  0.38897744384438
 1  14.68900195089509 -2.14486686228623 -0.97135455055506
 1  16.60837046644665 -1.70512603750375 -1.28841031053105
 1  16.00162536323632  1.37619545324532  0.62579912421242
 1  16.79365381258126  0.01679250415041  1.46733949514952
 1  18.22945388408841 -0.51939848724872 -0.22817615801580
 1  17.81947901240124  0.83447076597660 -1.27741131693169
 1  18.64986577917792  2.33302746044604  0.71389939523952
 1  19.06624378467847  0.90756493749375  1.77669767006701
 1  20.60615552825282  0.26972312051205 -0.25073800980098
 1  20.06542064866487  3.24908847074707 -0.98446203960396
 1  21.44857911001100  2.09393604640464 -1.62566392969297
 1  19.76407031143114  1.71688349914992 -2.07148411741174
 1  21.31932790799080  1.00503861296130  2.14201381858186
 1  22.53746545284528  1.84506573627363  0.90548551485149
 1  20.96897662756276  2.61070115341534  1.47317775827583

