%nproc=4
%Mem=2GB
# td=(NStates=1) CAM-B3LYP/6-31G(d,p) 

TD

0 1
12 -7.16791736473647  0.60515926402640  0.11871955935594
 6 -4.85475009300930 -1.88258943734373  0.53062959565957
 6 -4.91031095999600  2.86517496479648  1.07000336523652
 6 -9.49944467996800  3.05652114761476 -0.22202506220622
 6 -9.51094140784078 -1.81862737373737 -1.03866029512951
 7 -5.06570999559956  0.40856067416742  0.63249366766677
 6 -4.30818052415242 -0.72081190319032  0.89952797599760
 6 -3.00958996439644 -0.29184861056106  1.21673202740274
 6 -3.11058449684968  1.21269393769377  1.69095982668267
 6 -4.52945994089409  1.49179992879288  1.08419544944494
 6 -3.05078016011601  1.30948323642364  3.23710511941194
 6 -1.92266572757276 -0.51129639103910  0.09956391469147
 6 -0.46518394099410 -0.39698404560456  0.55778990829083
 6  0.57338847604760 -0.50389390229023 -0.55710109060906
 8  0.19245048514851 -0.80778618621862 -1.70820715241524
 8  1.75637744824482 -0.38517591399140 -0.21959874877488
 7 -7.13065351325133  2.61570716051605  0.29144784028403
 6 -6.11448072707271  3.43045402120212  0.66206974057406
 6 -6.51046829992999  4.73598788818882  0.72300298749875
 6 -7.87745045204520  4.94514514601460  0.34436282758276
 6 -8.21876614821482  3.47293648894889  0.07683022932293
 6 -5.57539549624962  5.86018848474848  1.06306106660666
 6 -8.62376017361736  6.05095612931293  0.22640962636264
 6 -8.56292018331833  7.18166428502850  0.86640289008901
 7 -9.19820209280928  0.64856771787179 -0.45949998369837
 6 -9.89059531923192  1.76061601470147 -0.58146447054705
 6 -11.22014111071107  1.40341868096810 -1.15122684218422
 6 -11.19556196009601 -0.05010964686469 -1.29223793779378
 6 -9.87986366706671 -0.45294726902690 -0.91408642474247
 6 -12.35699452315231  2.34297486848685 -1.24368114291429
 6 -12.36060060636064 -0.91105851595160 -1.77757856635664
 6 -12.17309479787979 -1.12138454965497 -3.29338445704570
 7 -7.19898936723672 -1.39935954955496 -0.17093177017702
 6 -8.19942018181818 -2.22897806990699 -0.65710066526653
 6 -7.72797894349435 -3.66470473797380 -0.60456773407341
 6 -6.46899078317832 -3.62744708170817 -0.06635836773677
 6 -6.19547214361436 -2.19972825412541  0.09328213241324
 6 -8.54933240064006 -4.88767160956096 -1.05312379077908
 6 -5.33515798609861 -4.34718860236024  0.24232710531053
 8 -5.08350718861886 -5.60198468186819  0.23866089678968
 6 -4.10689426882688 -3.34053984378438  0.61337120242024
 6 -3.44394502540254 -3.61186640794079  1.95324569746975
 8 -3.72150375097510 -2.94373110931093  3.03556623772377
 8 -2.72773396709671 -4.69501422382238  1.84326290719072
 6 -2.11340192809281 -5.06527075617562  3.05808074357436
 6  2.76746925862586 -0.62089988458846 -1.29808100850085
 6  4.15315740474047 -0.47249542584258 -0.61446159515952
 6  5.12514599899990  0.42391865726573 -1.06110588328833
 6  5.12247067006701  1.26941959125913 -2.14106827212721
 6  6.41078541134113  0.42515436563656 -0.18598508370837
 6  7.60437797569757 -0.15094544144414 -0.85302225272527
 6  8.97676954955496 -0.03218834923492 -0.01802361516152
 6  10.23533415791579 -0.55795286698670 -0.79964093459346
 6  9.99389608980898 -2.09246018211821 -1.13091655665567
 6  11.50075295219522 -0.37349112991299 -0.01989112051205
 6  12.79713462116212 -0.53825787688769 -0.80653067596760
 6  14.07781725012501 -0.30991219401940  0.12102917041704
 6  15.42375850075008 -0.19768349744974 -0.58989722952295
 6  15.73234490339034 -1.66195382918292 -1.07912753045305
 6  16.47941204710471  0.38430279027903  0.31904641184118
 6  17.76968155755575  0.48699009740974 -0.19324513911391
 6  18.82357272677268  1.18789700670067  0.78847928092809
 6  20.30558922812281  1.25817615111511  0.22203696689669
 6  20.40209156295630  1.94471276847685 -1.08253924662466
 6  21.21539247004701  2.03594653095310  1.36268163156316
 1 -4.09102058655866  3.34868038943894  1.41751633853385
 1 -10.30434082678268  3.83815465046505 -0.27356274777478
 1 -10.17172046144614 -2.45969531033103 -1.40489714191419
 1 -2.83126958385839 -0.79303761766177  2.07824851605160
 1 -2.13828743394339  1.76025960856086  1.38981963236324
 1 -2.09376383388339  0.89509996289629  3.63056677017702
 1 -3.11511657165717  2.45001905940594  3.62814497989799
 1 -3.74530797349735  0.76574125812581  3.65353776657666
 1 -2.03413589848985 -1.62629258965897 -0.31487539673967
 1 -2.10251192369237  0.23483073347335 -0.74964500410041
 1 -0.42187570497050  0.60769538343834  0.91760215931593
 1 -0.12625042704270 -0.93740825602560  1.55598955415542
 1 -5.80548932433243  6.78591723582358  0.40631634083408
 1 -5.67054404380438  5.88703206630663  2.17050334743474
 1 -4.49192314831483  5.72694386078608  0.88201137673767
 1 -9.22658471097110  6.07441358945895 -0.55908613681368
 1 -9.04004522042204  8.17351809070907  0.70998061986199
 1 -7.94931439723972  7.20618701820182  1.63752213771377
 1 -11.86675078017802  3.19706003200320 -1.93776678137814
 1 -13.22168183738374  1.94924881608161 -1.62414360586059
 1 -12.44368609970997  3.00642929762976 -0.43575481948195
 1 -12.46823160156016 -1.87355680078008 -1.12813776867687
 1 -13.35116383528353 -0.36944368116812 -1.62354788228823
 1 -12.80114646724672 -1.88989367556756 -3.72611249574957
 1 -12.35828939313932 -0.13938847644765 -3.79057255295530
 1 -11.06588286758676 -1.39009387648765 -3.56459507950795
 1 -8.64519412241224 -4.80282102500250 -2.17060032413241
 1 -7.96868623342334 -5.74569457365737 -0.95527514051405
 1 -9.50735061996200 -4.99816483778378 -0.40443226582658
 1 -3.30997169306931 -3.47860111081108 -0.21463673517352
 1 -1.41875004150415 -4.22631907160716  3.25505842114211
 1 -2.87879748834883 -5.49970158775878  3.81058389728973
 1 -1.51436954845485 -5.80309958315832  2.71943589648965
 1  2.49292859695970 -1.48953078897890 -1.65730969596960
 1  2.67422490009001  0.10220450005001 -2.01797494969497
 1  4.18254916051605 -1.08523073827383  0.24025724172417
 1  4.14474343784379  1.10264897529753 -2.85812418211821
 1  5.17082249394939  2.26269652855285 -2.06825329352935
 1  5.97645495309531  1.06978808630863 -2.84356308730873
 1  6.41996405930593  1.40414441444144  0.19408205100510
 1  6.21317543694370 -0.18265630303030  0.65908562526253
 1  7.56034341904190 -1.22358159335934 -0.95596692029203
 1  7.71805424132413  0.36555976407641 -1.95606853045305
 1  9.21612366396640  0.79481736673667  0.47116474867487
 1  9.02095058375838 -0.84974048024802  0.77373523722372
 1  10.32420997239724 -0.11723918621862 -1.72185707520752
 1  9.17896288178818 -2.19982795929593 -1.92569849464947
 1  10.88137069276928 -2.65603238713871 -1.64386863076308
 1  9.79778266426643 -2.59007094909491 -0.30320976067607
 1  11.43262094299430  0.64750698089809  0.38674016151615
 1  11.50682373577358 -1.08554451575158  0.85544616621662
 1  12.79489280818082 -1.51356951815182 -1.17272494009401
 1  12.48486223872387  0.30524121512151 -1.61088444974498
 1  13.81798323502350  0.61389394539454  0.59296663966397
 1  13.87234998809881 -1.08867847254725  0.96109262576258
 1  15.14836812531253  0.53721320632063 -1.47225158315832
 1  15.99087653055306 -2.42765305740574 -0.17909936383638
 1  14.96130918161816 -2.22656503210321 -1.66952436753675
 1  16.74795442484249 -1.71308683358336 -1.79488095759576
 1  16.16201140184018  1.49437727142714  0.81213775807581
 1  16.64597904510451 -0.18570774587459  1.20224298549855
 1  17.96219715841584 -0.57611415881588 -0.38705204560456
 1  17.82344940944095  0.94825214411441 -1.03845742154215
 1  18.51880267286729  2.09538369606961  1.19405741104110
 1  18.91794895519552  0.58573275427543  1.56794679497950
 1  20.82559747244725  0.21883803200320  0.15879294329433
 1  20.07834194079408  3.11137469936994 -0.95718931233123
 1  21.41909616171617  2.10495714851485 -1.31025238853885
 1  20.04823872827283  1.54259607040704 -1.85246221522152
 1  21.07504347954795  1.46807491659166  2.39939955715572
 1  22.19453115941594  1.95991722142214  1.01080604690469
 1  21.09719944984499  3.00475055835584  1.78073851435144

