%nproc=4
%Mem=2GB
# td=(NStates=1) CAM-B3LYP/6-31G(d,p) 

TD

0 1
12 -7.12115268826883  0.51623037113711  0.04588227562756
 6 -4.83342796079608 -2.05570674907491  0.55198173087309
 6 -4.72358228712871  2.73991243854385  1.16743310821082
 6 -9.28881361686169  3.10225572107211 -0.60456331603160
 6 -9.46707702140214 -1.72619813081308 -0.90091652075208
 7 -5.08797222182218  0.35244506260626  0.73668408670867
 6 -4.25385509160916 -0.74461428342834  0.83810183338334
 6 -2.92644164956496 -0.44002342804280  1.27852820702070
 6 -3.05016845524552  1.02620528882888  1.78220895159516
 6 -4.37978497339734  1.42503325212521  1.22243927382738
 6 -2.98790387248725  1.18242053015302  3.28730013891389
 6 -1.96839030003000 -0.58083334473447  0.11558551685168
 6 -0.49601702430243 -0.57073142034203  0.59197332663266
 6  0.45724686188619 -0.66957046994699 -0.70485586608661
 8  0.16153739383938 -0.81892730033003 -1.87305363706371
 8  1.80401221172117 -0.67235463186319 -0.25047183608361
 7 -7.06879732763276  2.62687827762776  0.38624732023202
 6 -5.96950622962296  3.31927290309031  0.78964249784979
 6 -6.42346960006001  4.74251854125413  0.79905059225923
 6 -7.63134584158416  4.89602023352335  0.25263365466547
 6 -8.02913718531853  3.47580677597760 -0.10380783448345
 6 -5.50749870657066  5.94638710461046  1.26496125662566
 6 -8.43839163676368  5.99663069676968  0.15807279267927
 6 -8.41382527382738  7.12446856545655  0.86088233803380
 7 -9.09280155275528  0.72676553765377 -0.68386241994199
 6 -9.87518377807781  1.81352130523052 -0.75199152325233
 6 -11.13464256085608  1.47551589068907 -1.21348306780678
 6 -11.20986339023902  0.10532589668967 -1.29503821782178
 6 -9.91283696439644 -0.38337031133113 -0.88535355145515
 6 -12.13638246194619  2.54504507550755 -1.59104587938794
 6 -12.36887143344334 -0.76338374847485 -1.72029283778378
 6 -12.33162065046505 -0.95619803100310 -3.23997911651165
 7 -7.22626209450945 -1.32427204080408 -0.17227190419042
 6 -8.24988522832283 -2.24421959405941 -0.56287124232423
 6 -7.79936608220822 -3.59469773727373 -0.50663794109411
 6 -6.53264714881488 -3.58063240024002  0.04768303640364
 6 -6.08979157555756 -2.16701498279828  0.17680048424843
 6 -8.63743121052105 -4.80955379777978 -0.89158763716372
 6 -5.38461293159316 -4.37960184368437  0.36089896249625
 8 -5.34286312421242 -5.58464294769477  0.45103213391339
 6 -4.21197477687769 -3.42661845164516  0.61173103840384
 6 -3.54180481138114 -3.70922614391439  1.94379475237524
 8 -3.91408300890089 -3.08368510471047  2.99781246234623
 8 -2.76191738543854 -4.78332305470547  1.87122570347035
 6 -2.19021960986099 -5.23182741184118  3.07728266376638
 6  2.74477698939894 -0.68487628222822 -1.23076427682768
 6  4.09722181118112 -0.47465564186419 -0.62905305430543
 6  5.02777626202620  0.39707597299730 -0.96391616431643
 6  5.04735315831583  1.36342899219922 -2.11352551785179
 6  6.42873720652065  0.49041089128913 -0.22419890509051
 6  7.59110664856486 -0.15462580948095 -0.99879683018302
 6  8.78903077567757 -0.04035916631663 -0.15446725952595
 6  10.13370399489949 -0.50608768046805 -0.93410438093809
 6  10.07463416361636 -1.88698963506351 -1.51914537953795
 6  11.40491336823682 -0.23520730153015 -0.09506863826383
 6  12.81820672837284 -0.43792784388439 -0.68259828272827
 6  14.01738120652065 -0.06430763356336  0.13639070657066
 6  15.39663578847885 -0.20500422952295 -0.51263950375038
 6  15.69500116901690 -1.67025465926593 -1.02734235193519
 6  16.55665977187719  0.20913527352735  0.52445695289529
 6  17.81570616001600  0.40523192159216 -0.10762657725773
 6  18.80899126862686  1.23843206020602  0.78862929592959
 6  20.26540520972097  1.41188152165217  0.30905566876688
 6  20.34380573437344  2.02315061226123 -1.06591758445845
 6  21.08655958675868  2.24754769106911  1.27784314771477
 1 -4.06797828232823  3.55063058445845  1.61785637253725
 1 -10.12669306200620  3.85001583658366 -0.79858525002500
 1 -10.42275556495650 -2.41140048084808 -1.14184083628363
 1 -2.59773623052305 -1.08914722862286  2.02360305150515
 1 -2.22377598279828  1.70138372097210  1.17897854825483
 1 -2.07148160566057  0.81109156205621  3.68806251975198
 1 -3.25291035103510  2.09548360586059  3.84809697509751
 1 -3.65306874957496  0.64419910391039  3.71443385618562
 1 -2.19378186308631 -1.44667462786279 -0.26590049924992
 1 -1.93216488898890  0.10458770917092 -0.68193823342334
 1 -0.49316283368337  0.44499911381138  0.91345174427443
 1 -0.27316511851185 -1.43066758195820  1.28939289448945
 1 -5.88233700910091  6.75393403750375  0.55812152135214
 1 -5.60303729312931  6.27627099019902  2.29210550765076
 1 -4.47755171117112  6.00342150855086  1.08027120272027
 1 -9.26002805530553  5.98000414851485 -0.80095032323232
 1 -9.10320153605361  7.75791653055305  0.46264588638864
 1 -7.94115358115812  7.51344774427443  1.79329771527153
 1 -11.78134223932393  3.15459578557856 -2.38268127282728
 1 -13.14275394459446  2.03960785198520 -1.84649584108411
 1 -12.27777950905091  3.06903555825583 -0.69065030903090
 1 -12.28144292269227 -1.91884132923292 -1.22927788268827
 1 -13.30494921382138 -0.28357509430943 -1.43062859035904
 1 -13.17899425202520 -1.71722640884088 -3.51568145264526
 1 -12.51848541274128 -0.16614115171517 -3.90766426212621
 1 -11.36062234153415 -1.39456432353235 -3.60866948694870
 1 -9.01508111111111 -4.51745248814882 -1.82370563466347
 1 -8.11700106490649 -5.70442044624462 -0.71639125212521
 1 -9.52934281918192 -4.61740676197620 -0.08086990959096
 1 -3.46494719061906 -3.39074232493249 -0.29015428692869
 1 -1.89087725422542 -4.34325076477648  3.78637155245525
 1 -3.00970057865787 -5.84689630723072  3.44396723562356
 1 -1.28900701220122 -5.75583485668567  2.75535948884888
 1  2.65403470757076 -1.51439327522752 -1.76924088908891
 1  2.41193867146715  0.19240351995200 -1.90322347454745
 1  4.22789369496950 -1.03562577777778  0.34768798479848
 1  4.02345130863086  1.52092080248025 -2.42784115381538
 1  5.25392080378038  2.41998225712571 -1.87169363756376
 1  5.60620792839284  0.89646075357536 -3.04008273927393
 1  6.59925198809881  1.53378737873787 -0.05781313851385
 1  6.14396851625163 -0.09611764916492  0.66600631733173
 1  7.19071645634563 -1.05796503170317 -1.34689601320132
 1  7.80919335523552  0.29892310041004 -1.84811773537354
 1  8.94836688828883  0.90325821082108  0.33417104930493
 1  8.65168365706571 -0.65185069126913  0.66966483018302
 1  10.27365491689169  0.11009354705471 -1.88916380588059
 1  9.20114510001000 -1.86562453895390 -2.08529445424542
 1  10.89524207990799 -2.03577036093609 -2.26103034693469
 1  10.03744663066307 -2.63979592159216 -0.89949938963896
 1  11.42504018491849  0.85350758095810  0.39984147164716
 1  11.40671372477248 -1.00309627092709  0.68690931253125
 1  12.82535585448545 -1.33312147334733 -1.08209587718772
 1  12.77152090459046  0.28899959095910 -1.64375773707371
 1  13.90389182588259  0.89349190519052  0.54921226422642
 1  14.08303105620562 -0.77366697139714  1.10801731823182
 1  15.46536982548255  0.48900838583858 -1.24988934693469
 1  15.60397784068407 -2.28198849094909 -0.08859031293129
 1  14.93579663036304 -1.99070144574457 -1.73872128722872
 1  16.60254988438844 -1.91242676757676 -1.50857232673267
 1  16.09054425512551  1.13473130683068  0.98827537183718
 1  16.70830527772777 -0.44420359545955  1.29445220642064
 1  18.26278721742174 -0.54509105650565 -0.32821616201620
 1  17.76294335883589  1.12088940784078 -1.04525810161016
 1  18.59084987758776  2.34241839953995  1.03019102440244
 1  19.11961912221222  0.64039822082208  1.78161816211621
 1  20.93864877757776  0.44713086128613  0.22842990699070
 1  19.98294240084008  3.04022758465847 -1.05706930033003
 1  21.26023027512752  2.20661731453145 -1.54872623592359
 1  19.76870077447745  1.59431124192419 -2.06168313731373
 1  21.15302127732773  1.99624773387339  2.35611522872287
 1  22.09216092239224  2.35912714241424  1.01397636393639
 1  20.35079480938094  3.23415349864987  1.43670411091109

