%nproc=4
%Mem=2GB
# td=(NStates=1) CAM-B3LYP/6-31G(d,p) 

TD

0 1
12 -7.07599817281728  0.58041678977898  0.09756744414441
 6 -4.86367098509851 -1.92460363876388  0.55292182488249
 6 -4.75205513441344  2.79861830913091  1.02395876077608
 6 -9.36877161266127  3.07902339783978 -0.36026888658866
 6 -9.43655396909691 -1.72131764276428 -0.86404283338334
 7 -5.12926635123512  0.39394921302130  0.78309872817282
 6 -4.28138784488449 -0.70472029402940  0.78497652085209
 6 -2.89165817121712 -0.38915834153415  1.09487984218422
 6 -2.99919335773577  1.02038470677068  1.60192092279228
 6 -4.35778277317732  1.49814056285629  1.07507453735374
 6 -2.89173425552555  1.12041432953295  3.16794820372037
 6 -1.99074253525353 -0.56711197259726 -0.13791983368337
 6 -0.52402982558256 -0.31839618681868  0.30424455375538
 6  0.50847198439844 -0.62468598149815 -0.78044342484248
 8  0.18595983608361 -0.90090549814981 -1.90423675537554
 8  1.76986879737974 -0.43821121752175 -0.38179496839684
 7 -7.10803125102510  2.62687827762776  0.35286398189819
 6 -6.03989326832683  3.36525750155015  0.72224575817582
 6 -6.35703295639564  4.75958024742474  0.71177186438644
 6 -7.70729343634363  4.81019165066507  0.29161755305531
 6 -8.12407667926793  3.40477967326733  0.12256480278028
 6 -5.37737569426943  5.83397586348635  1.17191195169517
 6 -8.47514531213121  5.93877491119112  0.11813879927993
 6 -8.41641553285329  7.10153627222722  0.75046129592959
 7 -9.11202347494750  0.67510037113711 -0.57171120482048
 6 -9.86003226292629  1.76238619171917 -0.68819514361436
 6 -11.23224232083208  1.47254559365937 -0.98830054955496
 6 -11.29828223212321  0.08784414851485 -1.17254596859686
 6 -9.93094877557756 -0.42317429172917 -0.74054907100710
 6 -12.27846667036704  2.46300687168717 -1.30279705450545
 6 -12.35808035433543 -0.76398380848085 -1.63272408090809
 6 -12.37716520492049 -1.06724913611361 -3.09924504310431
 7 -7.27764723302330 -1.32648226182618 -0.13929860686069
 6 -8.22101234103410 -2.23223839593959 -0.58442339753975
 6 -7.80303644924492 -3.67432570007001 -0.57045432273227
 6 -6.52826671077108 -3.54594893189319 -0.06236796869687
 6 -6.19394199059906 -2.18338661996200  0.10246305050505
 6 -8.60453792119212 -4.88955179757976 -0.64339281768177
 6 -5.30704517481748 -4.38489237273727  0.27505037763776
 8 -5.21013985188519 -5.54441892529253  0.20826785748575
 6 -4.18861244064406 -3.26944273407341  0.62220208550855
 6 -3.65525615651565 -3.74496971827183  1.98095846874687
 8 -3.70658225882588 -3.22545928212821  3.07584026512651
 8 -2.75669686338634 -4.71386610901090  1.74400298119812
 6 -2.19139972787279 -5.30474470357036  2.92187712321232
 6  2.82835534723472 -0.52048984358436 -1.34602580298030
 6  4.12873496249625 -0.36371454775478 -0.62605275427543
 6  5.15379886428643  0.42305857125713 -1.06474624732473
 6  5.05699412241224  1.17771042034203 -2.33111727702770
 6  6.33605793859386  0.55454730493049 -0.25401188638864
 6  7.55782332023202 -0.09946029292929 -0.97058400890089
 6  8.82851472407241 -0.06047117751775 -0.04556636943694
 6  10.08763938843884 -0.53589066076608 -0.91491246174617
 6  10.13967066726673 -2.00610154625463 -1.11000446544654
 6  11.36489936683668 -0.13598737953795 -0.03409254065407
 6  12.75932083978398 -0.54019807090709 -0.66694671757176
 6  13.91523099149915  0.06478527572757  0.25353242074207
 6  15.32501862676268 -0.14182791189119 -0.46687492729273
 6  15.66672834173417 -1.62057969176918 -0.77844746244624
 6  16.41092519841984  0.48211257125713  0.44005851305131
 6  17.81418600800080  0.54365576397640 -0.07050286488649
 6  18.78163853335333  1.28748696569657  0.77763819681968
 6  20.20576924612461  1.26467680118012  0.23969873307331
 6  20.52737409120912  1.89491778897890 -1.03829482218222
 6  21.13777470827083  1.78612154845485  1.36261162456246
 1 -4.08400988548855  3.57922344374437  1.27767235413541
 1 -10.28414880758076  3.87141797679768 -0.50058545004500
 1 -10.06116940634063 -2.61008034883488 -1.30988764096410
 1 -2.38404486138614 -0.93664197809781  1.96357704890489
 1 -2.22721632683268  1.75016859945995  1.37887853825382
 1 -1.74451890939094  0.99338979187919  3.37462117561756
 1 -3.03031809180918  2.18243230073007  3.43072523792379
 1 -3.61054449714971  0.37470215421542  3.55211762456246
 1 -1.96006849174917 -1.59938989938994 -0.43722763196320
 1 -2.27423909640964  0.04929217961796 -0.93478351795179
 1 -0.34176769416942  0.89267388128813  0.43563396249625
 1 -0.34552235423542 -0.69475399059906  1.19258321352135
 1 -5.60235901130113  6.84616326042604  0.82573828302830
 1 -5.61213820322032  5.96606997009701  2.13223952105211
 1 -4.24883883988399  5.51967313371337  0.84765794139414
 1 -9.23947600010001  5.91898804690469 -0.80200042824282
 1 -9.06031724762476  7.78529926882688  0.47135675747575
 1 -7.81025049084908  7.12562896239624  1.56763514901490
 1 -11.83640774587459  2.91648197419742 -2.23679668436844
 1 -13.09315898509851  1.78138202940294 -1.80541173267327
 1 -12.54611634273427  3.06335499019902 -0.54967621162116
 1 -12.28979375777578 -1.64264370947095 -1.17570252515252
 1 -13.22636135503550 -0.14619135593559 -1.45209073657366
 1 -13.17730408300830 -1.61951663786379 -3.28032791729173
 1 -12.22821638583858 -0.11432597019702 -3.64726822252225
 1 -11.48054433373337 -1.65477034413441 -3.40750937093709
 1 -9.09788939193919 -5.17803854675468 -1.62128539263926
 1 -7.96254561936194 -5.78300830503050 -0.35144475747575
 1 -9.56252613751375 -4.78130315161516 -0.03511533413341
 1 -3.40126082198220 -3.65466871757176 -0.01309658115812
 1 -1.53054122062206 -4.77678411811181  3.39542245754576
 1 -2.93461306990699 -5.65544716231623  3.81136397529753
 1 -1.79958807030703 -6.37034630783078  2.51722567546755
 1  2.71493079717972 -1.51365320122012 -1.89987395239524
 1  2.69829730733073  0.21117539713971 -2.23297644984498
 1  4.10928183378338 -1.02395461066107  0.36334955095510
 1  3.99907887138714  1.34169287968797 -2.61963033273327
 1  5.38879429112911  2.16084634353435 -1.98239470767077
 1  5.59275658325833  0.69029013651365 -2.99201793279328
 1  6.53441550445045  1.70773477347735  0.01248389118912
 1  6.09133325272527  0.17086904950495  0.70851056775678
 1  7.39874725942594 -1.10318955415542 -1.43982530613061
 1  7.59574201010101  0.46496970507051 -1.92143506710671
 1  9.05358741034103  0.99159704470447  0.18900653285328
 1  8.61547003570357 -0.69021452765277  0.82006987068707
 1  10.23546109750975  0.00127266496650 -1.91396628612861
 1  9.20497548304830 -2.24198217471747 -1.56937286208621
 1  11.13899645534553 -2.58931571547155 -1.64576882078208
 1  10.15285817181718 -2.40410235223522 -0.20519995969597
 1  11.35496317721772  1.17711994219422 -0.14733324582458
 1  11.31621467486749 -0.44738069936994  1.01340196179618
 1  12.98776209510951 -1.68101626282628 -0.77364503210321
 1  13.00731448394839 -0.15364467346735 -1.75009837113711
 1  13.78520995769577  1.00660321632163  0.51438878187819
 1  13.92072482558256 -0.19500910561056  1.29878639513951
 1  15.10077336583658  0.35669515451545 -1.36635099309931
 1  15.63652109500950 -2.35595588768877  0.37854640074007
 1  14.94734778547855 -2.13173554915492 -1.44518193329333
 1  16.77179680908091 -1.81581710661066 -1.12646411591159
 1  15.92567776847685  1.57727556125613  0.63805034933493
 1  16.43063751095109  0.05161598649865  1.47450021122112
 1  18.29665060376038 -0.50071661906191 -0.19181252165216
 1  17.77028409290929  0.76863418231823 -1.09394297009701
 1  18.49007980058006  2.33092725042504  0.94108211351135
 1  18.66740390069007  0.86545072607261  1.66968696899690
 1  20.40987590029003  0.19703585178518  0.01507857185719
 1  19.94265837243724  2.90927448934894 -1.19049264266427
 1  21.38925317741774  2.28986563936394 -1.20093145644564
 1  20.18233213761376  1.23891570237024 -1.93856082508251
 1  20.81226720192019  1.56992510161016  2.46831644884488
 1  22.26986869316931  1.48182941264126  1.30257522382238
 1  21.15296502640264  3.01454153745375  1.47423786428643

