%nproc=4
%Mem=3GB
# td=(NStates=1) iop(3/107=0140000000,3/108=0140000000) CAM-B3LYP/6-31G(d,p) 

TD

0 1
12 -6.99963465516552  0.62010039353935  0.06057242724272
 6 -4.80709952645265 -1.96248347894789  0.63826922932293
 6 -4.80543657425743  2.82701141904190  1.12110221542154
 6 -9.27507427192719  3.13839139213921 -0.49169164446445
 6 -9.49397549554956 -1.72494426012601 -0.78148495339534
 7 -5.12623965516552  0.48665475607561  0.79177700170017
 6 -4.35442769006901 -0.70661180438044  0.79280717541754
 6 -2.97178339893989 -0.34624302230223  1.34863053215322
 6 -3.05342856975698  1.08194689628963  1.62267854715472
 6 -4.37527776247625  1.49071372247225  1.03904829872987
 6 -3.01441762256226  1.23744656395640  3.19574488908891
 6 -1.98662439213921 -0.64861085028503  0.05396920722072
 6 -0.51488719791979 -0.32819606760676  0.47082046434643
 6  0.51195311851185 -0.55502212411241 -0.62145193529353
 8  0.17614783158316 -0.95338911661166 -1.80971836493649
 8  1.69646824522452 -0.35611554995500 -0.22372776037604
 7 -7.04738238163816  2.63586679657966  0.24583550765077
 6 -6.03826397019702  3.38798256565657  0.80365624172417
 6 -6.37967287568757  4.81331819541954  0.89999825852585
 6 -7.68384316961696  4.92202400760076  0.38551467786779
 6 -8.06123565106511  3.45601254005400  0.05971396999700
 6 -5.57121915581558  5.82978245194519  1.33610376557656
 6 -8.48827883588359  6.03758402800280  0.13114372687269
 6 -8.30054846484648  7.26047519721972  0.82412647194719
 7 -9.02955199629963  0.67222421682168 -0.57060363426343
 6 -9.79146663296330  1.86346967126713 -0.81488430193019
 6 -11.16359031173117  1.52075151965197 -1.19538439813981
 6 -11.24502398959896  0.14500204600460 -1.29286931523152
 6 -9.91033863746375 -0.31647184058406 -0.85270747204720
 6 -12.22081301900190  2.47504274567457 -1.45252470517052
 6 -12.32743653655366 -0.68429455325533 -1.73613294389439
 6 -12.24419632853285 -1.04153434573457 -3.24996564776478
 7 -7.17731069346935 -1.46392122782278 -0.06186886198620
 6 -8.28062238853885 -2.33808235373537 -0.51353293319332
 6 -7.85887792759276 -3.65781633303330 -0.34243454325433
 6 -6.48191598209821 -3.57758074017402 -0.03519560126013
 6 -6.17617134883488 -2.20512846864686  0.24015585098510
 6 -8.67978031753175 -4.85206130453045 -0.71819520262026
 6 -5.34038950185018 -4.41745530893089  0.18223319741974
 8 -5.16222721502150 -5.63591044804480  0.13690963956396
 6 -4.10265476807681 -3.33436088348835  0.65431375297530
 6 -3.47960213701370 -3.78116605930593  1.92653862236224
 8 -3.68532131553155 -3.12556991489149  2.95300865906591
 8 -2.77898325112511 -4.91622024052405  1.72095113261326
 6 -2.20505946294629 -5.32845805170517  2.98205560596060
 6  2.76844316471647 -0.61233952285229 -1.20658417561756
 6  4.10857174237424 -0.43996926482648 -0.62798536133613
 6  5.12774826612661  0.31699822782278 -1.05351822882288
 6  5.05221894749475  1.28241591689169 -2.25303943894389
 6  6.39156543524352  0.35228584458446 -0.34458498289829
 6  7.69853130573057 -0.17461600960096 -1.09179950865087
 6  8.92365007660766 -0.08639045514551 -0.30743684608461
 6  10.17413287388739 -0.52308397159716 -0.94259997999800
 6  10.11077435403540 -1.97950583048305 -1.52595956195620
 6  11.39203386718672 -0.34663955505551 -0.09138710121012
 6  12.73220095559556 -0.67302733623362 -0.72035954105411
 6  13.99106037783778 -0.16376209050905  0.20278669026903
 6  15.33498948994900 -0.29709879347935 -0.44752040454045
 6  15.72909918091809 -1.76903529182918 -0.72308413471347
 6  16.38670566326633  0.39866638393839  0.53007774247425
 6  17.77089467716772  0.46546027562756 -0.14155068206821
 6  18.63139355795579  1.29141722022202  0.73520677737774
 6  20.08247105150515  1.43123255575558  0.33999070507051
 6  20.24951779757976  2.19005631073107 -1.07289198509851
 6  20.98321338833883  1.98605030493049  1.43752769276928
 1 -4.10253061656166  3.57390064146415  1.75871196699670
 1 -9.65134725802580  3.95460773527353 -0.80865539173917
 1 -10.19392381648165 -2.23527906300630 -1.32021984138414
 1 -2.72531981918192 -0.85296549924993  2.13318980968097
 1 -2.42918638493849  1.61465352645265  1.18084173317332
 1 -2.06791987838784  0.88748785518552  3.50866120352035
 1 -3.00853796289629  2.19638886168617  3.69287730993099
 1 -3.80835363586359  0.44048920322032  3.61812349754975
 1 -1.97109222822282 -1.78105877667767 -0.21200920802080
 1 -2.31641801080108 -0.11993437363736 -0.80926766136614
 1 -0.29064449314931  0.69429901720172  0.72037590059006
 1 -0.09155757605760 -0.87362812941294  1.36744020232023
 1 -5.79637381508151  6.91988950095009  0.94490432173217
 1 -5.75479695099510  6.35882876427643  2.45960797329733
 1 -4.49391423602360  5.68531279927993  1.09595032763276
 1 -9.19421968176818  5.99020240224023 -0.46232758545855
 1 -9.09808887258726  8.11014073507351  0.66057583328333
 1 -7.57980591269127  7.35272210861086  1.80684964526453
 1 -11.83236370937094  2.99718886598660 -2.50624645614562
 1 -13.37079437713771  2.18221696409641 -1.47027275547555
 1 -12.26019705240524  3.23105043914391 -0.57209764926493
 1 -12.25735770067006 -1.61349227202720 -1.19630313121312
 1 -13.34474677377738 -0.17047975847585 -1.64987074147415
 1 -12.76674187338734 -1.97470113221322 -3.57670862896290
 1 -12.23503390909091  0.09671119981998 -3.59753873227323
 1 -11.28164300370037 -1.37334836203620 -3.54826310451045
 1 -8.78373299189919 -5.11750825162516 -1.79128519151915
 1 -8.11092547774778 -5.64970092339234 -0.29358931403140
 1 -9.69597377637764 -4.72283073147315 -0.11827409610961
 1 -3.45917343584358 -3.58240484608461 -0.25009274737474
 1 -1.74252764036404 -4.34323653705371  3.58570028762876
 1 -2.96643308060806 -5.63688321322132  3.67960899859986
 1 -1.32924344484448 -6.09883066786679  2.77745110621062
 1  2.53976203100310 -1.58595521832183 -1.57306875557556
 1  2.60143658495850  0.09912799759976 -2.01608266576658
 1  4.23287377407741 -1.15351376517652  0.31901330153015
 1  4.02963827532753  1.06726226892689 -2.93529401510151
 1  4.93685061726173  2.37816824072407 -1.83518095649565
 1  5.89494906340634  1.14247543844384 -2.96343260016002
 1  6.50338852275228  1.57832781338134 -0.24563494959496
 1  6.42312018411841 -0.27125446214621  0.58446464196420
 1  7.66261838463846 -1.04198487148715 -1.30069482668267
 1  7.76250880938094  0.33076217921792 -2.06079690259026
 1  8.98354439873987  1.01973147064706 -0.00446801870187
 1  8.78026114691469 -0.68234658735874  0.75222134553455
 1  10.27946257805781  0.14183033083308 -1.83424858285829
 1  9.10079968906891 -2.11209949344934 -2.14857323922392
 1  10.75388452905291 -2.30269366866687 -2.29115447354735
 1  10.03918611571157 -2.70668478317832 -0.78056545024502
 1  11.48465010661066  0.66084251765177  0.31756952775278
 1  11.18846644214421 -0.79230052765277  0.86114243434343
 1  12.79879783228323 -1.70224764406441 -0.87210948244824
 1  12.83338916881688 -0.07367243124312 -1.75586992069207
 1  13.66495791609161  0.74263962726273  0.46992182088209
 1  14.04525283588359 -0.56995337423742  1.09058143214321
 1  15.67286768816882  0.15979937693769 -1.39088035683568
 1  15.65439923672367 -2.36952629382938  0.19568143264326
 1  15.07039868426843 -2.11660618061806 -1.49361073457346
 1  16.72558083768377 -1.93246414341434 -1.48864537783778
 1  16.02993626712671  1.60199853355336  0.46098201450145
 1  16.28473255105511 -0.08818510331033  1.48281677637764
 1  18.14559129682968 -0.55284179817982 -0.00482067766777
 1  17.84774208380838  0.81366026012601 -1.20786653025302
 1  18.28042709960996  2.37023829182918  1.16511845864586
 1  18.56163212571257  0.85925076457646  1.73785703120312
 1  20.35440527282728  0.38586958455846 -0.14724883268327
 1  19.76794361286129  3.16057683418342 -1.04010619531953
 1  21.23152695349535  2.37242838493849 -1.22535051625162
 1  19.75271366896690  1.39597988818882 -1.85420380478048
 1  20.76507036053605  1.38165380628063  2.53842751155115
 1  22.00962885568557  1.99288975967597  1.08878553215322
 1  20.69685976447645  2.99744586178618  1.67530466716672

