%nproc=4
%Mem=2GB
# td=(NStates=1) CAM-B3LYP/6-31G(d,p) 

TD

0 1
12 -7.11739231223122  0.62967171527153  0.04882256965697
 6 -4.80606522452245 -1.97281846024602  0.60735726842684
 6 -4.82790271917192  2.83819226652665  1.10067643254325
 6 -9.38785352085208  3.15066056155616 -0.45843870357036
 6 -9.54656497019702 -1.78463397439744 -0.85590201930193
 7 -5.10982440704070  0.40731054915492  0.74411482978298
 6 -4.34077378347835 -0.72313213521352  0.80782880608061
 6 -2.96064506990699 -0.47954738043804  1.18643899809981
 6 -3.10964440284028  1.09537220552055  1.47621835253525
 6 -4.44382137703770  1.55796654545455  1.12642967286729
 6 -2.85528061016102  1.42088437653765  3.06907831673167
 6 -1.98165162616262 -0.75433069446945  0.01099505780578
 6 -0.46467388998900 -0.55950029722972  0.45240937023702
 6  0.52292342954295 -0.78933244614461 -0.65147052755276
 8  0.22949418951895 -1.07173258085809 -1.74044037573757
 8  1.81451326182618 -0.56704410081008 -0.22414920382038
 7 -7.11468191609161  2.56133172297230  0.36116481198120
 6 -6.07401668066807  3.35665664146415  0.69338287188719
 6 -6.46790404350435  4.76123041244124  0.74310499769977
 6 -7.64052675967597  4.85033566506651  0.23652204350435
 6 -8.07599187078708  3.44074326962696  0.03921646794679
 6 -5.56294425112511  5.79737220312031  1.16682144264426
 6 -8.62098989658966  6.00365139883988  0.19350633603360
 6 -8.58165205650565  7.19004512311231  0.80628687848785
 7 -9.06143841644164  0.65826868796880 -0.61292532623262
 6 -9.83917017671767  1.83827378047805 -0.73624994909491
 6 -11.20336943354335  1.44741308040804 -1.11584330383038
 6 -11.25967837173717  0.11625698979898 -1.23370208420842
 6 -9.87193287398740 -0.35664763906391 -0.92042705880588
 6 -12.39204802850285  2.38657922892289 -1.36921369616962
 6 -12.46047059335934 -0.72181959205921 -1.64750555905591
 6 -12.48818630703070 -1.00844325552555 -3.20138525712571
 7 -7.27220668896890 -1.33988360196020  0.03517884088409
 6 -8.24621486128613 -2.25122029412941 -0.43176813201320
 6 -7.87171331693169 -3.61659992749275 -0.45794307160716
 6 -6.53031691579158 -3.53905824282428 -0.09732146404641
 6 -6.16340893729373 -2.15321360266027  0.13769657385739
 6 -8.78615608300830 -4.71687452985299 -0.95224370277028
 6 -5.32150662096210 -4.34794867836784  0.23146601920192
 8 -5.12507134503450 -5.60751523492349  0.34400143084308
 6 -4.19676325572557 -3.34832062186219  0.55991585688569
 6 -3.59202983388339 -3.66294151545155  1.94883525642564
 8 -3.68178977957796 -3.02800953715372  2.98407108820882
 8 -2.81815300900090 -4.77565228762876  1.86573515441544
 6 -2.23792438033803 -5.26618084718472  3.09211414691469
 6  2.83939645134513 -0.71589938453845 -1.24724592499250
 6  4.17111920092009 -0.50726890319032 -0.52835298429843
 6  5.14673815821582  0.29578584398440 -0.92338211091109
 6  5.08464688768877  1.24398704800480 -2.20197436273627
 6  6.44072840564056  0.38420027022702 -0.11907839303930
 6  7.69762730063006 -0.11064141104110 -0.89807675817582
 6  8.89464133673367 -0.01693682408241 -0.09661147394739
 6  10.20212083658366 -0.45770284198420 -0.81816278677868
 6  10.14112081228123 -1.91959289538954 -1.39854331933193
 6  11.40794367126713 -0.11630541134113  0.02813368196820
 6  12.79814472217222 -0.27072112321232 -0.76915693859386
 6  13.99916938533853 -0.07132833563356  0.06441350885089
 6  15.40375650055005 -0.11516524562456 -0.55866410621062
 6  15.72701437033703 -1.46440407420742 -1.22187180488049
 6  16.50872497839784  0.31443580358036  0.45959046624662
 6  17.86543113251325  0.37803920232023 -0.15047086168617
 6  18.92414278377838  1.03873209020902  0.84866529952995
 6  20.31132980218022  1.30433076657666  0.27601236443644
 6  20.43782513631363  2.25683398059806 -0.99345033773377
 6  21.26812774357436  1.82661559785979  1.43237860126013
 1 -4.26346783128313  3.46803232463246  1.60796538343834
 1 -10.17575796849685  3.82134296929693 -0.59075446694669
 1 -10.24224751415142 -2.50005934673467 -1.06320297249725
 1 -2.74063051995200 -1.14243255715572  2.00419111031103
 1 -2.41886549174917  1.64273785638564  0.86468711911191
 1 -1.77642209970997  1.25756620952095  3.27009072257226
 1 -3.18275333533353  2.28474253175318  3.29228139353935
 1 -3.62693613631363  0.64763944794479  3.56964937773777
 1 -2.08125060996100 -1.76199616001600 -0.28750265946595
 1 -2.26781845434543 -0.20385313491349 -0.79839987958796
 1 -0.30308382578258  0.68164277817782  0.66728712781278
 1 -0.33516131813181 -1.02368688388839  1.28492244744474
 1 -5.73199197459746  6.69673831793179  0.50298600780078
 1 -5.66568355775578  5.94865822892289  2.23574987208721
 1 -4.53702765876588  5.41189235563556  0.82027520312031
 1 -9.49496154865487  5.79240538863886 -0.39189941814181
 1 -9.51769298519852  7.96457719661966  0.58856847864787
 1 -7.58692815861586  7.46301270077008  1.35262364786479
 1 -12.28543264836484  2.83159348534853 -2.32321532623262
 1 -13.27288695789579  1.73672756395639 -1.67435862736274
 1 -12.56850858195820  3.05393404810481 -0.52611385538554
 1 -12.50520529892989 -1.73613305840584 -1.28689364426443
 1 -13.35784450335033 -0.16277301410141 -1.41801732923292
 1 -13.35026137873787 -1.63545823202320 -3.52659254375438
 1 -12.61966553075308 -0.20889542714271 -3.87806130183018
 1 -11.63620990029003 -1.67243211031103 -3.38266688668867
 1 -8.71898150115012 -4.79781052395240 -2.06880014411441
 1 -8.24675404020402 -5.76172617681768 -0.68510812381238
 1 -10.03292317721772 -4.55414043534353 -0.70846266886689
 1 -3.43080377627763 -3.45822907360736 -0.24242951445144
 1 -1.42429059555956 -4.68203464316432  3.61277419271927
 1 -3.02732234083408 -5.16401801940194  4.00761360026003
 1 -1.89909802130213 -6.34550382358236  2.75695964886489
 1  2.54369367346735 -1.64176601250125 -1.70306427142714
 1  2.57398487608761  0.10164444404440 -1.90660381258126
 1  4.03661456705670 -1.14297651285128  0.37848106410641
 1  4.07224618811881  1.53589229962996 -2.51226959665967
 1  5.42265767746775  2.20531078997900 -1.72704917311731
 1  5.76393370097010  0.89418052555255 -3.05208393939394
 1  6.84014607750775  1.38184218421842  0.28941158395840
 1  6.35713983338334 -0.15014305170517  0.79117883458346
 1  7.52516990169017 -1.08718795399540 -1.44837616121612
 1  8.02296473237324  0.63953716181618 -1.61137406100610
 1  8.91275332693269  0.93347123212321  0.23180081228123
 1  9.00414890359036 -0.62037754395440  0.78004586828683
 1  10.37153470487049  0.14862740044004 -1.76292118161816
 1  9.05134011951195 -2.18778675517552 -1.97469339413941
 1  10.89927248294829 -2.02251903580358 -2.33202744664466
 1  10.24363724972497 -2.67103904590459 -0.63875331503150
 1  11.31486916781678  0.92936516671667  0.26374786228623
 1  11.42743579697970 -0.62402836413641  1.04232485408541
 1  12.86514983388339 -1.37438559975998 -1.19973764136414
 1  12.74188794129413  0.36961765276528 -1.56685004630463
 1  13.92066350305030  0.78336089208921  0.45628297129713
 1  13.87547030013001 -0.64460406510651  1.09480599709971
 1  15.54354764326433  0.85506499149915 -1.28515287328733
 1  15.59903734663466 -2.31180147224722 -0.57469892379238
 1  14.99240229092909 -1.75324770037004 -1.92310972607261
 1  16.73234286368637 -1.70087561246125 -1.76023749324932
 1  16.25489068976898  1.28331616531653  0.61256780108011
 1  16.53128757595760 -0.41779095419542  1.29249201040104
 1  18.46929786848685 -0.68741528892889 -0.26106944734473
 1  17.82549961446145  0.83093041194119 -1.01807538333833
 1  18.32198299089909  2.01926608430843  1.06031403670367
 1  18.78050521082108  0.69057323832383  1.92840284058406
 1  20.51526643934394  0.26375252345235 -0.07511044704470
 1  20.31717582418242  3.24303786568657 -0.84414800820082
 1  21.58440269236924  2.25325197799780 -1.26449781308131
 1  19.89147305170517  2.03060487128713 -1.92431940094009
 1  21.13838981418142  0.94568267736774  2.36360597779778
 1  22.40372207850785  2.01671290099010  1.16516148244825
 1  21.05106483638364  2.84819490279028  2.05767620812081

