%nproc=4
%Mem=2GB
# td=(NStates=1) CAM-B3LYP/6-31G(d,p) 

TD

0 1
12 -7.21643221622162  0.54371311941194  0.09910759815982
 6 -4.86175079307931 -1.96898807720772  0.62073860656066
 6 -4.85267519641964  2.84487293459346  1.23692005690569
 6 -9.44694943044304  3.18217371287129 -0.38108096779678
 6 -9.50432074577458 -1.67126263726373 -0.95314174327433
 7 -5.22673609820982  0.38190800890089  0.76622704100410
 6 -4.35081478757876 -0.68456827882788  0.81718974217422
 6 -2.94924392979298 -0.39318874457446  1.21448180238024
 6 -3.12915635403540  1.07379004730473  1.76582731343134
 6 -4.42807980288029  1.51596234503450  1.13099012891289
 6 -3.14960004210421  1.15244753285329  3.25815722462246
 6 -1.96221968296830 -0.50084534593459  0.10162412071207
 6 -0.53586100870087 -0.33959830703070  0.53434756405641
 6  0.48735987318732 -0.54990850375037 -0.66406178667867
 8  0.17690893099310 -0.78557396499650 -1.80146647834783
 8  1.79817162766277 -0.40919831623162 -0.21550833973397
 7 -7.17911835973597  2.61027661746175  0.37222591809181
 6 -6.01740101910191  3.41230220602060  0.79655318891889
 6 -6.37523477657766  4.72274656405641  0.79056974417442
 6 -7.64932763976398  4.85045567706771  0.45466385768577
 6 -8.12065633723372  3.48797799309931  0.08452099839984
 6 -5.48215617231723  5.84229669556956  1.11625638613861
 6 -8.55711350895089  6.03027406110611  0.24468145354535
 6 -8.43711760306031  7.14794091269127  0.99690594039404
 7 -9.10261253385339  0.73293615471547 -0.55071910561056
 6 -9.91339759945994  1.85480543364336 -0.71592791689169
 6 -11.17514661126113  1.47692603170317 -1.20274199369937
 6 -11.18786119001900  0.11799716381638 -1.41442015601560
 6 -9.90381606230623 -0.33013498779878 -1.00396541264126
 6 -12.25614443814381  2.46927749874988 -1.56011278607861
 6 -12.35549009530953 -0.69805721582158 -1.98335914441444
 6 -12.11594908330833 -1.23265567676768 -3.39587470607061
 7 -7.22425189348935 -1.43485309890989 -0.24052872987299
 6 -8.29558979877988 -2.24587976007601 -0.52970792599260
 6 -7.85024116971697 -3.54264253175318 -0.50553783108311
 6 -6.50852473657366 -3.52606694369437 -0.03641537343734
 6 -6.15348794519452 -2.17952623392339  0.10752355655566
 6 -8.59245671307131 -4.82721556395640 -0.83343182158216
 6 -5.36683115341534 -4.41815569906991  0.24828770137014
 8 -5.25007384528453 -5.63515799919992  0.38190522122212
 6 -4.15179875927593 -3.39785557535754  0.68002786808681
 6 -3.49569019991999 -3.65978119941994  1.98710908380838
 8 -3.61462306290629 -3.08108484468447  3.08951163226323
 8 -2.82360355405541 -4.73792851525153  1.88242682358236
 6 -2.11487207510751 -5.19115334443444  3.07305224072407
 6  2.67370988268827 -0.62605039963996 -1.25300650105011
 6  4.11587367636764 -0.50702887918792 -0.69506965596560
 6  5.18170165456546  0.27594385978598 -1.02917268996900
 6  5.13623204620462  1.09892254155416 -2.29799396469647
 6  6.47684201700170  0.33443529372937 -0.33922040724072
 6  7.63654119201920 -0.22167251415142 -1.14050100060006
 6  8.98830070267027 -0.15273040344034 -0.25634744754475
 6  10.26419704420442 -0.67064413611361 -0.90029099959996
 6  10.12589929012901 -2.11513244934493 -1.32501596659666
 6  11.40694357125713 -0.34595837663766  0.04861573017302
 6  12.81553646134613 -0.60297434853485 -0.54205422832283
 6  14.05291475987599 -0.27664886768677  0.29909697719772
 6  15.32187831273127 -0.27851158025803 -0.43434167396740
 6  15.74704637353735 -1.58183581738174 -0.85334495219522
 6  16.44612871877188  0.38926328632863  0.44964947214721
 6  17.79375396479648  0.66234763316332 -0.15080089468947
 6  18.81425179467947  1.32161037803780  0.76826725972597
 6  20.20258892809281  1.45467580108011  0.10979574277428
 6  20.27491884568457  2.35999429662966 -1.09817080978098
 6  21.19484041484149  1.98342127842784  1.12427779117912
 1 -4.00080156465647  3.68833435483548  1.48669325622562
 1 -10.11771216391639  3.94792562756276 -0.47950334183418
 1 -10.31788507790779 -2.26657599839984 -1.06406305850585
 1 -2.77627408430843 -0.99640795469547  2.28485917711771
 1 -2.47515112031203  1.73623720632063  1.33267391779178
 1 -2.02119657715772  1.00873132603260  3.81872558605861
 1 -3.19011407140714  2.08521257875788  3.55026719211921
 1 -3.81051449414941  0.41248593259326  3.72723513631363
 1 -2.08225070997100 -1.49865982638264 -0.51002491169117
 1 -2.02501417391739  0.12049930033003 -0.67889792939294
 1 -0.27134065146515  0.63057767166717  0.86747714681468
 1 -0.35312311431143 -1.04687920312031  1.42040599579958
 1 -5.70977975337534  6.76817546164616  0.66708241744174
 1 -5.38619560896090  5.91352471557156  2.30529682678268
 1 -4.41807576357636  5.60315148154815  0.82147532313231
 1 -9.41005305780578  5.79690583868387 -0.34528475667567
 1 -8.84645586148615  8.18108884778478  0.79264888668867
 1 -7.71136060186019  7.35019141864186  1.68311669716972
 1 -12.00056416151615  3.02624295029503 -2.48542154685469
 1 -13.12222189138914  2.01522541374137 -1.82861405290529
 1 -12.35532726382638  3.19562821752175 -0.66733797779778
 1 -12.39047382578258 -1.67569701480148 -1.34251920682068
 1 -13.29735845474547 -0.05587232403240 -1.88850437793779
 1 -12.76075242784279 -2.08702338853885 -3.68412829732973
 1 -12.13010657485749 -0.39006354395440 -4.32396589228923
 1 -11.02474875417542 -1.47216208330833 -3.46550517051705
 1 -8.72562216521652 -4.96991773467347 -1.97447071117112
 1 -7.71877124192419 -5.58488849304930 -0.56491610461046
 1 -9.48589847474747 -5.17566258755876 -0.18094991759176
 1 -3.47774847074707 -3.53021627232723 -0.16262153365337
 1 -1.28310647714771 -4.40141658135814  3.47443035833583
 1 -2.69799940854085 -5.37377899549955  3.80464330323032
 1 -1.78178629012901 -6.08493776697670  2.72701665456546
 1  2.58261756585659 -1.71096293219322 -1.68110207520752
 1  2.68645612321232  0.09847412701270 -2.00518367056706
 1  4.20746165176518 -0.95310752595260  0.35183839983998
 1  4.17981694519452  0.91152986338634 -2.68993736343634
 1  5.33239865156516  2.01366162506251 -2.03442991119112
 1  5.61498880648065  0.56633774127413 -3.03568229922992
 1  6.76311837473747  1.36695069506951  0.03017566036604
 1  6.35395951535154 -0.38513655105511  0.54403412011201
 1  7.42508989368937 -1.28432766796680 -1.28241956555656
 1  7.90944338023802  0.12256546464646 -2.10160308390839
 1  8.88898094969497  0.81671955695570  0.16523415561556
 1  8.95344383308331 -0.64687019321932  0.66859472317232
 1  10.45183273467347 -0.15218268056806 -1.91452634213421
 1  9.41079606510651 -2.31381935843584 -2.18323424822482
 1  11.07243979967997 -2.23685046894689 -1.70672491639164
 1  9.92661554755476 -2.99316125812581 -0.67568700840084
 1  11.60623830473047  0.66004823502350  0.45789727722772
 1  11.30603365676568 -1.09531549284928  0.90482110371037
 1  13.03184650355036 -1.47307546874687 -1.09414708230823
 1  12.89072282478248  0.25510620162016 -1.36860022132213
 1  13.79888132483248  0.76907946394639  0.73342068506851
 1  13.91585433853385 -1.05242484718472  1.23985050155016
 1  15.01734502300230  0.70024950995100 -1.20317467546755
 1  15.61166860976098 -2.25515580768077  0.04359290539054
 1  15.19395244594459 -2.04740711631163 -1.75545296039604
 1  16.77467709710971 -1.49605513041304 -1.10790225972597
 1  15.90388558925893  1.14121195489549  0.76127267156716
 1  16.45565001220122 -0.23952312741274  1.36911967316732
 1  18.30065100380038 -0.33455000240024 -0.45611895229523
 1  17.68828589308931  1.09615693459346 -1.04250782658266
 1  18.40055084768477  2.27001115881588  0.98047605290529
 1  18.77399455975598  0.81961614261426  1.76077607790779
 1  20.74290920362036  0.44647079527953 -0.14390732673267
 1  19.96439054565456  3.33562712461246 -0.91960555395540
 1  21.38694294639464  2.32306895969597 -1.52249361266127
 1  19.70808471287129  1.92896470727073 -1.96620358935894
 1  21.21011698689869  1.55841395049505  2.15704532173217
 1  22.32529423572357  1.77813904360436  0.80240520682068
 1  20.93266299619962  3.11498158145815  1.34747518801880

