%nproc=4
%Mem=2GB
# td=(NStates=1) CAM-B3LYP/6-31G(d,p) 

TD

0 1
12 -7.17194776777678  0.66400514861486  0.09413710111011
 6 -4.83639825782578 -2.01178235663566  0.46572310501050
 6 -4.81237116601660  2.82867131443144  1.04725109000900
 6 -9.41171590709071  3.11389688518852 -0.39734259395940
 6 -9.51305161886189 -1.79199471047105 -0.89478590769077
 7 -5.10052347694769  0.37702752085209  0.70303072137214
 6 -4.27879758585859 -0.70037985998600  0.70287831103110
 6 -2.85137414281428 -0.42082150785079  1.18437879207921
 6 -3.08604204260426  1.08020068836884  1.70415114581458
 6 -4.30302729762976  1.45546629542954  1.08171520142014
 6 -3.05002008410841  1.22417470557056  3.22021343024302
 6 -1.87423088408841 -0.55215047644764  0.02745670397040
 6 -0.43129055165517 -0.43338768596860  0.57340146944694
 6  0.57837897509751 -0.76796030893089 -0.55934131463146
 8  0.26910815091509 -1.19575498309831 -1.65726205790579
 8  1.80241205170517 -0.50842823922392 -0.16109289818982
 7 -7.04462491039104  2.63878946874687  0.14709340484048
 6 -5.99647892689269  3.39184015981598  0.76334986858686
 6 -6.43581083418342  4.81309559895990  0.65009569676968
 6 -7.72081478847885  4.82457308880888  0.26510490179018
 6 -8.12341661326133  3.46709590489049 -0.05840329402940
 6 -5.38900685738574  5.84028649454946  1.05792055255526
 6 -8.61190898849885  5.96251728542854  0.24744172957296
 6 -8.38117200850085  7.16929304790479  0.75144139393939
 7 -9.15995826842684  0.66617947904790 -0.38160219391939
 6 -9.94558081778178  1.75976592969297 -0.53846017011701
 6 -11.28489758635864  1.41877021612161 -1.03332505200520
 6 -11.31445384928493  0.11835719981998 -1.14130284428443
 6 -9.96196187688769 -0.46661863616362 -0.90905592169217
 6 -12.33548237193719  2.48594916591659 -1.28809558435844
 6 -12.44407895419542 -0.68107551765177 -1.84675548404840
 6 -12.31861935033503 -0.77586999819982 -3.35332045064506
 7 -7.20557002530253 -1.36051566516652 -0.16522119911991
 6 -8.23649388918892 -2.20550572267227 -0.49450440564056
 6 -7.86210235583558 -3.53211147864786 -0.54832210951095
 6 -6.57993187728773 -3.53770810781078 -0.06295802770277
 6 -6.19718231463146 -2.18564684598460  0.07394019821982
 6 -8.69823729112911 -4.74336717911791 -0.95073355175518
 6 -5.37585205550555 -4.37852173567357  0.18485135773577
 8 -5.19234807270727 -5.54689917331733  0.30343737443744
 6 -4.16149972937294 -3.41031682148215  0.44652451775178
 6 -3.62550318121812 -3.76203142444244  1.87314768766877
 8 -3.76922852345235 -3.20777751395139  2.90531321242124
 8 -2.71657285098510 -4.73788851125112  1.74473305420542
 6 -2.09468005590559 -5.24651888098810  2.99015395089509
 6  2.84309682138214 -0.86337413201320 -1.08301950235023
 6  4.15795788478848 -0.46384456075608 -0.31615176417642
 6  5.04130761516152  0.35984224962496 -0.87939771247125
 6  4.97156557955796  1.10578322762276 -2.22409657495750
 6  6.36542087488749  0.39230108030803 -0.09209569476948
 6  7.55301283918392 -0.14683503040304 -0.93758070857086
 6  8.89317118971897 -0.15474060446045 -0.08535034783478
 6  10.20405102960296 -0.56666373807381 -0.77727869836984
 6  10.04202090229023 -1.98041897799780 -1.34233769876988
 6  11.51471434833483 -0.23972775357536 -0.00005913731373
 6  12.81766667436744 -0.37002105320532 -0.74226424932493
 6  13.92975244364436  0.00315911311131  0.18562563006301
 6  15.26310243514351 -0.15661939103910 -0.36322456225623
 6  15.64838650755076 -1.68424605840584 -0.80016963466347
 6  16.52390649654966  0.37369172917292  0.47534204140414
 6  17.80760534993499  0.60933233163316 -0.26743255785579
 6  18.83893426292629  1.38793701070107  0.62619305230523
 6  20.27479614881488  1.42272260576058  0.10300506370637
 6  20.51935328912892  2.14328262546255 -1.22192318501850
 6  21.20762169296930  1.93347628392839  1.21590695409541
 1 -3.93125460996100  3.54985050645065  1.21567615451545
 1 -10.22271266396640  3.65176601160116 -0.57489288078808
 1 -10.31490477987799 -2.54486382718272 -1.25116176837684
 1 -2.59246570347035 -1.12550086398640  1.92835352655266
 1 -2.16582018721872  1.65484906750675  1.56161681208121
 1 -2.01947640514051  1.40487093999400  3.56201991549155
 1 -3.28689374937494  2.37927198469847  3.47499966536654
 1 -3.73064650735073  0.35283996799680  3.79285169796980
 1 -1.95848833373337 -1.51596155655566 -0.37731164036404
 1 -2.12514418691869  0.25329257965797 -0.73680371997200
 1  0.01535801840184  0.56062067596760  1.08599899899990
 1 -0.29079688168817 -1.06662117731773  1.44288824402440
 1 -5.63628240364036  6.74559320342034  0.55140084928493
 1 -5.28773576297630  6.19168253135314  2.19192548964897
 1 -4.41900585658566  5.53803496989699  0.68537171277128
 1 -9.42114416691669  5.95823197129713 -0.43883411161116
 1 -9.00078129402940  8.07400813971397  0.67571719351935
 1 -7.41777124292429  7.08638503800380  1.48673705920592
 1 -12.39033313841384  3.07102742874287 -2.25704870957096
 1 -13.36882655185518  2.23256714791479 -1.43384457595760
 1 -12.60428215931593  3.32164081878188 -0.51014225822582
 1 -12.34930970937094 -1.75902534763476 -1.51227618251825
 1 -13.36672539143914 -0.35015175197520 -1.50529605710571
 1 -13.17687404000400 -1.42328701490149 -3.55074495899590
 1 -12.69718328252825  0.08400386278628 -3.90308380408041
 1 -11.44896117541754 -1.24986985408541 -3.64701332133213
 1 -9.18953855685569 -4.62793353625363 -1.81509477357736
 1 -8.08469783458346 -5.70687069126913 -0.93998361136114
 1 -9.44269415431543 -4.90594561586159 -0.06372819541954
 1 -3.41543223912391 -3.51632488318832 -0.18178344984498
 1 -1.34370253675368 -4.42389882958296  3.60022293759376
 1 -2.91764137273727 -5.47772939053905  3.61298413731373
 1 -1.45854396589659 -6.09491876507651  2.70396434933493
 1  2.77401670577058 -1.74438627452745 -1.30650461546155
 1  2.71558903650365 -0.28959467986799 -1.99533268546855
 1  4.46075698129813 -1.07503971917192  0.68977219321932
 1  3.93890285378538  1.14962367276728 -2.62356072577258
 1  5.39485489718972  2.03493375227523 -2.25357182538254
 1  5.52753006060606  0.55747685518552 -2.94859359035904
 1  6.60188225112511  1.37693169316932  0.13982662546255
 1  6.25972009140914 -0.25247328472847  0.78609832653265
 1  7.24739212391239 -1.14069330453045 -1.01939326292629
 1  7.71073350925093  0.33365657375738 -1.77153007660766
 1  8.96610866246625  0.80361824682468  0.37486511871187
 1  8.88640712941294 -0.86516202240224  0.84139200290029
 1  10.21671922332233  0.12110464816482 -1.66554144364436
 1  9.14678966446645 -2.16272424892489 -1.84883080788079
 1  10.94377693339334 -2.21070785468547 -2.02629687358736
 1  10.10779366536654 -2.74178612061206 -0.45776521622162
 1  11.46706438733873  0.80578280848085  0.41050253775378
 1  11.45050810421042 -0.88185414671467  0.96777739933993
 1  13.09420273917392 -1.42753091429143 -1.08510617821782
 1  12.90516426892689  0.28069876087609 -1.59845320662066
 1  13.78742017871787  1.13696625262526  0.43736107910791
 1  13.67193994709471 -0.73105270997100  1.10525704220422
 1  15.46348963746374  0.49926941194119 -1.22877723572357
 1  15.30001744464446 -2.14699499159916  0.24251279737974
 1  15.27363041374137 -2.13765614121412 -1.49754716981698
 1  16.70082971237124 -1.66920244514451 -0.88019948944894
 1  16.12648784948495  1.08484631833183  1.07756430073007
 1  16.55434988218822 -0.27941711681168  1.41739450065006
 1  18.08401934063406 -0.34695124252425 -0.43948728912891
 1  17.64762182668267  1.39598691759176 -1.20716429222922
 1  18.56322711531153  2.50766492419242  0.80803880918092
 1  18.78731589188919  1.06709089008901  1.68350835113511
 1  20.54034894759476  0.29771591979198  0.08853591759176
 1  20.44775888248825  3.26591015291529 -1.24531812521252
 1  21.58479273137314  1.99469612241224 -1.51865322862286
 1  19.83680758515852  1.91927373817382 -1.97585455445545
 1  21.02606858205820  1.22985109420942  2.17446706390639
 1  22.16021772807280  1.90338156785679  0.93903887018702
 1  21.19797952785279  2.98436852015202  1.38132857335734

