%nproc=4
%Mem=3GB
# td=(NStates=1) iop(3/107=0140000000,3/108=0140000000) CAM-B3LYP/6-31G(d,p) 

TD

0 1
12 -7.18409310101010  0.52720110361036  0.06654302430243
 6 -4.88948776527653 -1.94152138273827  0.48795419781978
 6 -4.83920995159516  2.81467018491849  1.21635174037404
 6 -9.40957772227223  3.07092464546455 -0.42616509180918
 6 -9.58015411341134 -1.72828459415942 -0.86040284518452
 7 -5.17793482468247  0.42835892649265  0.73839166316632
 6 -4.30171241854185 -0.69779092229223  0.80102799749975
 6 -2.97232345294529 -0.32976137413741  1.28167383648365
 6 -3.03564679157916  1.06035473707371  1.73959023832383
 6 -4.39741997669767  1.47096174727473  1.20981537543754
 6 -3.06493267406741  1.20683350265027  3.24847016161616
 6 -1.86953268296830 -0.62283827302730  0.11023483378338
 6 -0.43174888408841 -0.34474772277228  0.48569195149515
 6  0.57555947914791 -0.66784340624062 -0.59536932703270
 8  0.33996421322132 -0.96417019471947 -1.72067946104610
 8  1.83694229262926 -0.45395533393339 -0.15618100570057
 7 -7.07047469086909  2.62338554845485  0.25602652675268
 6 -6.01232137593759  3.41996576397640  0.61639751585159
 6 -6.31284619301930  4.77601446504651  0.67351561026103
 6 -7.66008079337934  4.82033383858386  0.45999212561256
 6 -8.10135966346635  3.46310324912491  0.10315831443144
 6 -5.39880191409141  5.89476895059506  1.05387554275428
 6 -8.40861086908691  6.08529879947995  0.13855446794679
 6 -8.34727313731373  7.27862701240124  0.77350140944094
 7 -9.09769881098110  0.60362735713571 -0.48881545544554
 6 -9.90905839213921  1.78029135343534 -0.73287610111011
 6 -11.24269822252225  1.53794323882388 -1.14122898259826
 6 -11.23075256245625  0.12406995279528 -1.27910793909391
 6 -9.98445604920492 -0.38239843324332 -0.81717391869187
 6 -12.26131706940694  2.48852409380938 -1.30094954765477
 6 -12.36674046694669 -0.75143126692669 -1.73940327092709
 6 -12.31851376027603 -1.13073326562656 -3.25918656985699
 7 -7.25683864626463 -1.36980181588159 -0.08806148124812
 6 -8.31113543984399 -2.21810035553555 -0.36102768266827
 6 -7.89860189999000 -3.62750330173017 -0.45423572337234
 6 -6.56626441694169 -3.58001098319832 -0.10565264696470
 6 -6.22533626532653 -2.19130708650865  0.05852768816882
 6 -8.80658299779978 -4.86638273667367 -0.69680306340634
 6 -5.46185164806481 -4.40723428682868  0.09092406650665
 8 -5.34768576087609 -5.61054791179118  0.13715966456646
 6 -4.28389289188919 -3.38271571897190  0.55730405200520
 6 -3.63883806060606 -3.73577151985199  1.81239720822082
 8 -3.74488727212721 -3.20374773267327  2.93839719791979
 8 -2.76409176197620 -4.82755137363736  1.71278031553155
 6 -2.38586754375438 -5.27065227112711  2.97271467186719
 6  2.80807712811281 -0.59566785568557 -1.24904842204220
 6  4.26159704490449 -0.49544481238124 -0.56778934173417
 6  5.15122061336134  0.43853038103810 -0.91211408840884
 6  5.12956668226823  1.15782345764576 -2.20158429342934
 6  6.50022630133013  0.55337595359536 -0.15470599499950
 6  7.70088154075408  0.03106455845585 -1.02189251795180
 6  9.02853056465647 -0.11171298739874 -0.15365146754675
 6  10.23413887448745 -0.43902556575658 -0.92012773277328
 6  10.31550482708271 -1.87140502040204 -1.47253421942194
 6  11.48935359915992 -0.15984087518752 -0.10453841634163
 6  12.90298803430343 -0.35392542604260 -0.73255076017602
 6  13.99518078987899 -0.14895060936094  0.18243465506551
 6  15.35986197719772 -0.24525360896090 -0.52708836133613
 6  15.64063033403341 -1.65344373267327 -0.91092291859186
 6  16.48615560826083  0.27422393969397  0.51869660436044
 6  17.81676926462646  0.57122085168517 -0.22709923692369
 6  18.79355977457746  1.13685176367637  0.81740499719972
 6  20.18324112851285  1.27997743024302  0.26824353035303
 6  20.34091693749375  2.04945225032503 -1.04657935383538
 6  21.01877694469447  1.94138583848385  1.41454539453945
 1 -4.04397476097610  3.52269552095210  1.49413550935094
 1 -10.17638976227623  3.98647092159216 -0.53949847604760
 1 -10.34754917901790 -2.44326986208621 -1.26517433683368
 1 -2.68468575577558 -1.08159836253625  1.90749724042404
 1 -2.24752821912191  1.73761582268227  1.38832248124813
 1 -2.11348443484348  1.06333543994399  3.57284762216222
 1 -3.37363447254725  2.31182040484048  3.59002702490249
 1 -3.84482728322832  0.64272942724272  3.83607529272927
 1 -2.06101122012201 -1.43744441524152 -0.39630763786379
 1 -2.24092046104610 -0.06949933013301 -0.74131086568657
 1 -0.10450587928793  0.57814740204020  0.86847071007101
 1 -0.34672309260926 -0.91357212381238  1.21484494279428
 1 -5.91335551325133  6.67502501450145  0.65520535183518
 1 -5.11370284158416  5.88171105250525  2.24025603810381
 1 -4.31665651025103  5.60624489248925  0.47934866746675
 1 -9.15453571337134  5.93574695669567 -0.72612396509651
 1 -8.78821788548855  8.23770349134914  0.34280405610561
 1 -7.71153908600860  7.45287212361236  1.57018597889789
 1 -12.08854932793279  3.29973912101210 -2.12018785028503
 1 -13.01597889558956  2.02544128652865 -1.78532426062606
 1 -12.71475250795080  2.98055538963896 -0.34400483998400
 1 -12.17053901880188 -1.54705562836284 -1.17307080798080
 1 -13.27514981408141 -0.25215792629263 -1.46360211461146
 1 -13.16139133833383 -1.78834249634963 -3.56084704280428
 1 -12.33778418411841 -0.27551602290229 -3.84767374577458
 1 -11.42629746914691 -1.71416244344434 -3.29179745794579
 1 -9.10729534813481 -4.91901840264026 -1.68533459645965
 1 -8.16214059925993 -5.76166211951195 -0.36321627672767
 1 -9.40222440144015 -4.99289773817382  0.13043077437744
 1 -3.55969348784879 -3.66914351995200 -0.45137287538754
 1 -2.02147553515352 -4.28360057345735  3.74910662826283
 1 -3.33016945424542 -5.73781330623062  3.37928896659666
 1 -1.41961248174818 -5.92009279407941  2.91312467356736
 1  2.59774782958296 -1.52099872267227 -1.75070651935194
 1  2.67102354365436  0.05455354015401 -2.05540659815982
 1  4.34628511521152 -0.91372978677868  0.24885628582858
 1  4.13124843634363  1.25474101680168 -2.55291577727773
 1  5.57991492369237  2.29159958385839 -2.17391482988299
 1  5.62362193069307  0.48524971587159 -3.08935519241924
 1  6.53889207310731  1.58633861446145  0.05426504040404
 1  6.28821669376938 -0.08880621732173  0.79313550905090
 1  7.54442656545655 -1.01376204920492 -1.51469622682268
 1  7.71361391989199  0.95510461346135 -1.79641046394639
 1  9.26484252855285  0.80388988648865  0.38333076117612
 1  8.88170129092909 -0.69454780748075  0.61851797519752
 1  10.33177780958096  0.30203635143514 -1.74547970597060
 1  9.58817842694269 -2.32822110561056 -2.20042842474247
 1  11.34821396199620 -2.10704410371037 -1.91844720282028
 1  10.09101129822982 -2.52316643134313 -0.64709210291029
 1  11.42050369196920  0.74638107150715  0.39017678847885
 1  11.47730532603260 -0.79489078667867  0.85535185528553
 1  13.04064201670167 -1.26011343064306 -1.22674494599460
 1  13.05102093199320  0.14477941394139 -1.55462979667967
 1  13.81466288658866  0.79275463876388  0.58558338703870
 1  13.99343765436544 -0.76100247914791  1.09401177517752
 1  15.33181358275828  0.46870026702670 -1.28841010981098
 1  15.23829762656266 -2.12995233643364  0.04286615111511
 1  14.99733137753775 -2.10509502950295 -1.73166453995399
 1  16.69374765436543 -2.18231912891289 -1.15895240854085
 1  15.97714098759876  1.06177451115112  0.83895981228123
 1  16.62009608740874 -0.51494777957796  1.29442793749375
 1  18.27330406810681 -0.57840435443544 -0.71125132073207
 1  17.84683199279928  1.17875676977698 -1.10592633623362
 1  18.52169122602260  2.20071133913391  0.99501144794479
 1  18.64910087258726  0.52572741224122  1.86581982748275
 1  20.60541037333734  0.26867786538654  0.02291818401840
 1  19.82509932843285  2.96673745024502 -1.05712789748975
 1  21.45010881168117  2.16894803690369 -1.41572955415542
 1  19.89453785138514  1.32656294649465 -1.90872925732573
 1  20.92901675517552  1.33248888978898  2.30123379217922
 1  22.15669356215621  1.91992246294629  0.92295894949495
 1  20.98958903740374  2.97398351555155  1.35054219091909

