%nproc=4
%Mem=2GB
# td=(NStates=1) CAM-B3LYP/6-31G(d,p) 

TD

0 1
12 -7.25196576957696  0.51757050515051  0.14052173957396
 6 -4.81142576057606 -2.00076125452545  0.50271680438044
 6 -4.86201613051305  2.82799124642464  1.17658402330233
 6 -9.46892162766277  3.13870936643664 -0.43615647534753
 6 -9.59201951565156 -1.75971148214821 -0.85776220532053
 7 -5.17270069466947  0.37657747584758  0.78192861116112
 6 -4.36505621172117 -0.65693551555156  0.73235125832583
 6 -2.96233523892389 -0.30362978867887  1.19900025422542
 6 -3.09734317271727  1.08367103540354  1.76684741544154
 6 -4.43871086598660  1.43888463726373  1.18896592649265
 6 -3.20956603870387  1.07044933303330  3.32984439333933
 6 -1.91593505450545 -0.55859112051205  0.12338629692969
 6 -0.46130355295530 -0.31682602980298  0.59327345664566
 6  0.57163830103010 -0.58320183308331 -0.48289366986699
 8  0.24413565366537 -0.99864527212721 -1.58499483118312
 8  1.88322013251325 -0.36967436383638 -0.05022181108111
 7 -7.18325877377738  2.58276386618662  0.37150584608461
 6 -6.06475575457546  3.33664464026403  0.84203773737374
 6 -6.52182943604360  4.78722301170117  0.80783147034703
 6 -7.72844555155516  4.87122775427543  0.35602399369937
 6 -8.16963123472347  3.47539673497350  0.09588213451345
 6 -5.58144610131013  5.79639210511051  1.18370313081308
 6 -8.50945874347435  5.92466350005001  0.00966795219522
 6 -8.45706959825983  7.10546666526653  0.76205245504550
 7 -9.19546181878188  0.56708957005701 -0.55811984568457
 6 -9.96765302500250  1.76125607870787 -0.72038836293629
 6 -11.19162825942594  1.46491483058306 -1.18122984248425
 6 -11.33433583748375  0.04976034013401 -1.36145485948595
 6 -10.03620930163016 -0.44172614691469 -0.95877089318932
 6 -12.33284210791079  2.44433500450045 -1.60710748554856
 6 -12.42989753605361 -0.79097650775078 -1.89015982448245
 6 -12.20571806020602 -1.07436984818482 -3.34441956055606
 7 -7.19657912621262 -1.47003661726173 -0.11792646964696
 6 -8.30210044984499 -2.17294246634663 -0.45585054025403
 6 -7.86188233383338 -3.53651191869187 -0.40861813911391
 6 -6.50726461056106 -3.60703504050405 -0.03559529142914
 6 -6.11534413081308 -2.22987126842684  0.16471927612761
 6 -8.64445191259126 -4.67522036443644 -0.87793627202720
 6 -5.34783925422542 -4.32948683218322  0.20811368396840
 8 -5.16641547944795 -5.58352283568357  0.27906493719372
 6 -4.20446402580258 -3.33883967376738  0.58220808610861
 6 -3.33766439733973 -3.59608482978298  1.84806517941794
 8 -3.58567016761676 -2.97577431363136  2.89075175627563
 8 -2.52174336803680 -4.61496621902190  1.71376995789579
 6 -1.87975856375638 -5.10003423252325  2.91880681618162
 6  2.85923843554355 -0.57684547914791 -1.05093629402940
 6  4.19068115711571 -0.40543872017202 -0.57968811781178
 6  5.19114259865987  0.47341360676068 -0.94716448914891
 6  5.07974639763976  1.28669131843184 -2.25349951525152
 6  6.45163949674967  0.48349019921992 -0.15753223842384
 6  7.69330686858686  0.02710236333633 -0.92563951445144
 6  8.94195606820682 -0.01986711711171 -0.01520333313331
 6  10.24137476197620 -0.48204527622762 -0.83178414891489
 6  10.06962366256626 -1.91453238933893 -1.43752721772177
 6  11.44154703160316 -0.31085486628663  0.00204107270727
 6  12.78235314301430 -0.42751680278028 -0.66518654155416
 6  13.99465893429343 -0.12190339313931  0.26515358285829
 6  15.34912103700370 -0.40475420452045 -0.41142938273827
 6  15.65145681458146 -1.82816044984498 -0.85504512221222
 6  16.42777688358836  0.23024738473847  0.49840434763476
 6  17.80024461386138  0.48019941834183 -0.34926074067407
 6  18.75225559505951  1.17626584358436  0.70190062306231
 6  20.23330199939994  1.23649398289829  0.06998176137614
 6  20.35884723852385  2.14554285148515 -1.21083207590759
 6  21.19190012081208  1.80568350465046  1.16610197359736
 1 -4.07148863336334  3.50834635603560  1.60050463736374
 1 -10.08267866056606  3.89373020802080 -0.87258264976498
 1 -10.37780106950695 -2.62617195799580 -1.01823847604761
 1 -2.69682613951395 -1.01158947284728  2.03526421762176
 1 -2.31208481368137  1.83153673627363  1.38509916031603
 1 -2.37917237473747  0.62751320422042  3.82917663116312
 1 -3.03113817381738  2.04278833633363  3.52321448684868
 1 -4.27248069076908  0.80678536253625  3.40787320012001
 1 -1.99165165006501 -1.67332729312931 -0.26961087028703
 1 -2.16720839333933  0.32898014841484 -0.66644668426843
 1 -0.28990250765077  0.62025663956396  1.05318571767177
 1 -0.37687548954896 -1.02158667386739  1.32223617881788
 1 -5.80094887028703  6.81898054215422  0.62139784898490
 1 -5.59061605100510  6.30774413751375  2.12346864396440
 1 -4.46464042004200  5.53058422482248  0.90015319091909
 1 -9.17232928542854  5.67102325042504 -0.80894112231223
 1 -9.11228244414441  7.92774351325133  0.34706432823282
 1 -7.59806927272727  7.03642004150415  1.54690307580758
 1 -11.98502260736074  3.29351967796780 -2.32431543624362
 1 -13.37114678387839  2.02930682188219 -1.87566875837584
 1 -12.36044777587759  2.91428008270827 -0.59975121912191
 1 -12.54207898629863 -1.78161760686069 -1.46175113001300
 1 -13.37361608050805 -0.39095583238324 -1.73384891239124
 1 -12.88850520312031 -1.82048673487349 -3.78601848634863
 1 -12.21650521472147 -0.29378391599160 -4.07829132483248
 1 -11.29151543084308 -1.64345921302130 -3.52528114811481
 1 -9.19824942794279 -4.48322906580658 -1.94952821692169
 1 -8.02188155295529 -5.71622162636264 -0.99448906190619
 1 -9.38918880378038 -4.87207222852285 -0.05800762336234
 1 -3.54589528542854 -3.47424067476748 -0.31659693119312
 1 -1.09148731523152 -4.19449588928893  2.97584049934994
 1 -2.65532514111411 -5.15562718031803  3.72629546844684
 1 -1.33712182368237 -6.03680295349535  2.50091404430443
 1  2.74120342444244 -1.62248408430843 -1.45458942394239
 1  2.60647812541254  0.10271455105511 -1.79287243944394
 1  4.21989289488949 -1.09535175037504  0.35449866586659
 1  4.10166913041304  1.19235794619462 -2.64390275997600
 1  5.21564697639764  2.28381864076408 -2.03801026922692
 1  5.97326463406341  1.02116322382238 -2.83677240824082
 1  6.69345140804080  1.51688568856886  0.17176981978198
 1  6.27395151455146 -0.22388042544254  0.58069778647865
 1  7.50274765946595 -0.85222445764576 -1.37382870647065
 1  7.96351878777878  0.75224843294330 -1.66586951055105
 1  9.00436248784878  1.04667255225523  0.25157278947895
 1  8.89377786648665 -0.58611411761176  0.96578444214421
 1  10.18055560696070  0.43348588628863 -1.65702059155916
 1  9.12508749424942 -1.96006398289829 -2.01714763956396
 1  10.84290684638464 -2.17345412931293 -1.93320756465647
 1  9.94199708570857 -2.52807474947495 -0.44046348604861
 1  11.37375505640564  0.76835906610661  0.32357384488449
 1  11.19218227162716 -1.04755071637164  0.74379500110011
 1  12.88328164706471 -1.34979314051405 -1.33277094469447
 1  12.79522327482748  0.32834352535253 -1.39057241854185
 1  13.82102353905391  0.88207076307631  0.60889823282328
 1  14.01433418651865 -0.88508811351135  1.15561207770777
 1  15.38276156465646  0.34115360036004 -1.37492185018502
 1  15.80951839473948 -2.54598489058906 -0.07938939283928
 1  14.68927197789779 -2.18266064166417 -1.46194360946095
 1  16.60030966036604 -1.63170869576958 -1.50927239673967
 1  16.17470267096710  1.27767560126013  0.70984752905290
 1  16.60601504870487 -0.39526870197020  1.38708146934693
 1  18.42912385108511 -0.58768531593159 -0.56271961236124
 1  17.51921898639864  0.84379169806981 -1.36444001980198
 1  18.40412120472047  2.14910906860686  1.03500150545054
 1  18.68038519881988  0.58880306130613  1.69816981728173
 1  20.60279519221922  0.14857100530053 -0.18501143714371
 1  20.20121422802280  3.17314087598760 -0.91187478087809
 1  21.37393164526453  1.91377803060306 -1.57885924922492
 1  19.56140004440444  1.82307411821182 -2.01748871787179
 1  21.18410438563857  1.46363447254725  2.16436605380538
 1  22.27173888018802  1.81228245794579  1.12249721602160
 1  20.85005473537354  3.05125520882088  1.33004344484448

