%nproc=4
%Mem=2GB
# td=(NStates=1) CAM-B3LYP/6-31G(d,p) 

TD

0 1
12 -7.08808938193819  0.57362611071107  0.06611429882988
 6 -4.80855547354736 -2.00272145054505  0.55648218091809
 6 -4.77699762866287  2.77342578987899  1.22443880878088
 6 -9.41668640414041  3.05973146864686 -0.43942680238024
 6 -9.38814912861286 -1.77599311031103 -0.96823325242524
 7 -5.16474989958996  0.41105092319232  0.75073549184918
 6 -4.34329403550355 -0.73340316231623  0.94271229442944
 6 -2.95681468686869 -0.51696112181218  1.32037239143914
 6 -3.04328776717672  1.08929159745975  1.77917864856486
 6 -4.34637163206321  1.49689043784378  1.22835986588659
 6 -2.88433351545155  1.34294658275828  3.26078748764877
 6 -1.92206566756676 -0.68797405880588  0.14799875817582
 6 -0.47023444604460 -0.30580492769277  0.49340346964696
 6  0.51671280848085 -0.70947446034603 -0.59384476497650
 8  0.25243648374838 -0.98668407600760 -1.75703203490349
 8  1.82353416391639 -0.44699209560956 -0.16788357725773
 7 -7.11527197509751  2.65699128892889  0.37217591309131
 6 -6.04085336433643  3.38979995579558  0.79675320892089
 6 -6.36952420552055  4.78857314671467  0.81099178637864
 6 -7.68696140314031  4.86332696419642  0.31236962826283
 6 -8.09017328892889  3.53156235153515  0.08813135943594
 6 -5.37883584028403  5.88463092899290  1.04784954545455
 6 -8.49667746534653  5.99337037073707  0.07729471487149
 6 -8.41754564586459  7.22850896949695  0.70916716651665
 7 -9.11518379097910  0.67874073517352 -0.50899493319332
 6 -9.85726198589859  1.81585153825383 -0.63931025512551
 6 -11.20254935153515  1.46781512061206 -1.02055377487749
 6 -11.13940634453445  0.15569093319332 -1.32397111111111
 6 -9.93025870657066 -0.42725469976998 -0.88529354545455
 6 -12.19524834853485  2.49712028302830 -1.40188696349635
 6 -12.28925347164716 -0.72202961306131 -1.73652446094609
 6 -12.23560104850485 -0.99687209840984 -3.27036215481548
 7 -7.15843531183118 -1.37178679227923 -0.13773845084508
 6 -8.20586082588259 -2.21476664876488 -0.53587854305431
 6 -7.83441958755876 -3.61494976247625 -0.57213449074907
 6 -6.54213809790979 -3.60157449444945 -0.18350008190819
 6 -6.11378397479748 -2.15128340964096  0.08906171037104
 6 -8.67280474787479 -4.78038088048805 -0.90999947834783
 6 -5.33421789208921 -4.44423830733073  0.20685355795580
 8 -5.14216305420542 -5.66776125952595  0.11146817751775
 6 -4.08487206660666 -3.41429721952195  0.69249911521152
 6 -3.65302593349335 -3.75673089438944  2.01589196209621
 8 -3.85940754135414 -3.10022675887589  3.03525620672067
 8 -2.74889608330833 -4.69896461886189  2.04222280318032
 6 -2.22657324522452 -5.18061229032903  3.19118405390539
 6  2.75142765446545 -0.71926972157216 -1.15821702210221
 6  4.14218630763076 -0.41279945624562 -0.55153530253025
 6  5.12115559996000  0.32928919431943 -1.11953172587259
 6  4.98707713071307  1.13458610791079 -2.40562472777278
 6  6.45807013981398  0.36901875207521 -0.38798528372837
 6  7.54588212611261 -0.33531387828783 -1.10392734323432
 6  8.91641351395140 -0.18525365576558 -0.31973378617862
 6  10.13753437793779 -0.60034710641064 -0.98033900440044
 6  10.10586728692869 -1.98668960506051 -1.67821128612861
 6  11.34448732563256 -0.29946372717272 -0.15571470287029
 6  12.74839974767477 -0.56466051715172 -0.78297832073207
 6  14.01184065246525 -0.11684288708871  0.05675274277428
 6  15.29857598249825 -0.24928865796580 -0.61840007980798
 6  15.68241991089109 -1.72317995179518 -0.98039765746575
 6  16.39901400730073  0.27594195419542  0.35327983518352
 6  17.69855444484448  0.58076947534753 -0.24333014761476
 6  18.69685005450545  1.25381359835984  0.89489992299230
 6  20.10418908810881  1.53417375087509  0.46619138233823
 6  20.33087444124412  2.44104240144014 -0.81919291199120
 6  20.98262919371937  2.08184112041204  1.59237460086009
 1 -3.95227671217122  3.40767628902890  1.39429401630163
 1 -10.17144753745375  3.84821565656566 -0.59829522102210
 1 -10.33827711711171 -2.24989433023302 -1.37769442164216
 1 -2.61379783668367 -1.11070938483848  2.24687537873787
 1 -2.30768437363736  1.62362594519452  1.26521717211721
 1 -1.76002045954595  1.20173062596260  3.65610932443244
 1 -3.07300236023602  2.47556161366137  3.32865503090309
 1 -3.59421286398640  0.72342702670267  4.18437084988499
 1 -1.97278976387639 -1.68851881228123 -0.18070197939794
 1 -2.34939661216122 -0.14820757035704 -0.77304734433443
 1 -0.27258077547755  0.84522913681368  0.66345674477448
 1 -0.22401020302030 -0.85694020922092  1.55649960516052
 1 -5.48414719011901  6.87686633073307  0.64850055925593
 1 -5.41259824922492  6.03422678577858  2.12436873397340
 1 -4.38840279627963  5.48340950735073  1.03378655425543
 1 -9.16630868336834  6.03603975207521 -0.78176840504050
 1 -8.84168538443844  8.00141087998800  0.35419504130413
 1 -7.70785025082508  7.32230863036304  1.66632501800180
 1 -11.91446555165517  3.17263758975898 -2.31637464216422
 1 -12.98846851605160  1.97433132433243 -1.72747393889389
 1 -12.39340107120712  3.33600225492549 -0.45634687868787
 1 -12.32025680408041 -1.65386483158316 -1.34461941684168
 1 -13.22692141104110 -0.11233797059706 -1.57115264276428
 1 -13.06923327592759 -1.66996168236824 -3.48389827432743
 1 -12.31975553975398 -0.06897143474347 -3.87676117181718
 1 -11.19371565086509 -1.51109597669767 -3.59459807980798
 1 -9.15670527352735 -4.73540428332833 -1.97608087218722
 1 -8.07486685148515 -5.68889889408941 -0.70633024602460
 1 -9.41203108800880 -4.75057007830783 -0.09909173177318
 1 -3.31209190509051 -3.57792104280428  0.14260898939894
 1 -1.75753391989199 -4.41461790149015  3.93048596389639
 1 -3.12505211381138 -5.69379099669967  3.87655049394939
 1 -1.43941205270527 -5.76786605980598  2.97442139503950
 1  2.95203450755076 -1.74905674157416 -1.41878584358436
 1  2.62592006960696 -0.19169488988899 -2.10514366656666
 1  4.33994490009001 -1.05625784098410  0.29847306330633
 1  3.97223618711871  1.09974868526853 -2.92097046674667
 1  5.33819923162316  2.19353961286129 -2.28319478767877
 1  5.63228053565356  0.74970607810781 -3.00320905190519
 1  6.66780884378438  1.39157315731573  0.05032767556756
 1  6.25006912631263 -0.14687272467247  0.70868058475848
 1  7.38230561526153 -1.48419765496550 -1.22010333393339
 1  7.84373680958096  0.21428463656366 -2.05817874147415
 1  8.97472952455245  0.85728361336134  0.02261989418942
 1  8.74478296699670 -0.87149265546555  0.58003586728673
 1  10.18348589999000  0.26947948564856 -1.79137402690269
 1  9.32185717121712 -2.07600557705771 -2.37639356415642
 1  11.03113566926693 -2.22459924382438 -2.27651189508951
 1  10.06179906590659 -2.73454539653965 -1.01613105280528
 1  11.26786446734673  0.91400363056306 -0.02196070857086
 1  11.27756080948095 -0.92151811311131  0.96251687328733
 1  12.97275059395940 -1.65553371457146 -0.67052472007201
 1  12.67626137863786 -0.12127143614361 -1.74159752105211
 1  13.72597403410341  0.99603215921592  0.21346868986899
 1  14.15153790689069 -0.63949355405541  0.88550506700670
 1  15.32188547704770  0.32464194919492 -1.45109946794680
 1  15.47806524942494 -2.41750204230423 -0.28625007890789
 1  14.85929898059806 -1.96206858245825 -1.96415383048305
 1  16.79626925632563 -1.68727425232523 -1.13836530603060
 1  16.14329953065306  1.30927876157616  0.79510605490549
 1  16.32745719291929 -0.26359553465347  1.27439020022002
 1  18.17930886958696 -0.28675522292229 -0.70392373277328
 1  17.62799986448645  1.35920323922392 -1.05820939673967
 1  18.33589438203821  2.22026618431843  1.34374237953795
 1  18.80464762506251  0.39092327332733  1.68416841714171
 1  20.40800571327133  0.50751689988999  0.12813987798780
 1  20.02144625122512  3.43849741164116 -0.45865945934593
 1  21.47734198629863  2.36761341414141 -1.08595995929593
 1  19.91573547794779  1.90117192799280 -1.75616258525853
 1  20.89707568276827  1.57262537163716  2.54771438863886
 1  22.21641334763476  2.06466769646965  1.47817278357836
 1  20.72447217711771  3.17433751705171  1.66796723722372

