%nproc=4
%Mem=3GB
# td=(NStates=1) iop(3/107=0140000000,3/108=0140000000) CAM-B3LYP/6-31G(d,p) 

TD

0 1
12 -7.12758745044504  0.63781216471647  0.12708907890789
 6 -4.82792160866087 -1.94261149174918  0.46365176757676
 6 -4.78374440504050  2.78859757765777  1.05408551375138
 6 -9.37577434193419  3.16933448644865 -0.38498097339734
 6 -9.58157425542554 -1.72069383508351 -0.80830763566357
 7 -5.17219425062506  0.40346643724372  0.74647247124712
 6 -4.34016626392639 -0.73853499669967  0.91121901660166
 6 -2.90914713531353 -0.42705110311031  1.20810647974797
 6 -3.03622684958496  1.05956465806581  1.70022630193019
 6 -4.40786102080208  1.50898554965497  1.11870626452645
 6 -2.94906108690869  1.20834365366537  3.24260957555756
 6 -1.94895062476248 -0.76367235643564  0.06276008630863
 6 -0.49134484368437 -0.53624687268727  0.50577395969597
 6  0.45426734993499 -0.72689931183118 -0.61849163926393
 8  0.17446766356636 -1.14421819951995 -1.76233362646265
 8  1.76916551495150 -0.50513045144514 -0.28614400200020
 7 -7.09817746114611  2.67054026392639  0.36350727482748
 6 -5.98973911771177  3.47327109450945  0.72951882798280
 6 -6.33637854625463  4.76680354395440  0.67375563426343
 6 -7.62988777407741  4.87042884808481  0.22719884628463
 6 -8.02716224372437  3.54051098989899  0.05665366396640
 6 -5.35310734463446  5.87654712841284  1.18526868206821
 6 -8.42183219121912  6.10495076467647 -0.08865825332533
 6 -8.45858426842684  7.30829997969797  0.51371543084308
 7 -9.06605564666467  0.68231522592259 -0.39925649954996
 6 -9.86530401670167  1.85902922722272 -0.60274308780878
 6 -11.20126407910791  1.53479292379238 -0.99588444814481
 6 -11.29509899709971  0.18607615341534 -1.10575060336034
 6 -9.99365696929693 -0.28872906630663 -0.76386858815882
 6 -12.30564150185019  2.57159240064006 -1.24477393009301
 6 -12.44559835273527 -0.74126024982498 -1.52356168676868
 6 -12.37915982488249 -1.17272746504650 -3.01137178837884
 7 -7.24776773917392 -1.38689352505251 -0.19180185528553
 6 -8.31590591689169 -2.22668121362136 -0.55597717761776
 6 -7.82723476327633 -3.60299085048505 -0.50661096089609
 6 -6.54993278377838 -3.52013499559956 -0.21834391609161
 6 -6.14522825452545 -2.16379433523352  0.03812564796480
 6 -8.89701204070407 -4.69324542294229 -0.72175555865587
 6 -5.42523798669867 -4.44869843324332  0.09939491359136
 8 -5.22037302960296 -5.53220007700770  0.02489843844384
 6 -4.28275277787779 -3.33992143954395  0.41915023662366
 6 -3.62690686748675 -3.77621556425643  1.69532550105011
 8 -3.80507329072907 -3.36845420332033  2.71671502970297
 8 -2.72192754555456 -4.79784840334033  1.53926296379638
 6 -2.16149510651065 -5.26761196709671  2.75112251265127
 6  2.76442276267627 -0.63966225512551 -1.22943646084608
 6  4.10062094729473 -0.55799106700670 -0.56295885868587
 6  5.07881337263726  0.27176370437044 -0.92766564356436
 6  5.08973269886989  1.10688836413641 -2.11897603260326
 6  6.39088536723672  0.39071968796880 -0.15552607700770
 6  7.58900035263526 -0.15949449744974 -0.84297462616262
 6  8.94997270887089 -0.03638545464546 -0.04010011241124
 6  10.23559902050205 -0.61910357355736 -0.73651937193719
 6  10.16065934253425 -2.16348422832283 -0.97898486448645
 6  11.50875553935393 -0.17980287138714  0.05298733623362
 6  12.87994573007301 -0.41118115161516 -0.67195470057006
 6  13.99087035883588 -0.01249696399640  0.21803821542154
 6  15.28475446644664 -0.13361244484448 -0.38138379087909
 6  15.71473774477448 -1.55880426872687 -0.78137996429643
 6  16.42491948464847  0.55952246954695  0.46990172487249
 6  17.87927551525152  0.57251098069807 -0.17833436043604
 6  18.84983540214021  1.32777085558556  0.63730698739874
 6  20.38234103850385  1.33726315881588  0.16256296229623
 6  20.46352919871987  2.11107841294129 -1.20807550345034
 6  21.19450451745174  1.97391909180918  1.22069600960096
 1 -3.78024838833883  3.41399465086509  1.35388148394840
 1 -10.21134325762576  3.93680595509551 -0.66278080428043
 1 -10.17539196329633 -2.53022855795580 -0.91919973937394
 1 -2.79487677487749 -1.08233843654365  1.96908339903990
 1 -2.13405687198720  1.54914697579758  1.24796844584458
 1 -1.88712179857986  0.63069217561756  3.50924126152615
 1 -2.82212932203220  2.08590781358136  3.71724974717472
 1 -3.70925372587259  0.51313646794679  3.61247293249325
 1 -2.15539065806581 -1.86135680648065 -0.25449345644564
 1 -2.13687005600560  0.10850847064706 -0.66871360596060
 1 -0.45837126582658  0.51456104340434  0.93431729472947
 1 -0.08401682198220 -1.27081784838484  1.28861231953195
 1 -5.66289046674667  6.73639115111511  0.77717754905491
 1 -5.33867533883388  6.20074295569557  2.12345435793579
 1 -4.29010385498550  5.61831609960996  1.03270400300030
 1 -9.02346260606061  5.78275165716572 -0.78868022072207
 1 -9.36619568326833  8.03326304730473  0.28114789048905
 1 -7.81355928802880  7.70485732213221  1.33552251255125
 1 -12.14547502050205  3.32235138223822 -2.09481531303130
 1 -13.37051434913491  2.13527226962696 -1.29684541274127
 1 -12.37129816251625  3.29488682278228 -0.52414285378538
 1 -12.58936090099010 -1.57942886568657 -0.99601310221022
 1 -13.44011631073107 -0.19790250075007 -1.33758951335133
 1 -13.12940814001400 -1.79530319241924 -3.15760671877188
 1 -12.30471087678768 -0.25372384368437 -3.72131110951095
 1 -11.50150498989899 -1.95136616381638 -3.34556283448345
 1 -9.29903452205220 -4.55042154295429 -1.74413047604760
 1 -8.52209659485949 -5.59927588088809 -0.61741169626963
 1 -9.56634081308131 -4.69559800820082 -0.09239150785079
 1 -3.52882040054005 -3.71798840444044 -0.48770650875087
 1 -1.55134852245225 -4.61269348274828  3.32813453105311
 1 -3.14221065836584 -5.43215274017402  3.40336137383738
 1 -1.80651117161716 -6.20793157795780  2.40417377847785
 1  2.45567362216222 -1.59333595639564 -1.60127157585759
 1  2.52217865916592  0.01605969076908 -2.12574363186319
 1  4.03293378007801 -1.16349476327633  0.46370777097710
 1  3.89203451495149  1.30579612231223 -2.50457094279428
 1  5.58855578777878  2.04783520742074 -1.91481892029203
 1  5.55094466296630  0.66750794169417 -2.97747400430043
 1  6.67596578047805  1.51939191979198  0.14674428832883
 1  6.20862873497350 -0.23756109280928  0.76107230273027
 1  7.42588471127113 -1.11395206820682 -1.12301705890589
 1  7.70453301180118  0.49292839583958 -1.76294711761176
 1  9.16361240554055  1.00862035953595  0.26183861196120
 1  8.81357447824783 -0.81764011671167  0.82135825922592
 1  10.25194982678268 -0.24484833703370 -1.79732489048905
 1  9.44846445554555 -2.32532081558156 -1.57063544544454
 1  10.92671181178118 -2.53074647394739 -1.48481383948395
 1  9.96453865096510 -2.77865197989799 -0.17777517121712
 1  11.40863250485048  0.66816324972497  0.29820759155916
 1  11.51604920042004 -0.65150644824482  1.03019934003400
 1  12.87063501600160 -1.49978739803980 -1.16609888138814
 1  12.95216104600460  0.01102603860386 -1.60456479017902
 1  13.88374979527953  0.88625398869887  0.57368219691969
 1  14.01354966556656 -0.58419479837984  1.15080745474547
 1  15.44595499689969  0.56361975897590 -1.28457972677268
 1  15.71145494229423 -1.99128847004700  0.24009587408741
 1  14.93602524692469 -1.99959447944794 -1.38302967646765
 1  16.62675095469547 -1.71139203620362 -1.44891140444044
 1  16.20842411591159  1.46968530223022  0.76200211651165
 1  16.70958503630363 -0.00720700550055  1.42991148584858
 1  18.12009874757476 -0.63850036403640 -0.35863605920592
 1  17.76631394099410  0.99796869096910 -1.13175891949195
 1  18.55998505540554  2.33247451545154  0.61504345114511
 1  18.74722068456846  0.89850468996900  1.78597184268427
 1  20.63303313561356  0.36099709730973  0.09734562676268
 1  20.30511733023302  3.10800157665767 -0.90602278697870
 1  21.49861366216622  1.97279842194219 -1.57128510971097
 1  19.66938533613362  1.58147843804380 -1.90469885428543
 1  21.13837769126912  1.37813345424542  1.99520318911891
 1  22.33929182198220  2.17882835353535  0.92099875347535
 1  21.09301938043804  2.95594171137114  1.51163830053005

