%nproc=4
%Mem=3GB
# td=(NStates=1) iop(3/107=0140000000,3/108=0140000000) CAM-B3LYP/6-31G(d,p) 

TD

0 1
12 -7.18096278797880  0.62100048354835  0.04478084808481
 6 -4.81483029952995 -1.99267649824982  0.50323572597260
 6 -4.81462749334934  2.82249096699670  1.24313441864186
 6 -9.38495526002600  3.15593314631463 -0.39470194549455
 6 -9.58635473347335 -1.67085885158516 -0.81386819171917
 7 -5.18032506370637  0.47944403500350  0.74802262626263
 6 -4.34808705600560 -0.66469761296130  0.84422231693169
 6 -2.93212943354335 -0.34407280528053  1.22578824792479
 6 -2.98783201010101  1.13350205180518  1.58060433973397
 6 -4.45970620532053  1.59223387448745  1.17876227012701
 6 -2.66383256405641  1.41552437173717  3.06080139473947
 6 -1.94743047274727 -0.72145813501350  0.09983379367937
 6 -0.45546125532553 -0.53832708070807  0.57471085338534
 6  0.49035095829583 -0.81720834273427 -0.52625241534153
 8  0.35777599439944 -1.21533531123112 -1.66977437053705
 8  1.79283788218822 -0.58040797919792 -0.04573996159616
 7 -7.18013565696570  2.70848405830583  0.40106103020302
 6 -6.14616476027603  3.39252301970197  0.75620149624963
 6 -6.42038694709471  4.89818668226823  0.72177043574357
 6 -7.74550933623362  4.95248705390539  0.31088721512151
 6 -8.11498102560256  3.52334927372737  0.11392939153915
 6 -5.57906994089409  6.00675014871487  1.13243339853985
 6 -8.58512852085208  5.99381965156516  0.27215782828283
 6 -8.38617702770277  7.26053520322032  0.69713377267727
 7 -9.09479852095209  0.70662765716572 -0.44789136303630
 6 -9.82488997529753  1.87288061236124 -0.60812362586259
 6 -11.14448840154015  1.48122756725673 -1.09685454515452
 6 -11.18306779397940  0.08733627942794 -1.35185521382138
 6 -9.89234683828383 -0.35834602800280 -0.86129833113311
 6 -12.26648758645865  2.51677691909191 -1.43255270797080
 6 -12.43546733963396 -0.57782390619062 -1.67475680628063
 6 -12.55459736863686 -1.10043023532353 -3.22368301950195
 7 -7.23602656505651 -1.37989282498250 -0.21257393249325
 6 -8.24904923122312 -2.26574512001200 -0.61609318921892
 6 -7.83767580738074 -3.58290884228423 -0.54727502730273
 6 -6.49117690819082 -3.50123310541054 -0.14171625332533
 6 -6.16727045874587 -2.16505446124612  0.02511434683468
 6 -8.56268860836084 -4.78772487088709 -0.94919830293029
 6 -5.35895135803580 -4.36819038243824  0.17755272937294
 8 -5.23156414871487 -5.67341419841984  0.24462041064106
 6 -4.11296579917992 -3.32726017341734  0.54587290889089
 6 -3.31656583338334 -3.63796173887389  1.84651061956196
 8 -3.66517930133013 -3.09783714161416  2.86994035223522
 8 -2.55755110791079 -4.77532615111511  1.63675271277128
 6 -1.99933889088909 -5.30922612851285  2.85580298069807
 6  2.77403372377238 -0.87848613751375 -1.03230674787479
 6  4.14353523872387 -0.64025929382938 -0.46621918471847
 6  5.06717220852085  0.26224275227523 -0.95460833783378
 6  4.99677340294029  1.12527020232023 -2.22552668766877
 6  6.36956323502350  0.34231484748475 -0.18119864426443
 6  7.62662411501150 -0.31473002100210 -0.94909523822382
 6  8.92972068366837 -0.12656447254725 -0.23123922632263
 6  10.22396785738574 -0.52157382058206 -0.86838255825583
 6  10.15314859145915 -2.05145302520252 -1.27683464946495
 6  11.47484214801480 -0.24582947404740 -0.04395235773577
 6  12.80634837033703 -0.56875690919092 -0.63111061616162
 6  13.96947821962196 -0.22408812311231  0.18822523412341
 6  15.28628461946195 -0.24246332993299 -0.54937058955896
 6  15.66719299029903 -1.64302269056906 -1.13229505580558
 6  16.31776876957696  0.34811132843284  0.39790452515252
 6  17.85112269997000  0.58210193979398 -0.28251477847785
 6  18.71979239783978  1.34373245174517  0.78752200890089
 6  20.15620842524253  1.39666909940994  0.34150085608561
 6  20.33862670847085  2.21437874297430 -0.93404810071007
 6  20.99781484848485  2.07910961086109  1.31809574957496
 1 -4.11084144764476  3.51323457485749  1.73417951375138
 1 -10.27437956125613  3.84072634713471 -0.65276980318032
 1 -10.61967639173917 -2.18778431353135 -1.15904372377238
 1 -2.86451373857386 -0.89747995069507  2.26622311301130
 1 -2.25001846814681  1.68218027912791  0.91912556155616
 1 -1.57519060546055  1.10971007740774  3.00659099649965
 1 -2.51360846994699  2.58381760456046  3.14348237043704
 1 -3.50413321382138  1.17235238953895  3.82039372457246
 1 -2.13557867686769 -1.69757042784278 -0.37460546764676
 1 -2.04301067006701  0.05022264206421 -0.64374110871087
 1 -0.27062249094910  0.51250083738374  1.12365622862286
 1 -0.23342176247625 -1.30836160276028  1.47286074437444
 1 -5.78689286698670  6.87789530153015  0.67348718001800
 1 -5.70159163046305  6.08968184958496  2.21444345684568
 1 -4.51242608720872  5.84840910891089  0.88804953755376
 1 -9.34503476327633  6.07814119611961 -0.41633298599860
 1 -9.07444650835084  8.03946366736674  0.65453522922292
 1 -7.52323025512551  7.47179401580158  1.46107506780678
 1 -11.78590906390639  3.12241138823882 -2.10568640014001
 1 -13.22228952665266  2.02120086248625 -1.82992872107211
 1 -12.92504353705371  2.97026436053605 -0.51805224472447
 1 -12.52740470537054 -1.39392031483148 -0.89433293419342
 1 -13.49155145424542  0.15488277777778 -1.31770752515252
 1 -13.39634483368337 -1.76792045414541 -3.41385234333433
 1 -12.70254065976598 -0.26366483778378 -3.97761674007401
 1 -11.60195503490349 -1.49199022622262 -3.56418469666967
 1 -8.98909352795279 -4.73992049284928 -1.92738880188019
 1 -8.10625501070107 -5.65700165346535 -0.80625058015802
 1 -9.38584276327633 -4.93490193859386 -0.13085535423542
 1 -3.46218373687369 -3.57672427802780 -0.31175891399140
 1 -1.45350873847385 -4.64237645104510  3.42036375397540
 1 -2.84583102040204 -5.61518104300430  3.36256729442944
 1 -1.34342486298630 -5.99397018181818  2.47495085618562
 1  2.68277633243324 -1.97373399619962 -1.24178562726273
 1  2.68304474577458 -0.32811472667267 -1.88268932643264
 1  4.42016250295030 -1.09441785558556  0.58834023422342
 1  3.96507181868187  1.36620216291629 -2.56187667336734
 1  5.48029496169617  2.03996442034203 -1.87482492089209
 1  5.46333590209021  0.59395058595860 -2.92552880978098
 1  6.79131731563156  1.35895587618762 -0.02668305440544
 1  6.26909478157816 -0.09714705140514  0.75080127562756
 1  7.27057918071807 -1.14094476747675 -1.05241999919992
 1  7.49909246774677  0.33656275927593 -2.16171699459946
 1  9.19030507480748  0.99573907140714  0.17527995609561
 1  8.85327844864486 -0.67164551725173  0.64482060546055
 1  10.39057368916892 -0.00813466566657 -1.85963112111211
 1  9.27240684978498 -2.02106038953895 -1.79076745864586
 1  10.98195733633363 -2.54554795409541 -1.91961731983198
 1  10.02040423752375 -2.65274938963896 -0.42684007770777
 1  11.28737037863786  0.79879631303130  0.35308307910791
 1  11.33180077557756 -0.84440573817382  0.85842216231623
 1  12.87455540804081 -1.77037445674567 -0.90660293179318
 1  12.81225705560556 -0.05185024902490 -1.51285561926193
 1  13.82571399169917  0.71395675897590  0.63697852655266
 1  14.03445175577558 -0.82694907380738  1.12752512651265
 1  15.12191259265927  0.48283168016802 -1.42070333913391
 1  15.63531732853285 -2.38301764296430 -0.22463059855986
 1  14.90401204560456 -1.96568108810881 -1.76848822232223
 1  16.59241752135214 -1.46401729872987 -1.56296280958096
 1  16.11901517501750  1.39687802150215  0.81554747104711
 1  16.32073615141514 -0.13723000780078  1.33780227492749
 1  18.20529726742674 -0.34225073907391 -0.78866906250625
 1  17.70854816441644  1.09781867596760 -1.12251799539954
 1  18.35896495339534  2.50046131413141  0.95830777757776
 1  18.84927088958896  0.56947178667867  1.64181742724272
 1  20.50335016731673  0.20986198379838  0.23685957815782
 1  20.03540035853586  3.22699347584758 -0.75634781948195
 1  21.40655445624563  2.37807894999500 -1.32246022722272
 1  19.82464086168617  1.84081437163716 -1.55948433283328
 1  20.96981083458346  1.59130477137714  2.41257492629263
 1  22.12291018381838  2.10788125882588  1.16604325792579
 1  20.57604768326833  3.18375449264926  1.51727886458646

