%nproc=4
%Mem=2GB
# td=(NStates=1) CAM-B3LYP/6-31G(d,p) 

TD

0 1
12 -7.13129370237024  0.58733748184818  0.09572726012601
 6 -4.85442006000600 -1.95303648204820  0.49581611431143
 6 -4.71418134703470  2.86637508480848  1.16015238013801
 6 -9.43419815531553  3.05251074657466 -0.41921478117812
 6 -9.54996531023102 -1.70703621462146 -0.85903233233323
 7 -5.07896132073207  0.41432125022502  0.76608702700270
 6 -4.35735544164416 -0.71948177017702  0.82683070627063
 6 -2.90774978037804 -0.37404683038304  1.26920727492749
 6 -2.97641107950795  1.10588325662566  1.77308803950395
 6 -4.41416841174117  1.51878262706271  1.13430045994599
 6 -2.83994907700770  1.23335562366237  3.18204961386139
 6 -1.99019248024802 -0.61043630503050  0.00643460176018
 6 -0.43876129872987 -0.36307065426543  0.43147727702770
 6  0.48272941014101 -0.49654316721672 -0.63014839533953
 8  0.21310255035504 -0.81878728632863 -1.89083541524152
 8  1.77324913541354 -0.41600899729973 -0.27340412931293
 7 -7.08549899779978  2.58930452025202  0.31856055155516
 6 -6.07151643064306  3.32173314911491  0.74718825242524
 6 -6.37480473357336  4.71135542494249  0.69949063626363
 6 -7.68608131513151  4.83697432893289  0.44956334763476
 6 -8.20957522912291  3.41018021332133  0.13687623392339
 6 -5.36775473217322  5.83170563646365  1.11256601710171
 6 -8.50247804540454  5.96206724042404  0.19842682808281
 6 -8.41670556185619  7.28354447304730  0.71283753355336
 7 -9.06855912851285  0.65646850795080 -0.57693172687269
 6 -9.82647890759076  1.73690364346435 -0.77322364646465
 6 -11.11990108670867  1.40013835293529 -1.21145286478648
 6 -11.25466787068707  0.06313167726773 -1.25150386438644
 6 -9.89104478517852 -0.39848182248225 -0.86664168026803
 6 -12.26175499919992  2.36870744174417 -1.40213698849885
 6 -12.41691623792379 -0.76899430953095 -1.71958276677668
 6 -12.30920840924092 -1.17734014521452 -3.10444556315632
 7 -7.20910037833783 -1.43942355595560 -0.03134781178118
 6 -8.23527376717672 -2.26178135023502 -0.54352930813081
 6 -7.84574071967197 -3.59566783428343 -0.50369764706471
 6 -6.49856374047405 -3.59734407140714 -0.04782651455146
 6 -6.14338693509351 -2.25056333763376  0.08096090029003
 6 -8.60679814721472 -4.92748559095910 -0.93181165956596
 6 -5.25484995529553 -4.33243712721272  0.28877174977498
 8 -5.06881571947195 -5.50902538593859  0.25312234293429
 6 -4.18648222762276 -3.28597438723872  0.63008287358736
 6 -3.43708433933393 -3.56472169346935  1.88718909180918
 8 -3.73500510111011 -3.05962269846985  3.03337601870187
 8 -2.58355954965497 -4.50735545794579  1.68167674857486
 6 -2.12693328122812 -5.11624585368537  2.85119005450545
 6  2.86464897659766 -0.53808160276028 -1.18705990639064
 6  4.10571266026603 -0.28458663496350 -0.55019516851685
 6  5.09825330973097  0.38196446184618 -0.88806857955796
 6  5.16684510751075  1.24698734803480 -2.19789395469547
 6  6.40883521632163  0.49581143134313 -0.13356984218422
 6  7.58648618651865 -0.11125147204720 -0.92570952145215
 6  8.86645851845184 -0.21815694609461 -0.18129994279428
 6  10.20570119461946 -0.69970704240424 -0.82401337183718
 6  9.98134483468347 -2.14016495259526 -1.36858032303230
 6  11.37555043194319 -0.54016779757976  0.18421929052905
 6  12.69257416511651 -0.50150420152015 -0.67017704060406
 6  13.97618708710871 -0.16642784558456  0.30039710721072
 6  15.20877700260026 -0.22389611871187 -0.53328156795680
 6  15.60677234613461 -1.70109774357436 -1.04336395409541
 6  16.29002310821082  0.43517787778778  0.44747925512551
 6  17.77338192759276  0.49894129252925 -0.11354716931693
 6  18.71226159565957  1.30398861586159  0.71863229622962
 6  20.14015268446845  1.36204653815382  0.20348511171117
 6  20.20476182998300  2.13430172737274 -1.09956094879488
 6  21.11630256105611  2.03591652795280  1.35452081548155
 1 -3.84704618911891  3.54199972137214  1.49088367526753
 1 -10.19688008070807  3.80408124312431 -0.51152654415442
 1 -10.40371366076608 -2.33141248204821 -1.05987263946395
 1 -2.61156761366137 -0.92096040994099  1.96439713091309
 1 -2.23274687988799  1.67140072267227  1.31630228062806
 1 -1.67029148664866  0.97064751765177  3.20036374987499
 1 -2.93641870187019  2.39656371387139  3.57758992439244
 1 -3.39576301900190  0.37646233023302  3.63118553135314
 1 -2.00666315121512 -1.67843780418042 -0.26192010121012
 1 -2.20293196569657 -0.12544529412941 -0.95302534213421
 1 -0.27488100550055  0.56756137003700  0.85167556665667
 1 -0.35768357035704 -1.22682719791979  1.09412336753675
 1 -5.41372014741474  6.64803344744474  0.35413112231223
 1 -5.55544253365337  5.99520288338834  2.18547484458446
 1 -4.24858881488149  5.50624179057906  0.75544872047205
 1 -9.27598965146515  5.74170031813181 -0.52825305350535
 1 -9.05800701660166  8.13089382828283  0.47065668746875
 1 -7.58073753955396  7.39968636813681  1.43372175767577
 1 -12.06195030013001  3.29091941794179 -2.08429143384338
 1 -13.28708837803780  1.76522041324132 -1.68398959045905
 1 -12.45730746184618  2.91043969866987 -0.25593683768377
 1 -12.27948272667267 -1.63294273937394 -1.20437539243924
 1 -13.45962468136814 -0.05771250805081 -1.73024855235523
 1 -13.19346569916992 -1.81279596579658 -3.40410029452945
 1 -11.89085264946495 -0.18612314991499 -3.79359285498550
 1 -11.47842412171217 -1.69970483758376 -3.13962258225822
 1 -9.04661426442644 -4.99020976387639 -2.11036430053005
 1 -8.08106747154715 -5.68670867506751 -0.67539715271527
 1 -9.56948683358336 -5.01665668696870 -0.21292311491149
 1 -3.38478917481748 -3.47237048774877 -0.35482075357536
 1 -1.47597576407641 -4.45162160186019  3.54272718801880
 1 -3.01058066666667 -5.36001761936194  3.49866270517052
 1 -1.56973508500850 -5.89489876307631  2.52295624852485
 1  3.19814911901190 -1.67915975187519 -1.51476544154415
 1  2.55332280988099  0.07634191379138 -2.13897704990499
 1  4.12687359295930 -0.82887510271027  0.42092530853085
 1  4.05765472897290  1.22811152155215 -2.51465983568357
 1  5.41369678137814  2.17867812671267 -1.84190065826583
 1  5.75915322292229  0.64979608710871 -2.95772450345034
 1  6.59580164306431  1.41355535553555  0.24491713451345
 1  5.90281440084008 -0.08453649104910  0.67778749544954
 1  7.22918030273027 -1.16229546474647 -1.30828215181518
 1  7.56443887978798  0.51998520662066 -1.92795571917192
 1  9.31360341194119  0.90664854985499  0.27475510771077
 1  8.44962345104511 -0.90341584778478  0.79356722042204
 1  10.25565311671167 -0.11145860816082 -1.84579946944695
 1  9.11916690219022 -2.31714969146915 -1.91846777157716
 1  10.95325788148815 -2.40184696859686 -1.83671791569157
 1  10.01799468546855 -2.91895383738374 -0.65622506220622
 1  11.29425710661066  0.34681691189119  0.62857434493449
 1  11.37095014841484 -1.56027198849885  0.85034565616562
 1  12.75558887778778 -1.54073223442344 -1.06540420802080
 1  12.51050480298030  0.28195888688869 -1.44621798309831
 1  13.81063249994999  0.81328388438844  0.51949929292929
 1  14.20993374647465 -0.78247785248525  1.15809232573257
 1  15.00345363386339  0.39394887988799 -1.34647900590059
 1  15.85768321122112 -2.27844813691369 -0.16171762566257
 1  14.72654570527053 -2.13908628422842 -1.72681009610961
 1  16.55874550395040 -1.57995352025202 -1.72334380388039
 1  16.06100130083008  1.45214304800480  0.67831437573757
 1  16.27240168736873 -0.31955113021302  1.26209897109711
 1  17.93053399209921 -0.53907045444544 -0.19856319671967
 1  17.38778584308431  0.81547886678668 -1.10767434323432
 1  18.07653844644464  2.16808096579658  0.89338734403440
 1  18.44983214351435  0.86912109310931  1.72871287158716
 1  20.59630454315431  0.39466561476148  0.11764882888289
 1  19.82461656825683  3.23147670957096 -1.03195678907891
 1  21.19138339043904  2.17707436023602 -1.44449581288129
 1  19.76986089048905  1.53329514031403 -1.86593356235624
 1  20.89269524472447  1.56410451955196  2.37095671287129
 1  22.38237994429443  2.10038126782678  1.20003496979698
 1  20.80196992689269  3.03856393969397  1.45526596709671

