%nproc=4
%Mem=2GB
# td=(NStates=1) CAM-B3LYP/6-31G(d,p) 

TD

0 1
12 -7.22598317131713  0.54618336643664  0.07915560296030
 6 -4.78748336633663 -1.92158333673367  0.53135966866687
 6 -4.76444637353735  2.81251969926993  1.03105947084708
 6 -9.35189992549255  3.06715221072107 -0.37123998369837
 6 -9.40640095379538 -1.78700421142114 -0.86447287638764
 7 -5.10061348594860  0.39861968006801  0.78300871917192
 6 -4.25983568966897 -0.67075689768977  0.72593061626163
 6 -2.91347035243524 -0.34174360006001  1.22211256545655
 6 -2.88840227862786  1.09894256255626  1.64486521722172
 6 -4.39101609650965  1.48321907070707  1.08161519141914
 6 -2.82398748084809  1.20513280138014  3.17422883178318
 6 -1.91321478247825 -0.61977723912391 -0.00192623432343
 6 -0.46258368096810 -0.50276462366237  0.43574770407041
 6  0.43228436563656 -0.69793330623062 -0.61110649114912
 8  0.16895813591359 -1.06836224382438 -1.72640897259726
 8  1.68662047254725 -0.40083748014801 -0.21099788868887
 7 -7.06181662956296  2.62514810461046  0.32667136263626
 6 -6.04890416941694  3.34025500130013  0.76928046164616
 6 -6.39571682478248  4.77731202060206  0.77261794899490
 6 -7.74289699669967  4.86079671117112  0.32577096839684
 6 -8.10172444404441  3.47417661296130  0.08203074937494
 6 -5.48087604430443  5.89593205910591  1.06543130363036
 6 -8.61716951455145  5.95565659935994  0.26541352675268
 6 -8.45611950325033  7.26488260686069  0.65774202400240
 7 -9.11368364096410  0.62821568266827 -0.51103513721372
 6 -9.86076233593359  1.76738669176918 -0.58750507460746
 6 -11.14530362696270  1.45521386048605 -1.04399611911191
 6 -11.18266066996700  0.05445080918092 -1.31856057005701
 6 -9.87602328302830 -0.46565854015402 -0.81883689978998
 6 -12.25221404510451  2.51853242424242 -1.44027080188019
 6 -12.42602714901490 -0.67080449054905 -1.80561136963696
 6 -12.33573106150615 -0.94587699889989 -3.34614973357336
 7 -7.15976544484448 -1.34991460506051 -0.09665434243424
 6 -8.18858909870987 -2.27107227932793 -0.45731068626863
 6 -7.78439458505851 -3.61539980748075 -0.41489876717672
 6 -6.42979686378638 -3.53498783578358 -0.04959669156916
 6 -6.11447404380438 -2.15954423572357  0.11752455665567
 6 -8.65897336473647 -4.74936777917792 -0.77412589098910
 6 -5.27832230253025 -4.39028291179118  0.21896476907691
 8 -5.11545038293829 -5.55538002140214  0.13532056275628
 6 -4.10880445984598 -3.27107289708971  0.50686055135514
 6 -3.59424005490549 -3.73539876117612  1.84884525742574
 8 -3.72588418901890 -3.09704644084408  2.85654833593359
 8 -2.74434562826283 -4.70867558995900  1.75765434633463
 6 -2.26928751665167 -5.32758698779878  2.99694462996300
 6  2.80790330203020 -0.66143393799380 -1.08176937733773
 6  4.11293338233823 -0.45774395069507 -0.42220236923692
 6  5.10188367276728  0.38753501890189 -0.81866163886389
 6  4.91499992299230  1.28463111241124 -2.16591075637564
 6  6.42226655945595  0.49128097829783 -0.18047453265327
 6  7.67390492839284 -0.17190753765377 -0.88135508600860
 6  8.97802967556756 -0.09507463786379 -0.10997281008101
 6  10.21965258975898 -0.41658873057306 -0.82815378587859
 6  10.22446914711471 -1.85799673577358 -1.39815328032803
 6  11.37262013891389 -0.30525430623062  0.10529139773977
 6  12.78953386108611 -0.51786583768377 -0.60070009290929
 6  13.93298276667667 -0.28166936973697  0.22315938343834
 6  15.31443756865687 -0.33300702980298 -0.38265650545055
 6  15.54282595149515 -1.80031766556656 -0.78952857055706
 6  16.47962206810681  0.20918527852785  0.46460096729673
 6  17.72565715511551  0.50349174757476 -0.17126294089409
 6  18.74937530703070  1.34898311531153  0.67417785078508
 6  20.22546121532153  1.48479881338134  0.17044180738074
 6  20.17287864166417  2.13009130633063 -1.28891988468847
 6  21.08555948674868  2.13848678497850  1.16716207960796
 1 -3.90592207670767  3.44484000540054  1.41193578047805
 1 -10.06065645834583  3.74821565656566 -0.61987737923792
 1 -10.10495378477848 -2.47796713751375 -1.14961161336134
 1 -2.57936439333933 -1.09920823472347  1.94552524372437
 1 -2.29574317951795  1.66014959755976  1.15897654805481
 1 -1.88338279577958  0.73534398729873  3.54863857735774
 1 -2.78599365936594  2.25774983248325  3.49208137353735
 1 -3.82325576827683  0.74638932293229  3.65773818661866
 1 -2.05573805870587 -1.47819778017802 -0.44756866606661
 1 -1.95294696719672  0.06672392279228 -0.89027906750675
 1 -0.42849636703670  0.49480409430943  1.09295969506951
 1 -0.10820862286229 -1.31961647684768  1.25862981818182
 1 -6.08088686408641  6.76844548864886  0.50101581078108
 1 -5.58671566096610  6.00544390749075  2.12280857795780
 1 -4.34591854785479  5.66512767916792  0.70004317991799
 1 -9.53556560906091  5.75066121422142 -0.36146637483748
 1 -9.24539575547555  7.90777151605161  0.25006462826283
 1 -7.75273473927393  7.53968036753675  1.28889727522752
 1 -11.86332043714371  2.94869519551955 -2.45608861356136
 1 -13.20163983318332  1.94914880608061 -1.41604279577958
 1 -12.38522025312531  3.35426408110811 -0.88650989498950
 1 -12.30105488388839 -1.62073151825183 -1.31773672857286
 1 -13.45597431633163  0.01382464566457 -1.48193372087209
 1 -13.35365171777178 -1.68879356555656 -3.51512139663966
 1 -12.44265782998300 -0.10524506210621 -3.87345084078408
 1 -11.36416269556956 -1.61407627472747 -3.67086570657066
 1 -9.12999260226023 -4.36051679457946 -1.89230249434943
 1 -7.85549491429143 -5.62029203340334 -1.06051566456646
 1 -9.47235712061206 -4.94437945924592  0.00160833823382
 1 -3.32438313421342 -3.35094834553455 -0.29418468996900
 1 -1.89419758625863 -4.52901934163416  3.72618553385339
 1 -3.15827543614361 -5.91594321192119  3.49856269516952
 1 -1.53142125362536 -5.96549582278228  2.56457040994099
 1  2.72678198229823 -1.57195903180318 -1.56433039803980
 1  2.58068554615462 -0.07781350175017 -1.91167431963196
 1  4.24156506210621 -0.93171538673867  0.54957817381738
 1  3.86809577307731  1.54826353675368 -2.38006637633763
 1  5.25377078877888  2.13960421932193 -1.83213968216822
 1  5.37848515611561  0.67180828832883 -3.05458418941894
 1  6.81191325422542  1.61033503350335  0.05498814161416
 1  6.18639275867587  0.13438540114011  0.90459017571757
 1  7.45881326602660 -1.18405764096410 -1.22538386198620
 1  7.77085952185219  0.42311551965196 -1.92324524812481
 1  9.11099315091509  0.97205509050905  0.31686931913191
 1  8.78099658835884 -0.81794730093009  0.78543640734073
 1  10.23233078447845  0.20977351505151 -1.58420330983098
 1  9.36536152165217 -1.91109908640864 -1.97816374117412
 1  11.12493504920492 -2.17791457535754 -2.09533377727773
 1  9.89609249524953 -2.52729467146715 -0.35945538523852
 1  11.25739342024202  0.64249647984798  0.59051053855386
 1  11.51379443284329 -1.03071903320332  0.83428405000500
 1  12.54366768566857 -1.65557371857186 -0.94592225982598
 1  12.89774352685268 -0.17636694569457 -1.59176253755376
 1  13.70303173987399  0.69732228822882  0.51313865686569
 1  14.13050580368037 -0.89718932363236  1.17171368786879
 1  15.29303259175918  0.58106759175918 -1.30885524352435
 1  15.36127357025702 -2.43521381348135 -0.05622707660766
 1  14.96042909360936 -2.06661903750375 -1.77428484358436
 1  16.57939756915692 -1.78328385328533 -1.13904537403740
 1  16.02300750145014  1.03734156785679  0.83817036133613
 1  16.72447689488949 -0.46128530363036  1.26006876807681
 1  18.13632457115711 -0.53539008640864 -0.51763510391039
 1  17.40962802730273  0.97195451435143 -1.08289186498650
 1  18.00297108970897  2.44857901560156  0.75486349164917
 1  18.76807396769677  0.89468364936494  1.67318731903190
 1  20.46565147784779  0.46861300950095 -0.05644858085809
 1  20.29890399699970  3.42642620452045 -0.88438203160316
 1  21.18328258035804  2.26102275507551 -1.71407277057706
 1  19.41169507390739  1.56568837963796 -1.89776674567457
 1  20.88941491669167  1.50210831993199  2.06129574677468
 1  22.05604731103110  1.99247047674767  0.94356932323232
 1  20.73701343124312  3.18917900120012  1.19945038553855

