%nproc=4
%Mem=2GB
# td=(NStates=1) CAM-B3LYP/6-31G(d,p) 

TD

0 1
12 -7.03952452545254  0.61027977607761  0.18072575997600
 6 -4.91099571757176 -1.85388656705671  0.41564809750975
 6 -4.79289921882188  2.86506495379538  1.02149851475148
 6 -9.44730946644664  3.11283677917792 -0.24969782948295
 6 -9.54153446714671 -1.76445195619562 -0.79530595969597
 7 -5.10065348994899  0.47453727182718  0.61099151745175
 6 -4.33785349144915 -0.65020484248425  0.77544556775678
 6 -2.92844184958496 -0.44461388708871  1.16680703490349
 6 -2.98321175957596  1.06444911321132  1.62370310101010
 6 -4.33385037993799  1.57683843264326  1.09376640654065
 6 -2.96541162326233  1.27856014411441  3.18963037193719
 6 -1.87376083708371 -0.62812807420742 -0.00255629732973
 6 -0.45259268186819 -0.43901824902490  0.51655578487849
 6  0.53472460966097 -0.54173768666867 -0.71133651415141
 8  0.13140438053805 -0.88081348894889 -1.83810014171417
 8  1.71842365286529 -0.25703309970997 -0.29827661656166
 7 -7.15920636853685  2.66073166296630  0.36194488998900
 6 -6.03160243924392  3.39639061486149  0.71395492909291
 6 -6.42127938103810  4.74273856325633  0.78373906110611
 6 -7.68192089908991  4.86592722422242  0.35263365466547
 6 -8.14311858345835  3.49914911021102  0.10097264356436
 6 -5.50496845354535  5.91218368426843  1.10373513401340
 6 -8.63585138273827  5.99918095179518  0.12498948434843
 6 -8.54635852715272  7.17590370897090  0.83988023782378
 7 -9.17907017961796  0.66879974107411 -0.52460649434943
 6 -9.85040129982998  1.84032398549855 -0.61093741784178
 6 -11.19289838643864  1.48177651675168 -1.03480520002000
 6 -11.24022642654265  0.05504086818682 -1.16922563656366
 6 -10.00450613131313 -0.45382735703570 -0.80484550065006
 6 -12.30979980368037  2.37106767776778 -1.31956873167317
 6 -12.37589213551355 -0.79879728982898 -1.73624443294329
 6 -12.26821430983098 -1.08836124732473 -3.27692281088109
 7 -7.28162763106311 -1.40047966156616 -0.22442711971197
 6 -8.24210445024502 -2.20352552465247 -0.50164511971197
 6 -7.97126327192719 -3.59210747824783 -0.45456273357336
 6 -6.55981986608661 -3.54105844284428 -0.05006673857386
 6 -6.25083768016802 -2.17316559785979  0.08721152535254
 6 -8.69031649904990 -4.86332917531753 -0.64489296769677
 6 -5.38204267456746 -4.36637052055205  0.21628450105011
 8 -5.11882071997200 -5.55610009340934  0.19886691739174
 6 -4.19973355275528 -3.37264305410541  0.56396626192619
 6 -3.60379101000100 -3.66762198349835  1.89822019491949
 8 -3.91098269886989 -3.11862859905991  2.93116579767977
 8 -2.67752894659466 -4.69331405380538  1.70390897179718
 6 -2.28458904680468 -5.27867209630963  2.95903083858386
 6  2.74706721842184 -0.57034482908291 -1.30123132353235
 6  4.08571066006601 -0.54582275857586 -0.64111426042604
 6  5.21952543694369  0.23130939633963 -1.02976274897490
 6  5.17261568456846  0.93754640394039 -2.42569673497350
 6  6.49913424622462  0.19308115831583 -0.30010649584958
 6  7.67989552745275 -0.37649799669967 -0.91320827132713
 6  9.03796566916692 -0.23312844324432 -0.12375418821882
 6  10.28067869236924 -0.73761083278328 -0.81904287478748
 6  10.17710441064106 -2.19695063116312 -1.36407987298730
 6  11.49210208710871 -0.39480326112611  0.06725759435944
 6  12.78857376507651 -0.54043809490949 -0.61962198509851
 6  13.94459392779278 -0.15709691249125  0.22583965146515
 6  15.35307143204320 -0.16953068216822 -0.44424266406641
 6  15.86262793169317 -1.58318595239524 -0.89313893159316
 6  16.36461056695670  0.52776713671367  0.48211271847185
 6  17.85240983038304  0.70026142454245 -0.14459027362736
 6  18.82521289078908  1.40834905190519  0.77161759475948
 6  20.27924659385938  1.47851818531853  0.21206596979698
 6  20.34818617241724  2.30494879207921 -1.00315130783078
 6  21.15442637343735  1.92655559185919  1.39219458285829
 1 -4.22960444494450  3.51096661806181  1.40910549744975
 1 -10.08053844654465  3.96575741074107 -0.31739713121312
 1 -10.35531882128213 -2.42071141194119 -0.89233588578858
 1 -2.67052350925093 -1.11137945184518  2.07851854305431
 1 -2.27883148834883  1.94281786438644  1.39725037543754
 1 -2.11502596009601  0.88159861276128  3.65309902340234
 1 -2.98089314931493  2.38302235973597  3.38037020242024
 1 -3.75085852855286  0.85879056305631  3.88532094489449
 1 -1.96404888978898 -1.67576753715372 -0.37900180938094
 1 -2.15943761626163 -0.10749349894989 -0.73520355995600
 1 -0.48019153655366  0.64050866476648  0.89249964906491
 1  0.07555975397540 -1.02100661586159  1.32129608480848
 1 -6.19211798719872  6.98294693879388  0.83604931413141
 1 -5.16558354775477  6.01945530863086  2.20789708680868
 1 -4.43441739773977  5.94562572897290  0.50741391699170
 1 -9.38083013551355  5.80533668176818 -0.55618584678468
 1 -9.14791600750075  7.93787452635264  0.59984960676068
 1 -7.69731919771977  7.47126352585259  1.59039742524252
 1 -12.11560566566657  3.01770209620962 -2.30609361406141
 1 -13.20786045524552  1.75700959215922 -1.53914510601060
 1 -12.41408313941394  3.40982963766377 -0.70382162616262
 1 -12.57846262466247 -1.71943138823882 -1.29507446234623
 1 -13.49389810871087 -0.23359009580958 -1.68626415391539
 1 -12.94528088068807 -1.74092877907791 -3.51204108860886
 1 -12.43008657285729 -0.02180671827183 -3.85931942764276
 1 -11.33567984728473 -1.53119798689869 -3.50763938393839
 1 -9.11640124312431 -4.68298904180418 -1.63441670577058
 1 -8.00352971777178 -5.67746775097510 -0.74062367536754
 1 -9.72305219011901 -5.18807382868287  0.01864004140414
 1 -3.36353704960496 -3.60090334103410 -0.06206147764777
 1 -1.85385355185519 -4.36390282998300  3.72423533883388
 1 -3.12558216681668 -5.54394601220122  3.53169600850085
 1 -1.47738585008501 -6.13540281348135  2.84328828172817
 1  2.62092139623962 -1.66546838273827 -1.70081404640464
 1  2.50151762936294  0.01901618121812 -2.31356450865087
 1  3.93482438803880 -1.22329454465447  0.18297151315131
 1  4.13111207470747  0.95998470887089 -2.78018638833883
 1  5.53561897359736  2.02757301620162 -2.18734520272027
 1  6.05979328692869  0.49054016151615 -2.88020675167517
 1  6.54322638553855  1.07936193619362  0.15125776857686
 1  6.30470458985899 -0.46066410381038  0.51121083778378
 1  7.65530291499150 -1.17291652685269 -1.14271559515952
 1  7.83104554045405  0.17219042714271 -1.82557548114812
 1  9.39442149374938  0.77826571157116  0.33575120732073
 1  9.08377686638664 -0.58649415561556  0.85082294599460
 1  10.29402695409541 -0.17308477077708 -1.80181507100710
 1  9.27833281878188 -2.49615759225923 -2.13208913371337
 1  10.99474202990299 -2.56255303920392 -1.96173041694169
 1  10.17085997199720 -2.85011695369537 -0.47034647434743
 1  11.53845152605260  0.70377260746075  0.46341782928293
 1  11.39381243464346 -1.04369033033303  0.95090571217122
 1  12.82806612551255 -1.58988714991499 -1.00599826742674
 1  12.79591334383438  0.31100179117912 -1.45267862916292
 1  13.69135057175718  0.96379893589359  0.51688903190319
 1  14.09855260836084 -0.81963156785679  1.21863838033803
 1  15.38152144064406  0.41013049804980 -1.32498685668567
 1  15.79813725662566 -2.10738103020302  0.05927447354735
 1  15.34748779947995 -2.09412178777878 -1.64935235033503
 1  16.96750638003801 -1.52531805670567 -1.34697616711671
 1  16.06554175487549  1.72620045374537  0.60574711901190
 1  16.64895934313431  0.02519334423442  1.36521928312831
 1  18.33118405710571 -0.13231977937794 -0.39316265666567
 1  17.86904396889689  1.15034235313531 -1.26771034683468
 1  18.52835362796280  2.51601575927593  1.10330833613361
 1  18.83940110041004  0.83950813181318  1.74601460176018
 1  20.67192210491049  0.32385853405341 -0.10585352135214
 1  20.10909501610161  3.31310487238724 -0.98096168956896
 1  21.38799305140514  2.56603325612561 -1.48569993329333
 1  19.83945785018502  1.96047785858586 -1.87021399039904
 1  21.04627060226023  1.22257036613661  2.19608922612261
 1  22.29738144444444  2.02579380908091  1.20236520282028
 1  20.72109183908391  2.78315839913991  1.80865130563056

