%nproc=4
%Mem=2GB
# td=(NStates=1) CAM-B3LYP/6-31G(d,p) 

TD

0 1
12 -7.17375794879488  0.55191393949395  0.01002869026903
 6 -4.84815943394339 -1.97961914031403  0.45839237193719
 6 -4.85461539043904  2.82391083838384  1.25369173407341
 6 -9.44980971647165  3.07891338683868 -0.47330018971897
 6 -9.53405371907191 -1.78498400940094 -0.94681111021102
 7 -5.17312073667367  0.42923274137414  0.75844626292629
 6 -4.35121482758276 -0.71553137513751  0.75356337953795
 6 -2.91895090049005 -0.35653507920792  1.26327668186819
 6 -3.00175361376138  1.14100676897690  1.75025575627563
 6 -4.45081207610761  1.45383613241324  1.25051208110811
 6 -2.96854193629363  1.28011029912991  3.24451586048605
 6 -1.89749321032103 -0.55362062346235  0.08087204550455
 6 -0.46756417901790 -0.38863321052105  0.55890001930193
 6  0.50149128632863 -0.54596810971097 -0.59911529202920
 8  0.29431067116712 -0.91550695829583 -1.74784111581158
 8  1.81236304680468 -0.37297469386939 -0.08193498239824
 7 -7.16994744264426  2.52876846664666  0.33701239673967
 6 -6.09271855085509  3.37569854565457  0.80607414101410
 6 -6.47610486358636  4.78152244164416  0.85128581578158
 6 -7.77315002200220  4.84389502100210  0.26295468676868
 6 -8.18061233283328  3.48897809310931  0.01478402470247
 6 -5.49738769546955  5.87164963086309  1.23358811931193
 6 -8.53786158375837  6.03060409410941  0.15293227862786
 6 -8.43470736203620  7.24778089668967  0.83827007680768
 7 -9.19892216481648  0.61187404850485 -0.55904993869387
 6 -9.90736699639964  1.77256720982098 -0.63436976107611
 6 -11.20990008660866  1.39737807690769 -1.14867658715872
 6 -11.30472287618762  0.12522788688869 -1.24840355435544
 6 -10.04603028372837 -0.43582555685569 -0.92275729182918
 6 -12.31761058475847  2.40799137013701 -1.43492026682668
 6 -12.45093964026403 -0.74007141724172 -1.70370117861786
 6 -12.33281076947695 -1.10467287848785 -3.20371549014902
 7 -7.22262173047305 -1.37315692929293 -0.22688736573657
 6 -8.28814905470547 -2.22159733183318 -0.62948790399040
 6 -7.82855900150015 -3.65741400890089 -0.50069734703470
 6 -6.50909479357936 -3.54344868186819 -0.13264499639964
 6 -6.20713330973097 -2.17084536583658  0.00942374657466
 6 -8.58887635503550 -4.87802064446445 -0.83024150255025
 6 -5.36031050135013 -4.38690257375738  0.10217308990899
 8 -5.25260409830983 -5.57123160656066  0.09595662636264
 6 -4.17702128152815 -3.31400719051905  0.54580444574457
 6 -3.64253488438844 -3.58601382268227  1.87717809070907
 8 -3.81672327292729 -2.99404614081408  2.91653433453345
 8 -2.75868706240624 -4.66659138153815  1.73641222212221
 6 -2.00915150305030 -4.99620384948495  2.98745368086809
 6  2.76005851755176 -0.65398319291929 -1.08170937133713
 6  4.12367445644564 -0.47980615691569 -0.46181633063306
 6  5.16044952935293  0.23881014641464 -0.90806057875788
 6  5.06269469246925  1.20978362766277 -2.07921208650865
 6  6.49557389018902  0.26770862106211 -0.09052553775378
 6  7.61052859075908 -0.23769411631163 -0.91477842834283
 6  8.97827970057006 -0.30507563796380 -0.11697351015102
 6  10.21072169666967 -0.69714678637864 -0.81201217171717
 6  10.17364406460646 -2.31147208330833 -1.08123158815882
 6  11.57163003990399 -0.18295207600760  0.02161302990299
 6  12.76932183988399 -0.64447849894989 -0.71930195309531
 6  14.04920438883888 -0.14087529032903  0.07717478497850
 6  15.38507463236324 -0.30900462956296 -0.64664290409041
 6  15.71594326322632 -1.86908454225423 -0.81603122082208
 6  16.48330243614361  0.38266262626263  0.24703921112111
 6  17.93135772517252  0.61662306070607 -0.26723253785379
 6  18.90783115261526  1.30205842284228  0.66286671967197
 6  20.35656432563256  1.50615094859486  0.22847761096110
 6  20.34593594739474  2.30834913211321 -1.12570356305631
 6  21.18548947974798  2.18818175447545  1.22459782318232
 1 -4.14959644414441  3.62290781218122  1.61941652855286
 1 -10.11064145684568  4.03877471247125 -0.75352074357436
 1 -10.32117540694069 -2.54029337013701 -1.28518517071707
 1 -2.54255071197120 -0.95555386928693  2.00729142034203
 1 -2.25607921312131  1.87584116671667  1.31920257065707
 1 -2.06169062656266  0.98531898479848  3.65188890239024
 1 -2.89206426642664  2.55067912541254  3.54328649404941
 1 -3.74461790449045  0.87457214121412  3.83430584338434
 1 -1.95362784768477 -1.53750371077108 -0.35365927512751
 1 -2.25460713321332  0.28066531693169 -0.75124516411641
 1 -0.34836835423542  0.69612422632263  0.91821222032203
 1 -0.11362916491649 -0.85647016221622  1.34672862806281
 1 -5.64716349174917  6.85747439153915  0.84667037623762
 1 -5.53994098349835  5.95431879497950  2.28532482958296
 1 -4.41286524252425  5.46404757115712  0.96364954055406
 1 -9.61823387588759  6.00601674977498 -0.50780100830083
 1 -9.04437565346535  8.15072581148115  0.60393001480148
 1 -7.46046551235123  7.26763316281628  1.47178556405641
 1 -11.98203230833083  2.72541286728673 -2.43980698539854
 1 -13.20613028222822  1.92910680188019 -1.76870806230623
 1 -12.57325905700570  3.17097575227523 -0.71052229622962
 1 -12.22362714111411 -1.55955540064006 -1.00664561946195
 1 -13.40642936183618 -0.20153689048905 -1.77408293579358
 1 -13.18848520112011 -1.66546123232323 -3.70681056555656
 1 -12.12284584878488 -0.15113965156516 -3.74534803050305
 1 -11.27021330063006 -1.44891975907591 -3.28100672067207
 1 -9.10219982298230 -4.51204194709471 -1.93655691979198
 1 -7.79118848364836 -5.77252725692569 -0.92821243424342
 1 -9.48133801870187 -5.04305932723272  0.04702287968797
 1 -3.36468716461646 -3.43085633633363 -0.23371864336434
 1 -1.47494566106611 -4.02892933263326  3.36695961126113
 1 -2.69998960756076 -5.53254487208721  3.73499633853385
 1 -1.38240635213521 -5.71531080428043  2.61978593149315
 1  2.70242954705471 -1.74090592649265 -1.27840180518052
 1  2.49565704330433 -0.23360908130813 -2.08681183338334
 1  4.52392329792979 -1.31243345854586  0.33374659065907
 1  4.06520548404840  1.41772048244825 -2.49823819351935
 1  5.41978739043904  2.19880013891389 -1.65266173437344
 1  5.58261556915692  0.89309041654165 -3.00140887188719
 1  6.56418848174817  1.32570657065707  0.25597824062406
 1  6.31608572797280 -0.44967300470047  0.66893661036104
 1  7.41473885858586 -1.15517475267527 -1.38320964456446
 1  7.94817725362536  0.65332854095410 -1.57476039963996
 1  9.24835688728873  0.66637452245225  0.31666929912991
 1  8.95927441614161 -1.04904041024102  0.81695955965597
 1  10.25710326172617 -0.07518498079808 -1.84346923642364
 1  9.31563654915491 -2.54835281178118 -1.68817474227423
 1  11.10247280298030 -2.52214899879988 -1.73966821072107
 1  10.19791267726773 -2.63900584258426  0.06166672697270
 1  11.33647132803280  0.89352158235824 -0.05050356285628
 1  11.28129118251825 -0.66873283458346  1.07155777737774
 1  12.75064838373837 -1.74024218541854 -0.83742140974097
 1  12.79947369986999 -0.17827713671367 -1.91155451675168
 1  13.94759619631963  0.80269282528253  0.39397674067407
 1  14.01582433553355 -0.68720832553255  0.97684420092009
 1  15.32319560806081  0.26913639863986 -1.59232359035904
 1  15.67756519941994 -2.46424671677168  0.21812035813581
 1  15.05123817451745 -2.22232460806081 -1.53247066216622
 1  16.69385901530153 -2.01951747664766 -1.16390786028603
 1  16.06661186188619  1.34954278797880  0.61630817511751
 1  16.44265871307131 -0.20895007010701  1.27941070227023
 1  18.35589652835284 -0.39792634003400 -0.56777011741174
 1  17.77198426292630  1.28387570647065 -1.01895547134713
 1  18.64430522312231  2.42336649434943  0.97737574287429
 1  18.83847100740074  0.71198537953795  1.49314931523152
 1  20.56661157385739  0.31014716291629  0.14365142914291
 1  20.13214732133213  3.43141670357036 -0.98874246764677
 1  21.42338659075908  2.31293794659466 -1.44630599389939
 1  19.71501540594059  1.78870068086809 -1.78803577257726
 1  21.24301027622762  1.62678078717872  2.20218983618362
 1  22.23521522782278  2.31244247394739  0.97214218051805
 1  20.65319504940494  3.11075115841584  1.51475191569157

