%nproc=4
%Mem=2GB
# td=(NStates=1) CAM-B3LYP/6-31G(d,p) 

TD

0 1
12 -7.07169774277428  0.59474822292229  0.09967765516552
 6 -4.90091470947095 -1.92882406080608  0.53314984768477
 6 -4.89071900080008  2.76999544684468  1.21049741464146
 6 -9.40912564806481  3.18129362486249 -0.39029188888889
 6 -9.49626994069407 -1.70633614461446 -0.83280971007101
 7 -5.08210163476348  0.47474729282928  0.57140755905591
 6 -4.32892259835984 -0.69866968896890  0.76555457865787
 6 -2.90235924132413 -0.35550497619762  1.12411276547655
 6 -3.10201363976398  1.16449911821182  1.71726245694569
 6 -4.44030102500250  1.52088283708371  1.10939796969697
 6 -3.06045112721272  1.14430671877188  3.30124153305331
 6 -2.00111357235724 -0.51686694809481  0.00871482978298
 6 -0.43883130573057 -0.48471281848185  0.41788591789179
 6  0.54022515971597 -0.81217473037304 -0.68930431093109
 8  0.21908314841484 -1.15867127472747 -1.75014134583458
 8  1.73407521802180 -0.44364176057606 -0.16882367126713
 7 -7.17529797769777  2.58839442924292  0.44436313181318
 6 -6.22801208020802  3.38833980978098  0.90570410401040
 6 -6.52376963006301  4.80901519091909  0.92503319051905
 6 -7.70580328732873  4.90230086158616  0.31970036133613
 6 -8.22233650525053  3.48002719801980  0.01348389468947
 6 -5.55549350605061  5.92826529242924  1.07773253375338
 6 -8.50806860446045  6.05437647134714  0.13711069646965
 6 -8.53077696899690  7.20735685428543  0.80955720552055
 7 -9.07795006760676  0.68207106820682 -0.57726175987599
 6 -9.79301556125612  1.88396834993499 -0.68303462756276
 6 -11.11182027862786  1.46340467956796 -1.15613733323332
 6 -11.17408981288129  0.09834519861986 -1.29563827782778
 6 -9.86650233093309 -0.33682565686569 -0.84274929102910
 6 -12.26127495119512  2.41368193919392 -1.49447622242224
 6 -12.35075962226223 -0.63379078917892 -1.67610841934193
 6 -12.22220970937094 -0.96584899609961 -3.14870998959896
 7 -7.17410687898790 -1.39361897549755  0.00448577157716
 6 -8.27556779657966 -2.25178035013501 -0.44414937013701
 6 -7.79200534613461 -3.58877714521452 -0.42951022832283
 6 -6.43512739683968 -3.51234557155716 -0.06471820372037
 6 -6.13792638903890 -2.14487276857686  0.13532633683368
 6 -8.54294176157616 -4.79215205760576 -0.90764924332433
 6 -5.27099156945695 -4.37053093659366  0.23116598919892
 8 -5.14097293519352 -5.56071055445545  0.15050208090809
 6 -4.17617119651965 -3.37645343514351  0.56183604890489
 6 -3.55009564046405 -3.67169239053905  1.91056142904290
 8 -3.76970857145715 -3.08882561876188  2.98357103820382
 8 -2.77103829752975 -4.74570929332933  1.79317789868987
 6 -2.17635822372237 -5.24798902800280  3.03189812531253
 6  2.74016652835284 -0.75174296889689 -1.17352855325533
 6  4.10049213821382 -0.57785596189619 -0.62011216021602
 6  5.10792427682768  0.22249851525152 -1.08751852455246
 6  5.05732415541554  0.98048069736974 -2.42112627792779
 6  6.40517485028503  0.25649749994999 -0.24261074627463
 6  7.50736827472747 -0.46003635053505 -0.94300125062506
 6  8.86364823742374 -0.07641277167717 -0.22131394419442
 6  10.15837646214621 -0.56971404310431 -0.96293726422642
 6  10.09776647684768 -2.14182511861186 -1.30593405840584
 6  11.40495337223722 -0.32911669246925 -0.18233736513651
 6  12.79271417911791 -0.47563161426143 -0.79494951785179
 6  14.00412988138814 -0.08988019081908  0.09126619411941
 6  15.43130925582558 -0.19876360546055 -0.47180542034203
 6  15.72996466536654 -1.65825345914591 -0.89421903960396
 6  16.48015212111211  0.41662602260226  0.42854736193619
 6  17.90787537693769  0.59947134553455 -0.16246206080608
 6  18.73401377087709  1.35886410341034  0.73402383538354
 6  20.27236590579058  1.46515684918492  0.31231599479948
 6  20.55685703950395  2.35449374657466 -0.95493648634863
 6  21.11827275807581  2.13037597389739  1.47462282568257
 1 -4.14892637713771  3.42256777817782  1.76587117401740
 1 -10.10640103280328  3.89377021202120 -0.39579497099710
 1 -10.14379766916692 -2.55202454325433 -1.33675032723272
 1 -2.78301475837584 -1.18404671857186  1.89690038123812
 1 -2.31838544374437  1.84832841544154  1.42517316771677
 1 -2.18270272777278  0.85688614151415  3.97012072557256
 1 -3.30889594959496  2.07535159265927  3.67160932633263
 1 -3.63885732843284  0.37259194319432  3.59771218401840
 1 -2.16951943684368 -1.37072703310331 -0.55819972917292
 1 -2.19723139563956  0.14708195859586 -0.79465950555056
 1 -0.32367588498850  0.55451006490649  0.84763516261626
 1 -0.53854165616562 -1.29649416461646  1.19223317851785
 1 -5.72605138053805  6.91345999009901  0.39814552375238
 1 -5.73918090749075  6.44104746784678  1.96551284838484
 1 -4.35218917491749  5.81959312571257  0.84157733333333
 1 -9.17098915141514  6.10568671677168 -0.75167539573957
 1 -9.08865008090809  8.12507324622462  0.50424004580458
 1 -7.66115558135814  7.50484688418842  1.48199658515852
 1 -12.21875598069807  3.15478580458046 -2.32219522422242
 1 -13.06812648184818  1.72774666586659 -1.64140533203320
 1 -12.58308003910391  3.22571122582258 -0.66305754975498
 1 -12.53683846224623 -1.61664110921092 -1.22549750465046
 1 -13.37831655055506 -0.16509324612461 -1.42693822132213
 1 -13.06734308690869 -1.51621630783078 -3.39589947444744
 1 -12.26527009120912 -0.15742027962796 -3.89405290099010
 1 -11.22468874817482 -1.31463633073307 -3.21716033603360
 1 -8.87645724872487 -4.43266400930093 -1.88751201530153
 1 -7.85998536333633 -5.80638064226423 -1.04195380838084
 1 -9.35484536943694 -5.11342636393639 -0.13214503710371
 1 -3.45456615251525 -3.58115136583658 -0.15883115461546
 1 -1.27470563706371 -4.42084852455246  3.41210412571257
 1 -3.02102171077108 -5.30546216381638  3.79959279817982
 1 -1.70559867136714 -6.18944821802180  2.78841279417942
 1  2.60342964706471 -1.64470630653065 -1.48759272427243
 1  2.44970244784478 -0.17479319971997 -1.97751090329033
 1  4.39893079867987 -0.95852806800680  0.27219043504350
 1  3.89824878837884  0.92980169056906 -2.57666603630363
 1  5.48856426812681  2.20719097799780 -2.42970943914391
 1  5.68595590319032  0.49025013251325 -3.15613434443444
 1  6.64451651455146  1.28565256525653 -0.04960231743174
 1  6.24118823822382 -0.38847688508851  0.71107082378238
 1  7.34067145184518 -1.67296653185318 -0.96773809740974
 1  7.60359279517952 -0.12575936783678 -2.04842776637664
 1  9.03411546314631  1.02544042904290 -0.19191155895590
 1  8.84437292599260 -0.37423292949295  0.91448931263126
 1  10.19738729012901  0.12849538723872 -1.88635352485248
 1  8.95669065456546 -2.15311328782878 -1.80455638043804
 1  10.79304185988599 -2.57880466436644 -1.98954319821982
 1  10.01704459045905 -2.55906784878488 -0.30658009770977
 1  11.17636531743174  0.74612684288429  0.15337682518252
 1  11.35231828522852 -1.02084804610461  0.60993161476148
 1  12.88543186208621 -1.57014517571757 -0.99524719231923
 1  12.81380513301330  0.08398908990899 -1.61329469076908
 1  13.64117555425543  1.10570312631263  0.32392973597360
 1  13.91872462556256 -0.71854145884588  0.99997651415142
 1  15.18598188668867  0.38412789778978 -1.38353271127113
 1  15.76483392629263 -2.35126541864186 -0.08381983588359
 1  14.88299134983498 -1.86759913551355 -1.63014042914291
 1  16.62053168256826 -1.62557808270827 -1.35433690319032
 1  16.00096529722972  1.36333416711671  0.74424096839684
 1  16.52953740094009 -0.10245942104210  1.46914967616762
 1  18.20233117181718 -0.47750429782978 -0.15458879927993
 1  17.83993105760576  0.82950026892689 -1.31427500330033
 1  18.43954474707471  2.18219237693769  0.96035404070407
 1  18.88853601390139  0.97420160116012  1.85128512881288
 1  20.71576648934894  0.36277242544254  0.19861692569257
 1  20.19446355295529  3.25445900780078 -0.79646323972397
 1  21.61552580468047  2.38132478527853 -1.12155351865186
 1  20.34690859525953  1.72048385918592 -1.81183815281528
 1  20.83007898309831  1.60528863796380  2.42644226142614
 1  22.22047375367537  2.08496972667267  1.31384635093509
 1  21.01883161306131  3.14419450275027  1.69877031753175

