%nproc=4
%Mem=2GB
# td=(NStates=1) CAM-B3LYP/6-31G(d,p) 

TD

0 1
12 -7.10821139413941  0.55587433553355  0.11142883028303
 6 -4.82610722872287 -1.98190936933693  0.58295482818282
 6 -4.75566549544955  2.77808625592559  1.04904126902690
 6 -9.39610434593459  3.19859535503550 -0.35315817551755
 6 -9.42943325702570 -1.73956946794679 -1.06011244034403
 7 -5.06330975557556  0.39598941704170  0.80032045034503
 6 -4.32966267236724 -0.81991181318132  0.86996501970197
 6 -2.89721872727273 -0.43150257595760  1.27034738893889
 6 -3.03810724912491  1.12342501080108  1.72513324402440
 6 -4.38862585748575  1.43524427322732  1.19341637153715
 6 -2.83140822292229  1.27635992409241  3.15781719061906
 6 -1.86731019201920 -0.75380064146415  0.23535749404940
 6 -0.44724214681468 -0.51810615781578  0.71374550385039
 6  0.51590272747275 -0.68132164506451 -0.49832521302130
 8  0.29782102220222 -1.15321072867287 -1.60512684438444
 8  1.77171898239824 -0.32748014441444 -0.17144393329333
 7 -7.23682413031303  2.62562815261526  0.35983467896790
 6 -6.04317359635964  3.29787076287629  0.80052358595860
 6 -6.32046930003000  4.69978426782678  0.66559724692469
 6 -7.55496820382038  4.93547417891789  0.28544693599360
 6 -8.13469774137414  3.51725092039204  0.03432597889789
 6 -5.35051300800080  5.81495396129613  1.08737349784979
 6 -8.46266406400640  6.18760979467947 -0.05541855645565
 6 -8.35996988828883  7.29871599019902  0.74253050285029
 7 -9.10606287888789  0.71241410251025 -0.66028006170617
 6 -9.85142140184018  1.83732368546855 -0.63106943104310
 6 -11.22324142074207  1.53968230733073 -1.10797251675168
 6 -11.22582498639864  0.16019138323832 -1.32866158015802
 6 -9.82549823052305 -0.33396537083708 -0.98536355245525
 6 -12.31347017071707  2.60240081108111 -1.19669644444444
 6 -12.38776332263226 -0.64288169826983 -1.77390819931993
 6 -12.15441292969297 -0.99838224942494 -3.33440855945595
 7 -7.19466893519352 -1.39773938753875 -0.12461713871387
 6 -8.28370861066107 -2.28020319241924 -0.60811576677668
 6 -7.83629977557756 -3.55928419591959 -0.59402667996800
 6 -6.53867775187519 -3.58985332233223 -0.14904663656366
 6 -6.17879047544754 -2.16033431473147  0.15547835203520
 6 -8.64763223062306 -4.80803364576458 -0.94187266566657
 6 -5.37172164246425 -4.43436732023202  0.29080195279528
 8 -5.22840167806781 -5.71160564396440  0.31375840654065
 6 -4.25305888528853 -3.41267705750575  0.61680154545455
 6 -3.54826545744574 -3.78390361166117  1.96603697659766
 8 -3.63034463506351 -3.18615535173517  2.96208888998900
 8 -2.98492968666867 -5.01409613201320  1.82104068496850
 6 -2.31246183408341 -5.35903013211321  3.05022995849585
 6  2.74754726642664 -0.78159595419542 -1.16929813021302
 6  4.14462655165517 -0.51925010131013 -0.55946609560956
 6  5.03461694609461  0.31633789918992 -1.08608838153815
 6  4.88552697569757  1.10914356365637 -2.36528069336934
 6  6.40195452825283  0.44910676087609 -0.40089657485749
 6  7.59512705060506  0.01260091319132 -1.10965791629163
 6  8.86672854545455 -0.10837596799680 -0.21896370917092
 6  10.18051867636764 -0.54006107780778 -0.88713968446845
 6  10.07173387358736 -1.97608854495450 -1.21839530453045
 6  11.36432930983098 -0.15026880768077 -0.08814794619462
 6  12.75690059775978 -0.42676672777278 -0.68587861076108
 6  13.99972944134413  0.02918171537154  0.21452852035204
 6  15.29235536043604 -0.12605633473347 -0.47687592739274
 6  15.66278794769477 -1.68901653545355 -0.81114073177318
 6  16.38415252115211  0.46424078407841  0.46127063426343
 6  17.81224581398140  0.57862926132613 -0.08419423402340
 6  18.82113248274828  1.33611182818282  0.76208664166417
 6  20.28631730093009  1.37832816631663  0.16675143834383
 6  20.27550890469047  2.21185948314831 -1.04109510221022
 6  21.18675960676068  1.94405734203420  1.18815417881788
 1 -3.94401588608861  3.43278880028003  1.36288087498750
 1 -10.02478287098710  3.94198503350335 -0.32838823032303
 1 -10.27001029042904 -2.37599694049405 -1.44159081128113
 1 -2.56492294919492 -0.91068938283828  2.21766245744574
 1 -2.23512711791179  1.53249683228323  1.15987663806381
 1 -1.73763822132213  0.91501195409541  3.64114782828283
 1 -3.05653071307131  2.33098715621562  3.64652681808181
 1 -3.61623506620662  0.62646733073307  3.56748916171617
 1 -1.91130361526153 -1.84619457985799  0.09263535433543
 1 -2.12620429292929 -0.12705545514551 -0.67686772637264
 1 -0.38300181758176  0.57353196709671  1.01464186328633
 1 -0.05533333533353 -1.11066558175818  1.43525748094810
 1 -5.82308108350835  6.67040568466847  0.70012572177218
 1 -5.36402339173917  5.85075843894389  2.20749704680468
 1 -4.41404536053605  5.54648581498150  0.81136431203120
 1 -9.38136018851885  5.90182633073307 -0.55584581278128
 1 -8.71088230413041  8.26545728462846  0.58156777857786
 1 -7.63861332713271  7.30345674517452  1.59247763326333
 1 -12.28985309040904  3.24672499849985 -2.06787979267927
 1 -13.36160582978298  2.23403729492949 -1.08055924742474
 1 -12.18950068116812  3.16538519321932 -0.25254649864987
 1 -12.66161093949395 -1.61729117421742 -1.18408336323632
 1 -13.34632335123512 -0.03207994479448 -1.77108263576358
 1 -13.11177753035303 -1.57553223942394 -3.70728061256126
 1 -12.05633919811981 -0.06333087068707 -3.85136863256326
 1 -11.45682196149615 -1.66861172827283 -3.79726834683468
 1 -9.05613521652165 -4.67362810571057 -2.07026029012901
 1 -7.98539790459046 -5.77124712891289 -0.91130074307431
 1 -9.49784966986699 -4.93595861716172 -0.15105692829283
 1 -3.42116281218122 -3.57224047474748 -0.28931420292029
 1 -1.74543270977098 -4.56376281598160  3.23224613991399
 1 -3.04388399699970 -5.65776739433943  3.76522936183618
 1 -1.73399151065107 -6.43659293249325  2.69897385028503
 1  2.62115141924192 -1.81619345524553 -1.45394935993599
 1  2.56586406400640 -0.14450017041704 -2.16390954315431
 1  4.34375528112811 -0.99423163836384  0.43002621862186
 1  3.84682364586459  1.16230494089409 -2.71607997769777
 1  5.31382679437944  2.15168542744274 -2.53331980018002
 1  5.45096240384038  0.53903501100110 -3.10036876787679
 1  6.38539060196020  1.55413941394139  0.07783042584258
 1  6.26380049944995 -0.24648268566857  0.52568228492849
 1  7.35090247494749 -1.06038527372737 -1.18719004260426
 1  7.76191862776278  0.58697190529053 -2.07116003960396
 1  9.11794384598460  1.02731061606161  0.28841647384738
 1  8.82402089078908 -0.67414292049205  0.80283814751475
 1  10.24303185458546 -0.02197966026603 -1.84133902340234
 1  9.10795578107811 -2.41565954245425 -1.85705162996300
 1  10.99819237493749 -2.09516630053005 -1.89971421532153
 1  10.05011789778978 -2.64684662666267 -0.24189362906291
 1  11.43931161206121  0.90915314551455  0.09911139863986
 1  11.19731278467847 -0.89499546084608  0.86430705230523
 1  12.89591291019102 -1.42653081428143 -0.90519818741874
 1  12.85719947244724  0.06825751675168 -1.68831219251925
 1  13.93288472517252  1.12496505250525  0.28048539153915
 1  13.81843459655965 -0.51037064176418  1.31268778527853
 1  15.34321761026102  0.43772325732573 -1.46895125312531
 1  15.66604404730473 -2.24633492559256  0.15288383448345
 1  14.90161321202120 -1.80074244984498 -1.44102151725172
 1  16.54036366576658 -1.70068559345935 -1.25087655715572
 1  16.18078327902790  1.63014084778478  0.87355389968997
 1  16.42602704990499 -0.21384055915592  1.38736149734973
 1  17.98211915061506 -0.47663421082108 -0.37645098549855
 1  17.93214027852785  0.97642496139614 -1.14117769356936
 1  18.49714050665067  2.30412457015702  0.75487349264926
 1  18.86060322062206  0.97473165416542  1.77861786208621
 1  20.77597250995100  0.39473562176218 -0.08115105110511
 1  19.85743985058506  3.34589815171517 -0.68007160056006
 1  21.27339159125913  2.26853350615061 -1.39705106840684
 1  19.73708761316132  1.82221403220322 -1.97481445044504
 1  21.22561853705371  0.98151626072607  2.01029064626463
 1  22.23355506180618  2.02573380308031  0.98000296659666
 1  20.80774050395040  2.92112219551955  1.37256769726973

