%nproc=4
%Mem=3GB
# td=(NStates=1) iop(3/107=0140000000,3/108=0140000000) CAM-B3LYP/6-31G(d,p) 

TD

0 1
12 -7.16640133183318  0.56507489098910  0.06937330733073
 6 -4.92681149764976 -1.91046827742774  0.59859526192619
 6 -4.69351538213821  2.74316303420342  1.20715082028203
 6 -9.29694645914592  3.18247580058006 -0.38055053035304
 6 -9.59562566056606 -1.71844361006101 -0.95051185608561
 7 -5.08385541674167  0.41370746134613  0.62946077007701
 6 -4.36954920222022 -0.70972211541154  0.78694658935894
 6 -2.97656387698770 -0.45989438743874  1.18090375947595
 6 -3.10137336423642  0.94077277887789  1.72189846914691
 6 -4.39235947064706  1.38960361146115  1.20989538343834
 6 -2.91210739153915  1.07016983628363  3.21480679527953
 6 -1.87978370807081 -0.68512450165016  0.10918472877288
 6 -0.48518422762276 -0.46680992899290  0.46114949724972
 6  0.47469939313931 -0.78651527342734 -0.60122991309131
 8  0.15734595139514 -1.19070284798480 -1.70966835993599
 8  1.74079267766777 -0.58442838123812 -0.29196458405841
 7 -7.01080872427243  2.62397560746075  0.40039096319632
 6 -5.94000414421442  3.36606037343734  0.84393026912691
 6 -6.28235314371437  4.80689755335534  0.92552081078108
 6 -7.64245903120312  4.84785659085909  0.29112523892389
 6 -7.97066659415942  3.46069300810081  0.07401540014001
 6 -5.34620665456546  5.89302877657766  1.25399555475548
 6 -8.44969497749775  6.11233150275027  0.16415702820282
 6 -8.26272468246825  7.32850199989999  0.85426948624863
 7 -9.07093613471347  0.67494448884888 -0.55916249014901
 6 -9.77148463476347  1.85893921822182 -0.73332614611461
 6 -11.20482443514351  1.54577402190219 -1.15107996769677
 6 -11.20836032323232  0.22304985078508 -1.32638266656666
 6 -9.88215581918192 -0.29576977037704 -1.00332253355336
 6 -12.15963690139014  2.59809505090509 -1.48303775647565
 6 -12.35166895979598 -0.56540266406641 -1.92750208080808
 6 -12.14326623552355 -1.12904309660966 -3.31972262346235
 7 -7.30487344974497 -1.38805364106411 -0.25514818991899
 6 -8.28772309860986 -2.20411895739574 -0.62700428032803
 6 -7.99246128592859 -3.58494904630463 -0.42005230503050
 6 -6.58091588208821 -3.57586056815682  0.02037995629563
 6 -6.21922565426543 -2.15929388518852  0.04389622502250
 6 -8.75775811531153 -4.84180027842784 -0.68488187128713
 6 -5.43550901380138 -4.37510107350735  0.21118609270927
 8 -5.26720771307131 -5.56650350735073  0.31916786538654
 6 -4.27780228282828 -3.30824827222722  0.60534885648565
 6 -3.63413759055906 -3.68746668936894  2.02591856035604
 8 -3.88042082548255 -3.18560591849185  3.06443980218022
 8 -2.85343069586959 -4.70803942244224  1.81058009550955
 6 -2.42512146914691 -5.30629583548355  2.98296569696970
 6  2.78771509190919 -0.83732202110211 -1.14939845704570
 6  4.12791367656766 -0.67927319521952 -0.46251881468147
 6  4.96678216951695  0.29546607460746 -0.85597847484749
 6  4.99349307490749  1.08740641594159 -2.13868800380038
 6  6.36293257195720  0.47434805080508 -0.24562508690869
 6  7.60324177677768 -0.16636518451845 -1.00311063976398
 6  8.84487219881988  0.03177136103610 -0.24746084848485
 6  10.15052051265127 -0.55402706590659 -0.94644036403640
 6  10.11007428402840 -2.13452133203320 -1.36307327332733
 6  11.39593425722572 -0.25731062216222 -0.08413637613761
 6  12.79514725022502 -0.47533756725673 -0.83135064016402
 6  13.97667893969397 -0.23561927622762  0.09987639923992
 6  15.33854984598460 -0.09957904150415 -0.57278293079308
 6  15.87742401340134 -1.44358274657466 -0.94657648394839
 6  16.39756674937494  0.59645616291629  0.31454618931893
 6  17.85065265296530  0.66753048264826 -0.20293682068207
 6  18.79218963756376  1.43692177067707  0.78704196089609
 6  20.20082288668867  1.44760419291929  0.26016272227223
 6  20.43897674347435  2.19903720882088 -0.91519621552155
 6  21.19908497549755  2.00941264116412  1.36791073107311
 1 -4.04326468996900  3.32936618801880  1.50056615241524
 1 -9.97498962226223  3.92905518001800 -0.51927645384539
 1 -10.22653707780778 -2.55106064116412 -1.16892471187119
 1 -2.89707699489949 -1.26887709040904  1.81621811251125
 1 -2.31098456475648  1.44564662576258  1.43889753875388
 1 -1.77664075047505  0.74972407880788  3.44537487488749
 1 -3.10530763986399  2.07739696249625  3.45446346854685
 1 -3.66875967646765  0.37321247554755  3.71037272247225
 1 -1.89667478647865 -1.83761443224322 -0.48261626872687
 1 -2.00287665666567 -0.09216159635964 -0.71882861746175
 1 -0.37257268596860  0.56654624192419  0.86000986398640
 1 -0.23588200850085 -1.02132289888989  1.32169562786279
 1 -5.38394257195720  6.84234174617462  0.46479631093109
 1 -5.58389986128613  6.35673855525553  2.22549456195620
 1 -4.23281812641264  5.63007727572757  1.04859559215922
 1 -9.20011027082708  5.82074545654565 -0.46507786048605
 1 -8.94737380108011  8.25544526552655  0.63122289798980
 1 -7.25405333743374  7.43024986138614  1.35919487978798
 1 -11.67905837883788  3.06789593669367 -2.29314514601460
 1 -13.16001329902990  2.12458120052005 -1.69938566676668
 1 -12.14089512221222  3.18552588668867 -0.53046348584858
 1 -12.37390935583558 -1.48379930273027 -1.21750525142514
 1 -13.21032333143314  0.18952624212421 -1.93429918431843
 1 -13.04083928312831 -1.54204786688669 -3.58611957005701
 1 -11.92219262496250 -0.22275074637464 -4.06100507890789
 1 -11.27734257365736 -1.94909593679368 -3.56927520572057
 1 -9.24999961856185 -4.91108760956096 -1.71237730073007
 1 -8.17397178237824 -5.80492644594460 -0.81053100820082
 1 -9.49591377037704 -5.09085753415342 -0.00131239993999
 1 -3.42321984048405 -3.66933353895390 -0.09682742084209
 1 -1.76303969156916 -4.56041825522552  3.44277599519952
 1 -3.09891632893289 -5.85572509740974  3.54732577027703
 1 -1.95259578007801 -6.24826561136114  2.57389075017502
 1  2.60280833563356 -1.77949457225723 -1.54295574427443
 1  2.64839128042804 -0.07213912911291 -1.84126518401840
 1  4.35226571327133 -1.18472688648865  0.44168556875688
 1  4.12957826932693  1.30157570027003 -2.73801428712871
 1  5.22381931413141  2.03724414831483 -2.20109754815482
 1  5.76032560106011  0.63674486538654 -2.86691294819482
 1  6.40302848674868  1.41055103570357 -0.24448483458346
 1  6.26173404550455  0.02214487778778  0.71344754025403
 1  7.41013313611361 -1.24264493749375 -1.00474523172317
 1  7.92928548704870  0.01525062806281 -2.22112293519352
 1  9.08524456875688  1.06220571807181 -0.13937150905091
 1  8.89762288308831 -0.48401675437544  0.85966208960896
 1  10.43132776457646  0.09671581938194 -1.88275343334333
 1  9.39968957805781 -2.31691997549755 -2.04359274117412
 1  10.95985512611261 -2.43889728902890 -1.91990734883488
 1  10.11665386248625 -2.57775188988899 -0.30056745044504
 1  11.50223186478648  0.78255468886889  0.51910968176818
 1  11.61513910941094 -1.01595289288929  0.93418973907391
 1  12.75150310281028 -1.47911533083308 -1.24367663916392
 1  12.87871370127013  0.20769570557056 -1.54035836953695
 1  13.85866728702870  0.79555491879188  0.57277210591059
 1  14.18984729532953 -1.03677005590559  0.86285865986599
 1  15.37948835023502  0.32513591059106 -1.61582285108511
 1  16.11855565236524 -2.19466880808081 -0.04837297279728
 1  15.12950459485949 -1.81411593159316 -1.60819219271927
 1  16.75431371097110 -1.57416831383138 -1.52159867316732
 1  16.22174544804480  1.69829816351635  0.72316823312331
 1  16.60386446424642 -0.11569785458546  1.33622211691169
 1  18.29238597629763 -0.34813132713271 -0.49720991659166
 1  17.61595890549055  1.44441333543354 -1.10378612221222
 1  18.13043210011001  2.47289855785579  1.02631457825783
 1  18.74066002850285  0.99558439793979  1.69558280378038
 1  20.62252208450845  0.41554255185519  0.06045193739374
 1  19.97573439193919  3.16785756225623 -0.85357754245424
 1  21.53328712951295  2.22494363646365 -1.25929391059106
 1  19.94231262886289  1.88265855605561 -1.96738512291229
 1  21.31233508700870  1.25405104600460  2.28719238803880
 1  22.35240313311331  1.74927539823982  1.07046369997000
 1  20.91641171967197  2.89434555175518  1.66865400210021

