%nproc=4
%Mem=2GB
# td=(NStates=1) CAM-B3LYP/6-31G(d,p) 

TD

0 1
12 -7.08837941094109  0.58491723982398 -0.00341265386539
 6 -4.85388000600060 -1.87955913431343  0.54193072577258
 6 -4.85828575747575  2.84491293859386  1.25605197009701
 6 -9.41211594709471  3.01801729722972 -0.52794565426543
 6 -9.44885519921992 -1.83884939593959 -0.94423085218522
 7 -5.08482190679068  0.46600641874187  0.73405382368237
 6 -4.40864057015702 -0.63763358535854  0.88319634283428
 6 -2.93513251865187 -0.29199862556256  1.26077643184318
 6 -3.05229866826683  1.16158882718272  1.83296402710271
 6 -4.42560955585559  1.57913866266627  1.27503453335334
 6 -3.16349143124312  1.20010229832983  3.32362377127713
 6 -1.89600306130613 -0.53018828022802  0.10649460776078
 6 -0.47797522012201 -0.19119346654665  0.52261639093909
 6  0.42605374257426 -0.46675018791879 -0.64897027752775
 8  0.17160840094009 -0.79621502910291 -1.74179051075107
 8  1.78520033053305 -0.36273366976698 -0.17784457335734
 7 -7.15189563746375  2.58779436923692  0.34557325282528
 6 -6.11020029902990  3.37966894269427  0.74458799239924
 6 -6.43945119821982  4.80696498589859  0.76744743194319
 6 -7.77889059605961  4.84531516301630  0.32682107340734
 6 -8.17852212381238  3.51899109440944  0.08974152045205
 6 -5.64242219891989  5.88142060796080  1.24288904940494
 6 -8.62290008760876  5.93464449814982  0.24152113751375
 6 -8.53370726202620  7.24476059465947  0.70085633543354
 7 -9.10520279287929  0.60189305040504 -0.62335636933693
 6 -9.87284354405440  1.71452140524052 -0.77711403550355
 6 -11.28057715431543  1.35712405150515 -1.07339905940594
 6 -11.18257066096610 -0.01753638953895 -1.33100181418142
 6 -9.85352103280328 -0.47773974827483 -1.02107712381238
 6 -12.32296111981198  2.24341491249125 -1.38089486428643
 6 -12.39098364466447 -0.79746715681568 -1.77856866536654
 6 -12.31092858125813 -1.04388679987999 -3.33358847744775
 7 -7.16043551185119 -1.33394300790079 -0.23226790379038
 6 -8.14313455325533 -2.25688086018602 -0.50109506470647
 6 -7.77315346094609 -3.62466073357336 -0.44268154545455
 6 -6.50280416451645 -3.58605294229423 -0.11822355425543
 6 -6.18887148354835 -2.13742202350235  0.16469927412741
 6 -8.67259472687269 -4.78432127452745 -0.66995547394739
 6 -5.21625609590959 -4.39372325582558  0.16935980858086
 8 -5.10869970787079 -5.59148363176318  0.21554858555856
 6 -4.07110068946895 -3.25239102890289  0.59818968426843
 6 -3.57283791469147 -3.63146836813681  1.89660003290329
 8 -3.72429403000300 -3.05157189338934  2.97154983608361
 8 -2.78311950565057 -4.73135785818582  1.78898747964797
 6 -2.15898648654866 -5.08892312141214  3.06846178167817
 6  2.82111462316232 -0.58966676127613 -1.19811101150115
 6  4.13231532053205 -0.43574175047505 -0.58171832083208
 6  5.14029751415142  0.35658192359236 -0.95152492519252
 6  5.04889331233123  1.20240288958896 -2.30088425372537
 6  6.47723205600560  0.38506035623562 -0.21632811801180
 6  7.61931946984699 -0.24399474637464 -0.99004595509551
 6  9.00647251985199 -0.16456158655866 -0.11791360416042
 6  10.24978560306030 -0.62055912761276 -0.81766273677368
 6  10.20081678187819 -2.10938187428743 -1.28817228222822
 6  11.57622049894990 -0.36039982078208 -0.08578771017102
 6  12.86491139883988 -0.54577862896290 -0.76417644054405
 6  14.01169063746375 -0.15062626542654  0.13750081758176
 6  15.42957908280828 -0.20240396949695 -0.61373961376138
 6  15.75406707560756 -1.66692432623262 -1.08621823952395
 6  16.47769187508751  0.37850221022102  0.34389889708971
 6  17.81144573397340  0.47672907130713 -0.22190800540054
 6  18.69947031653165  1.16348456545655  0.79886031903190
 6  20.13945261446144  1.33976430993099  0.23836860006001
 6  20.39409076287629  2.19870816801680 -0.92326331903190
 6  21.10232116291629  1.87728066436644  1.34560992439244
 1 -4.11510299479948  3.62259778117812  1.59451403830383
 1 -10.04373476617662  3.85584641964196 -0.76896228772877
 1 -10.13603689308931 -2.58294763556356 -1.05329198139814
 1 -2.72511896879688 -1.25062337623762  2.00119081028103
 1 -2.19350295549555  1.71307489008901  1.43596424682468
 1 -2.20168462596260  1.16282673557356  3.69484319781978
 1 -3.42846790679068  2.22149620712071  3.54766693209321
 1 -3.82470591329133  0.58917360136014  3.83752616541654
 1 -1.83251573647365 -1.52876283668367 -0.25958986818682
 1 -2.18972064456446  0.17094434483448 -0.64523456305631
 1 -0.26518003540354  0.57385199909991  1.40253065216522
 1 -0.29811761376138 -1.09050356555656  1.13250720592059
 1 -6.04990376577658  6.77582622672267  0.68879458865887
 1 -6.00452744214421  6.07331069416942  2.27427372447245
 1 -4.63602755875588  5.80183134953495  1.19289246484648
 1 -9.31952400490049  5.78773492159216 -0.58736896509651
 1 -9.17572878877888  8.21822256115612  0.41686130793079
 1 -7.67429689548955  7.47637403690369  1.54352273777378
 1 -12.33669777487749  2.89666999299930 -2.04808781348135
 1 -13.09000867006701  1.51582547374737 -1.75086627812781
 1 -12.64650638173817  2.87008566326633 -0.36009725372537
 1 -12.47289206760676 -1.78077752285229 -1.08044299919992
 1 -13.25522424132413 -0.13127986478648 -1.84964049154916
 1 -12.93893024562456 -1.80107479367937 -3.76388627312731
 1 -12.55658922312231  0.03200866326633 -3.75958945464546
 1 -11.22893917321732 -1.47619248634863 -3.86364498449845
 1 -9.00174977797780 -5.04533527642764 -1.82394565866587
 1 -8.28362772757276 -5.74310431463146 -0.65319493249325
 1 -9.66383626852685 -4.94114913621362 -0.18125994859486
 1 -3.35524622052205 -3.44417766846685 -0.01186645814581
 1 -1.84957312381238 -4.20035647534753  3.64749766506651
 1 -2.95902551115111 -5.79244086168617  3.64470730963096
 1 -1.13230134163416 -5.63824309750975  2.90357431033103
 1  2.69738904300430 -1.48705054095410 -1.49098306330633
 1  2.60607808540854  0.16105038463846 -1.92846599879988
 1  4.21204210981098 -1.20039225442544  0.35799901590159
 1  3.87194615811581  1.33202191259126 -2.67821619131913
 1  5.52808822052205  2.05790604950495 -2.06383285148515
 1  5.47375468306831  0.72440354785479 -3.07887661866187
 1  6.81556361926193  1.38979297929793 -0.02670002720272
 1  6.48073219261926 -0.07071510891089  0.94828454515452
 1  7.34484186888689 -1.31880111531153 -1.11828315191519
 1  7.64944738063806  0.09067227532753 -1.88747167076708
 1  9.32128418001800  0.81737962296230  0.42619025122512
 1  8.62322081078108 -0.81842734893489  0.71627949164917
 1  10.43529108050805 -0.03197065936594 -1.75909079857986
 1  9.25417040254025 -2.26573454995500 -1.85595151995200
 1  11.15091764746475 -2.59125590949095 -2.05141938583858
 1  10.13112599859986 -2.91034297629763 -0.51039047874787
 1  11.58010569146915  0.58470070027003  0.65759724722472
 1  11.41643469686969 -1.04012997429743  0.81917253885389
 1  13.02666598549855 -1.38179634083408 -1.17890555815582
 1  12.98200195269527  0.12112280328033 -1.71768512981298
 1  13.82891432813281  0.85144770077008  0.72480982398240
 1  13.93552630573057 -1.08335794049405  1.01547806430643
 1  15.19954324282428  0.52189167416742 -1.52001635963596
 1  15.64545198809881 -2.31963225532553 -0.32746420032003
 1  14.91043409410941 -2.03844622022202 -1.89024643974397
 1  16.66026565596560 -1.91853737863786 -1.85983745324532
 1  15.98839404010401  1.25215304900490  0.82582912721272
 1  16.48927337453745 -0.50155933103310  1.05152791399140
 1  18.44972591129113 -0.42832938033803 -0.66001934233423
 1  17.75427249174918  1.27932525142514 -1.26861043684368
 1  18.43078387098710  2.14707886558656  1.00580858615862
 1  18.81948910921092  0.59402358335834  1.78613861416142
 1  20.58868378107811  0.28304445264527  0.10562762676268
 1  20.02329643624362  3.18124168606861 -0.68363195659566
 1  21.47517176927693  2.26271292409241 -1.08102946624662
 1  19.93970787518752  2.00225203600360 -2.05884285328533
 1  21.12033800900090  1.35372348144814  2.16040565776578
 1  22.04347605390539  2.17530876057606  0.87382234853485
 1  20.78669839973998  2.85856593989399  1.65024546504651

