%nproc=4
%Mem=2GB
# td=(NStates=1) CAM-B3LYP/6-31G(d,p) 

TD

0 1
12 -7.20738131113111  0.57826657475748  0.17946563396340
 6 -4.77369198719872 -1.88720989938994  0.60705723842384
 6 -4.92200212911291  2.82307075437544  1.23387975287529
 6 -9.43839857535754  3.15303079857986 -0.46813967366737
 6 -9.46994730843084 -1.72581809280928 -0.94361079017902
 7 -5.19901332593259  0.52575239333933  0.98684910321032
 6 -4.37610731683168 -0.65789561156116  1.03518154135414
 6 -2.99734874027403 -0.37111653735374  1.43926428062806
 6 -3.04019745814581  1.15862853115312  1.84158488918892
 6 -4.39667666256626  1.57626837563756  1.21928895879588
 6 -2.95822090419042  1.24575686378638  3.35614702360236
 6 -1.98945240624062 -0.54818007940794  0.31188514681468
 6 -0.47147457005701 -0.32304665186519  0.70225435473547
 6  0.40898203540354 -0.65918943184318 -0.54460984148415
 8  0.12803404350435 -1.16506191379138 -1.54431076277628
 8  1.70265207570757 -0.41792918931893 -0.25979276817682
 7 -7.16571701960196  2.62211780158016  0.40262895839584
 6 -6.07637691669167  3.31326230203020  0.86491002460246
 6 -6.45371262436244  4.71958624802480  0.87192787998800
 6 -7.63554626162616  4.84470510201020  0.22446083738374
 6 -8.15165943754375  3.43871306660666  0.06667921422142
 6 -5.57236519321932  5.85522798869887  1.24234899539954
 6 -8.58498629622962  5.96357739143914 -0.01677469206921
 6 -8.54368826012601  7.14764088268827  0.65731198099810
 7 -9.06500877347735  0.71072393349335 -0.59698373207321
 6 -9.89279553925392  1.79686964006401 -0.74952127622762
 6 -11.18122721932193  1.39166750585059 -1.14434615411541
 6 -11.17338974287429 -0.06588122402240 -1.29609832383238
 6 -9.87204288498850 -0.38576055035504 -0.86472148824882
 6 -12.17347617131713  2.42493306430643 -1.58697547234724
 6 -12.33351789808981 -0.76046345644564 -1.86659746824682
 6 -12.37999548794880 -1.06909932113211 -3.37933305190519
 7 -7.20671013931393 -1.38233784738474 -0.24417909490949
 6 -8.24280452025203 -2.21897706980698 -0.62320727592759
 6 -7.76942308790879 -3.62315058255826 -0.58025530283028
 6 -6.40456434053405 -3.54588892589259 -0.15785751765176
 6 -6.09299189558956 -2.10245852715272  0.12119492369237
 6 -8.60409787718772 -4.86965980838084 -0.84743322172217
 6 -5.18572304260426 -4.32571645514551  0.11389426202620
 8 -5.03166200410041 -5.50321480488049  0.12006903760376
 6 -4.11075465486549 -3.25752154195420  0.52340220552055
 6 -3.48206883778378 -3.69008422972297  1.82777315021502
 8 -3.78726032663266 -3.13661039723972  2.86771945304530
 8 -2.61703289698970 -4.60333505590559  1.76649523042304
 6 -2.23728431633163 -5.28794302340234  2.99844477997800
 6  2.71271378307831 -0.69067686228623 -1.25620682108211
 6  4.05649773877388 -0.50669884618462 -0.59964011301130
 6  5.09615309970997  0.25020128552855 -1.09963973667367
 6  5.03087151015102  1.15948859815982 -2.33922808810881
 6  6.38692302510251  0.35241709190919 -0.29170565576558
 6  7.60334787268727 -0.13180352725273 -0.90828777927793
 6  8.83558543114311 -0.07463259365937 -0.14184599739974
 6  10.10726135063506 -0.55981305300530 -0.81947291779178
 6  10.09998669886989 -2.06236717281728 -1.20997446244624
 6  11.43746662356236 -0.29877365816582 -0.01373050445045
 6  12.74590949864986 -0.51421547264726 -0.68780880378038
 6  13.97279674807481 -0.10292149494949  0.20689775727573
 6  15.45364148904891 -0.15994972407241 -0.49258749854986
 6  15.61591326022602 -1.55802343614361 -1.00886050375037
 6  16.42899700560056  0.44322868286829  0.48381288848885
 6  17.85015960536053  0.51475287368737 -0.23425924052405
 6  18.82778314781478  1.32030024702470  0.65679611261126
 6  20.31373004220422  1.24566489999000  0.17603236643664
 6  20.43626498029803  2.07388568576858 -1.13928492119212
 6  21.22346327712771  1.94498743504350  1.22487785118512
 1 -3.98503998849885  3.39371489288929  1.32032661956196
 1 -10.15459585228523  4.09110994599460 -0.77851324282428
 1 -10.36826011541154 -2.42336167696770 -1.23015966816682
 1 -2.47587404430443 -1.04405271917192  2.06898758995900
 1 -2.12115572077208  1.79910349294930  1.47584823522352
 1 -1.99051350885088  0.88719917281728  3.63104681818182
 1 -2.84630969096910  2.21832589008901  3.69682184758476
 1 -3.71102454515451  0.66806149014901  3.86038845164516
 1 -2.00830331523152 -1.72879283968397 -0.01027493669367
 1 -2.22940461296130  0.21547879827983 -0.48916895649565
 1 -0.24448796619662  0.57272188608861  1.29642004110411
 1 -0.44636243824382 -1.10845536073607  1.54828878407841
 1 -5.95153392879288  6.66618526262626  0.66137184638464
 1 -5.68075506490649  6.03939730283028  2.35411170827083
 1 -4.43181713771377  5.54820598699870  1.07711088668867
 1 -9.28279033153315  5.85471161926193 -0.84116434463446
 1 -8.96762797869787  8.08695943484348  0.45700532233223
 1 -7.85433489928993  7.37318371787179  1.46581496699670
 1 -11.49383348844884  3.08455878187819 -2.31757476217622
 1 -13.09433910311031  2.14971886308631 -2.19042023352335
 1 -12.47699943104310  3.03800245494549 -0.78914015801580
 1 -12.58572335073508 -1.79997944304430 -1.29341429632963
 1 -13.22287100600060 -0.04255099189919 -1.55363089058906
 1 -13.43107946054606 -1.64177886408641 -3.68445833033303
 1 -12.14073763796380 -0.17685222282228 -3.98577207290729
 1 -11.67488376767677 -2.01839670677068 -3.56265488548855
 1 -8.80899050205021 -4.76260700360036 -1.72321558565857
 1 -7.98310767556756 -5.61775177937794 -0.65534514751475
 1 -9.48757864276428 -4.92329735103510 -0.12474429702970
 1 -3.38129882578258 -3.21841509220922 -0.27049232073207
 1 -1.63264143064306 -4.64172061176118  3.77752066736674
 1 -3.08055766436644 -5.86545816341634  3.39206204510451
 1 -1.38035614711471 -6.03700297349735  2.69314326722672
 1  2.65030433453345 -1.62271410731073 -1.62162612761276
 1  2.58496597419742 -0.14469018941894 -2.02757590979098
 1  4.22117302290229 -1.07790000520052  0.34433764976498
 1  3.94688365186519  1.20961967236724 -2.76540491019102
 1  5.25222063376338  2.27763802270227 -2.03066953515352
 1  5.78802611021102  0.83918502600260 -3.12778150915091
 1  6.60915297819782  1.45809980998100 -0.21613897109711
 1  6.40421454085409 -0.20070810821082  0.58188790549055
 1  7.55138252295229 -1.09202843804380 -1.29038036163616
 1  7.84586702260226  0.30088329642964 -1.95071799539954
 1  9.05762781438144  0.91367925292529  0.30984861706171
 1  8.72108059675968 -0.73008851505150  0.68403626732673
 1  10.43855140654065  0.07266980468047 -1.78373326282628
 1  9.41721670717072 -2.42636061256126 -1.99132505730573
 1  11.14128668436844 -2.46118290219022 -1.52841708560856
 1  9.92754564056406 -2.79267120912091 -0.40434987468747
 1  11.25129281018102  0.65111734193419  0.49068055555556
 1  11.31542459585959 -0.75389135043504  0.89023964556456
 1  12.90205352425243 -1.49948811001100 -1.07492516011601
 1  12.79746349884988  0.16242693369337 -1.65756911821182
 1  13.83428486518652  0.91583413941394  0.34029137213721
 1  14.09621237433744 -0.81033063776378  1.16782329882988
 1  15.30654394289429  0.39241872687269 -1.44164852285229
 1  15.83485092799280 -2.03783407550755 -0.07055850975098
 1  14.66240929162916 -1.85608798439844 -1.54895231033103
 1  16.51675130453046 -1.73744926982698 -1.38439990949095
 1  16.20908610931093  1.45884371807181  0.81929847414741
 1  16.54390883808381 -0.15291446654665  1.33459622082208
 1  18.04282522122212 -0.56190273767377 -0.25584892529253
 1  17.81903896839684  1.03225054395439 -1.41296487228723
 1  18.43676446904691  2.30201435913591  0.96992499779978
 1  18.90041720202020  0.73554773577358  1.69012901320132
 1  20.61082599529953  0.20172632083208  0.12031909590959
 1  20.03839794639464  2.96481004290429 -1.00069366276628
 1  21.58913316541654  2.26705335813581 -1.37375873917392
 1  20.02782668706871  1.42559437023702 -1.81196816581658
 1  21.26925290049005  1.52181029012901  2.11304092129213
 1  22.23274498079808  1.84042527222722  1.00500546684669
 1  20.83248297819782  3.03630371367137  1.44905534603460

