%nproc=4
%Mem=3GB
# td=(NStates=1) iop(3/107=0140000000,3/108=0140000000) CAM-B3LYP/6-31G(d,p) 

TD

0 1
12 -7.16549124082408  0.66425480898090  0.11252762276228
 6 -4.94447326382638 -1.94125135573557  0.70529593199320
 6 -4.77093312391239  2.80605932383238  1.26091619681968
 6 -9.41269803430343  3.07353490649065 -0.35228770407041
 6 -9.54900099809981 -1.69110087578758 -0.86002280718072
 7 -5.12655968716872  0.45023111371137  0.79095691969197
 6 -4.41722396969697 -0.64161530473047  0.81943983868387
 6 -2.89910613121312 -0.40355875387539  1.29875554465447
 6 -2.98061128802880  1.11945064666467  1.64971125042504
 6 -4.35045528022802  1.53618826992699  1.15778017191719
 6 -2.83401958275828  1.32107492679268  3.18861417601760
 6 -1.90486621632163 -0.62648863806381  0.05582939323932
 6 -0.46658236743674 -0.50292354035404  0.46905028732873
 6  0.49611153435344 -0.60853747564756 -0.70348013811381
 8  0.27417763456346 -1.23271704940494 -1.80412780588059
 8  1.76405500390039 -0.40125006340634 -0.30324571217122
 7 -7.14940258365837  2.72153536343634  0.38037896199620
 6 -5.99486963076308  3.43325709310931  0.86871274737474
 6 -6.35845075347535  4.77613447704771  0.78320657935794
 6 -7.66716150145014  4.83197500270027  0.35385151155116
 6 -8.14391391889189  3.50087702650265  0.12238023662366
 6 -5.50897293119312  5.94462393609361  1.24287444264426
 6 -8.46558656665666  6.04790506010601  0.06980759325933
 6 -8.33678208820882  7.22883203290329  0.57613167246725
 7 -9.06426546764676  0.61782877727773 -0.52889946384638
 6 -9.83529101540154  1.78893221752175 -0.57136995049505
 6 -11.19324327702770  1.53140258475848 -0.99193405310531
 6 -11.27081656885689  0.13921146694669 -1.20742077037704
 6 -9.84587219081908 -0.32906309970997 -0.85412761406141
 6 -12.24173511121112  2.52727796919692 -1.17892734543454
 6 -12.33944773767377 -0.79450557435744 -1.69889922052205
 6 -12.28445035393539 -1.09128932123212 -3.26266691789179
 7 -7.18699166156616 -1.44509934563456 -0.10758343344334
 6 -8.26400072637264 -2.24406295179518 -0.51588316821682
 6 -7.79376141594159 -3.60639119051905 -0.46236653645365
 6 -6.46843463396340 -3.53694667676768 -0.03830591229123
 6 -6.11578531023102 -2.18266622242224  0.18724055945595
 6 -8.56686902640264 -4.87451354975498 -0.84983836693669
 6 -5.28716417931793 -4.39196275967597  0.12714768886889
 8 -5.10566155845585 -5.53768062506251 -0.01568561996200
 6 -4.20744524712471 -3.32135958335834  0.63336165776578
 6 -3.58638281508151 -3.73726166886689  1.85181114961496
 8 -3.58393117651765 -3.04341169906991  2.92274563276328
 8 -2.80500585338534 -4.86748536703670  1.74639367686769
 6 -2.18503746074607 -5.35761096699670  2.89237663806381
 6  2.72286860726073 -0.69657794669467 -1.29433295049505
 6  4.18249913511351 -0.46367163506351 -0.59894245704570
 6  5.05769126042604  0.33464999299930 -1.18611148814881
 6  5.04641836743674  1.14145182048205 -2.47280141514151
 6  6.38875515421542  0.42755337133713 -0.48535906030603
 6  7.64148560116012 -0.14752330033003 -1.16342667136714
 6  8.90573828542854 -0.04644646074607 -0.32007811021102
 6  10.23948940954095 -0.59782144534453 -0.95256097609761
 6  10.06444972157216 -2.10981886178618 -1.22897986398640
 6  11.38874353815381 -0.27595248634864 -0.06864482698270
 6  12.75599333483348 -0.61039107260726 -0.72951045614561
 6  13.89493076487649 -0.00929664396440  0.10257666926693
 6  15.24490048104811 -0.23137222082208 -0.49419507200720
 6  15.66769304030403 -1.68691708000800 -0.60683250955096
 6  16.31006799949995  0.49377589488949  0.42767750245025
 6  17.73368095579558  0.56707043664366 -0.03963049004900
 6  18.72745316391639  1.36698477697770  0.83644690139014
 6  20.15450825522552  1.37747718021802  0.33477018301830
 6  20.32682552835283  2.17261456655666 -0.95466016191619
 6  21.08792385938594  1.76661836173617  1.53595753575358
 1 -3.99586995049505  3.50448369976998  1.94639073487349
 1 -10.18098022132213  3.81181345584559 -0.51651617781778
 1 -10.20057448154816 -2.39364489958996 -1.38099591899190
 1 -2.80103739093909 -1.10337053975398  2.02744923562356
 1 -2.26132959925993  1.65035709680968  1.23555720472047
 1 -1.91784487088709  0.89318842524252  3.44019435683568
 1 -2.76195330443044  2.42430165296530  3.37615563776378
 1 -3.62485528602860  0.68659381368137  3.82045373057306
 1 -2.20544566356636 -1.59726039683968 -0.37331533863386
 1 -1.98559492849285  0.18041566136614 -0.69484621922192
 1 -0.19843527222722  0.49408899619962  0.74552841584158
 1 -0.08455687598760 -1.37639840644064  1.14291775007501
 1 -5.69767394509451  6.71612912491249  0.62233206450645
 1 -5.67037850915092  6.39992287368737  2.27045905840584
 1 -4.44923976857686  5.89566383438344  1.11144187678768
 1 -9.25137539733973  5.99195257725773 -0.70674202690269
 1 -8.93659272297230  8.04476419741974  0.22521229692969
 1 -7.60608854095410  7.37738457485749  1.27855681598160
 1 -12.17191766476648  2.95801494859486 -2.24908073957396
 1 -13.20607790549055  1.95198394079408 -1.15630135833583
 1 -12.24669570227023  3.47586492059206 -0.40391083058306
 1 -12.43632559745975 -1.85400632343234 -1.19979348024802
 1 -13.26984928402840 -0.31360407090709 -1.56996275067507
 1 -13.36368156735674 -1.47460112221222 -3.38837979607961
 1 -12.15903630933093 -0.22504097539754 -3.76967594599460
 1 -11.39190402980298 -1.75466649384939 -3.67374565276528
 1 -9.11100571917192 -4.71497799859986 -1.82209827282728
 1 -8.07071145634563 -5.67298325162516 -0.59467942304230
 1 -9.58430260926093 -5.03602205060506 -0.35667793649365
 1 -3.41633915241524 -3.32345895149515 -0.19064680278028
 1 -1.79199258685869 -4.61998421182118  3.29933165076508
 1 -3.01949838713871 -5.71244076897690  3.79463050075007
 1 -1.58700922142214 -6.19771055585559  2.52623598469847
 1  2.54111216601660 -1.62201882468247 -1.82267371607161
 1  2.51335777707771  0.14728281308131 -2.10295135263526
 1  4.30854134083408 -1.04665307910791  0.22883428362836
 1  4.08120343184318  1.30531607430743 -2.87703818951895
 1  5.41867880008001  2.15925634953495 -2.59829726812681
 1  5.62962253075307  0.78751994289429 -3.19733599049905
 1  6.49969815371537  1.37444742534253 -0.19655004110411
 1  6.36484435653565 -0.20925826252625  0.48636483198320
 1  7.53630575337534 -1.15901657465747 -1.48065282248225
 1  7.79403196169617  0.26809591259126 -2.22677350025003
 1  8.88028407270727  1.01534103160316  0.20988341644164
 1  8.70180330113011 -0.76495484818482  0.61281740514051
 1  10.36615124692469  0.08862501030103 -1.92303746174617
 1  9.04779438853885 -2.03107139063906 -1.80553893579358
 1  11.00679982058206 -2.55881928122812 -1.75869122722272
 1  10.00963316041604 -2.75282939763976 -0.31919931363136
 1  11.24793643524352  0.74092052545254  0.39712748354835
 1  11.23081067656766 -1.02874417201720  0.75387170727073
 1  12.86073402590259 -1.67699511881188 -0.67693996549655
 1  12.92274810471047 -0.11684674867487 -1.67838217191719
 1  13.86696811711171  1.03836920022002  0.36143097179718
 1  13.94708301890189 -0.50163654255426  1.12660503450345
 1  15.51327172857286  0.22998639563956 -1.45914718351835
 1  15.56940073687369 -2.18350769196920  0.38997086158616
 1  14.94575622002200 -1.99101362136214 -1.30671204470447
 1  16.77257553715372 -2.09187008400840 -1.06781329462946
 1  15.81638491199120  1.53125145884588  0.56016193249325
 1  16.33782786058606  0.04110782598260  1.36781527622762
 1  18.12368910661066 -0.43357987198720 -0.18360855645565
 1  17.90853816341634  0.94157305140514 -1.20749649324932
 1  18.33472252915292  2.50161142914291  0.91875382218222
 1  18.61410737323732  0.99821466096610  1.70306355185519
 1  20.55048488078808  0.39884088168817  0.08729462166217
 1  20.23138995749575  3.31937271377138 -0.94048623332333
 1  21.53478727952795  2.08325946804680 -1.24911289248925
 1  19.63189158675868  1.72249253945395 -1.67139552395239
 1  20.90769462296230  1.14974061496150  2.30068373717372
 1  22.13423131593159  1.79807027772777  1.38284493809381
 1  21.09386946544655  2.72447856505651  1.91010814751475

