%nproc=4
%Mem=2GB
# td=(NStates=1) CAM-B3LYP/6-31G(d,p) 

TD

0 1
12 -7.16874744774477  0.51183993209321  0.07892557995800
 6 -4.85953057105711 -2.01541271967197  0.53812034473447
 6 -4.80247017591759  2.78689713701370  1.02656902180218
 6 -9.40690542604260  3.12701819731973 -0.35708856855686
 6 -9.48781909560956 -1.73435894689469 -0.88530495959596
 7 -5.18479190379038  0.38959877797780  0.80123054135414
 6 -4.41490119621962 -0.74988481048105  0.92317034023402
 6 -2.92126113151315 -0.40531995769577  1.24228458265827
 6 -3.09393283168317  1.10930359865987  1.71937266796680
 6 -4.43408040294029  1.41232198099810  1.07956498639864
 6 -3.04817990009001  1.24216650475048  3.18325973487349
 6 -1.94023748474847 -0.59064432583258  0.07895185348535
 6 -0.49507693029303 -0.49279362656266  0.59699382868287
 6  0.49912104930493 -0.55186869976998 -0.46723210371037
 8  0.10489172927293 -0.90784619221922 -1.63377970967097
 8  1.79543135363536 -0.44676207260726 -0.11546833573357
 7 -7.06786723462346  2.55708129792979  0.21418011351135
 6 -5.93792307130713  3.33212418821882  0.68750228382838
 6 -6.30239749284928  4.66256054545455  0.76802748994900
 6 -7.59920262726273  4.85063569506951  0.29734812611261
 6 -8.10930520212021  3.52189138443844  0.04498704500450
 6 -5.41523948064807  5.81538400430043  1.01964672517252
 6 -8.49424722232223  6.01455248894890  0.24031101650165
 6 -8.35071896319632  7.20161628022802  0.92344859465947
 7 -9.15116738933893  0.73025588668867 -0.57699173287329
 6 -9.92109836953695  1.87057701080108 -0.59086541064106
 6 -11.23653274987499  1.48945728482848 -1.12395411491149
 6 -11.21452385628563  0.13763912801280 -1.31072978697870
 6 -9.89341502220222 -0.36979895419542 -0.93825884198420
 6 -12.29862868656866  2.49359993099310 -1.35574234903490
 6 -12.33403795009501 -0.73654106420642 -1.82575338383838
 6 -12.26533402180218 -0.97950036123612 -3.44796991559156
 7 -7.17974744304431 -1.40043965756576 -0.16003068006801
 6 -8.27661790159016 -2.27884305640564 -0.54397935313531
 6 -7.80247639323932 -3.64807307480748 -0.54339161646165
 6 -6.51184506860686 -3.66102043904390 -0.01612334423442
 6 -6.18238083448345 -2.27415569686969  0.13520632483248
 6 -8.48960642804280 -4.87082992539254 -0.98029650805081
 6 -5.24665913621362 -4.41876576007601  0.21517439003900
 8 -5.11821065896590 -5.61968645204520  0.14072110281028
 6 -4.14986856625663 -3.39062485228523  0.59712957825783
 6 -3.50167079797980 -3.68249347064706  1.93907428032803
 8 -3.84831643224322 -3.09334607080708  2.91652433353335
 8 -2.60158135183518 -4.63285800820082  1.85943452435244
 6 -2.00024061196120 -4.98626285538554  3.01976691219122
 6  2.79622213391339 -0.69821761636164 -1.11715291569157
 6  4.03913600260026 -0.38247642394239 -0.40167031603160
 6  5.05218870327033  0.30883714911491 -0.95602537523752
 6  5.04975339833983  1.06254890419042 -2.28718288358836
 6  6.41277561036104  0.56298814901490 -0.26897338253825
 6  7.50332787068707 -0.16171651855186 -0.97008395889589
 6  8.85717759035904 -0.07288241864186 -0.20227204000400
 6  10.12613323782378 -0.61483855555556 -0.81432240274027
 6  9.98483518371837 -2.11940287638764 -1.12824628962896
 6  11.36197907480748 -0.20803458425843 -0.08559769116912
 6  12.71851675937594 -0.30418446954695 -0.80785080798080
 6  13.97994746314631 -0.00125132793279  0.17174424192419
 6  15.29924604950495 -0.17761149024902 -0.49896813661366
 6  15.63378504740474 -1.57270490429043 -0.91904152185219
 6  16.48090219611961  0.36624098409841  0.34169867706771
 6  17.84799938933893  0.50764216261626 -0.21594740934093
 6  18.79300967046705  1.17912612961296  0.69586001900190
 6  20.23615228442844  1.31653198669867  0.18717348054805
 6  20.32186354015402  2.14574287148715 -1.05918691139114
 6  21.11824275507551  1.94842777907791  1.28614397779778
 1 -4.10874235873587  3.46228174957496  1.34124871177118
 1 -10.13400379307931  3.99284011901190 -0.54573996549655
 1 -10.26578986838684 -2.56733607440744 -0.94170082228223
 1 -2.54555101200120 -1.00841915581558  2.00180087128713
 1 -2.41028463366337  1.68478206080608  1.13323397379738
 1 -2.23846830433043  0.89008946184618  3.60718443194319
 1 -3.28401346134613  2.27619167666767  3.50814297969797
 1 -3.89695313801380  0.83045772977298  3.68846125892589
 1 -2.10373285818582 -1.62582254265427 -0.17330123932393
 1 -2.08891056355636 -0.12438518811881 -0.81230126972697
 1 -0.39771328872887  0.38295290919092  1.19548994809481
 1 -0.21237903990399 -1.15890040524052  1.36547050225023
 1 -5.61508028342834  6.75246389048905  0.39062477167717
 1 -5.46030301970197  6.19077244034403  2.07296359345935
 1 -4.26164012001200  5.67422858925893  0.92167534313431
 1 -9.24538659115912  5.96142229032903 -0.62285251345135
 1 -8.89332054795480  8.09951068996900  0.47428705050505
 1 -7.68134760056006  7.34245064456446  1.68860724622462
 1 -11.76627073217322  3.45682600860086 -1.85359836453645
 1 -13.06884655385539  2.02177606880688 -1.75998719021902
 1 -12.78115984708471  2.79908856355636 -0.36743798779878
 1 -12.15939071747175 -1.65182462756276 -1.34687964286429
 1 -13.25461418031803 -0.33998073487349 -1.55980150765077
 1 -13.19580593319332 -1.43120780698070 -3.76087597209721
 1 -12.38053161736174  0.02408787118712 -4.00345384108411
 1 -11.27194347364737 -1.52499736683668 -3.54264288428843
 1 -8.73220282328233 -4.68158890179018 -2.11715497959796
 1 -7.99297866266627 -5.90352035623562 -0.80105971897190
 1 -9.37431731663166 -5.09225424672467 -0.21442326492649
 1 -3.44382507840784 -3.36610986168617 -0.27815308680868
 1 -1.18791695819582 -4.32842928262826  3.39629254455446
 1 -2.77155676427643 -5.17172879047905  3.78879171807181
 1 -1.44145225672567 -5.92896216941694  2.70554450735073
 1  2.74489379347935 -1.70477231313131 -1.60960492549255
 1  2.56513399099910 -0.02905862626263 -1.94533768596860
 1  4.27691859745975 -0.71942415761576  0.48042125812581
 1  4.01878084158416  0.75319402980298 -3.02878124782478
 1  5.01078649034903  2.14038429732973 -2.05406187438744
 1  5.86361366896690  0.59630073757376 -2.97628635963596
 1  6.73519558245825  1.63485748574857 -0.05943330053005
 1  6.25568968836884  0.05637760036004  0.76121583828383
 1  7.15101248594859 -1.22997223242324 -1.13712503610361
 1  7.72884532043204  0.46366957505751 -1.89415233883388
 1  8.96917896949695  0.90968885388539  0.14241187338734
 1  8.86323481218122 -0.52404791099110  0.82195005870587
 1  10.03888143954395 -0.07115457775778 -1.89799468896890
 1  9.18387337283728 -2.49121709820982 -1.59414533933393
 1  10.98465102080208 -2.70623740764076 -1.65649989388939
 1  9.86283916991699 -2.57668961096110 -0.04146358605861
 1  11.25303298419842  0.85146737693769  0.21270275777578
 1  11.38258131153115 -0.86348230953095  0.74533515511551
 1  12.85182850175017 -1.35594375557556 -1.45841350895089
 1  12.92832658515852  0.60910160116012 -1.46078944024402
 1  14.05119655635564  1.03176573257326  0.53174051705171
 1  14.14192694579458 -0.76877648234823  0.98247476397640
 1  15.56886017451745  0.46498598359836 -1.41146550455046
 1  15.88744618751875 -2.20904119621962  0.03733227932793
 1  14.76209926062606 -2.04769714531453 -1.21078849394939
 1  16.63336296569657 -1.57526305120512 -1.61726319581958
 1  16.19421462216221  1.33470130383038  0.69077562186219
 1  16.52560700790079 -0.38556773187319  1.32880564176418
 1  18.03060399909991 -0.51134768216822 -0.47870121052105
 1  17.71859892439244  0.94266158505851 -1.14421799759976
 1  18.39306009860986  2.10057421512151  0.97136514181418
 1  19.10305746604660  0.49043322432243  1.60608060836084
 1  20.68525343804381  0.36046219441944 -0.01410434643464
 1  19.76574068066807  3.08091165306531 -0.87692128552855
 1  21.45298955105510  2.01101775457546 -1.22439380268027
 1  19.89128303270327  1.71119293009301 -1.97683465246525
 1  21.03443941914191  1.34712282138214  2.21783140034003
 1  22.18804051035103  1.84159538923892  1.12093706000600
 1  20.75984571447145  2.87043712701270  1.55098553905391

