%nproc=4
%Mem=2GB
# td=(NStates=1) CAM-B3LYP/6-31G(d,p) 

TD

0 1
12 -7.17038761176118  0.57290603870387  0.02733042044204
 6 -4.78262288028803 -1.85122630103010  0.48288482118212
 6 -4.84518444734474  2.81777022432243  1.23971033593359
 6 -9.41265600110011  3.15207070257026 -0.46972983268327
 6 -9.52130244394439 -1.76554206520652 -0.78859528862886
 7 -5.06663008760876  0.51332115021502  0.74209462776278
 6 -4.28469817591759 -0.64938476047605  0.84779280248025
 6 -2.94061306670667 -0.36715614131413  1.30121047524752
 6 -3.08815225362536  1.11744441274127  1.80364109480948
 6 -4.41358835373537  1.55984673347335  1.22239926982698
 6 -2.88347342944294  1.22090437853785  3.39962137103710
 6 -1.98937239823982 -0.57617287868787  0.07835179347935
 6 -0.47078450105011 -0.30963531073107  0.39781391069107
 6  0.52887402460246 -0.52813632653265 -0.70231561206121
 8  0.25381662176218 -0.88214362196220 -1.76806313801380
 8  1.73559537003700 -0.46268366476648 -0.31714850375038
 7 -7.13170361826183  2.49732532233223  0.29781847734773
 6 -6.08682796179618  3.28750972677268  0.73814734833483
 6 -6.41854910801080  4.71924621402140  0.72503319051905
 6 -7.67502020902090  4.83461409290929  0.18909730103010
 6 -8.12150642224223  3.40432962826283 -0.06652410611061
 6 -5.52836079277928  5.88234069997000  1.04761952245225
 6 -8.52952074967497  6.03638467216722  0.06031301670167
 6 -8.35934982628263  7.14387050565056  0.82355860566057
 7 -9.08908118071807  0.70796365746575 -0.52703673737374
 6 -9.85253151285128  1.76964691779178 -0.70865718981898
 6 -11.22665176177618  1.49775811491149 -1.10646236573657
 6 -11.23962636653665  0.02754811891189 -1.24182289628963
 6 -9.88768444914491 -0.35145712001200 -0.78591360746075
 6 -12.29745856955696  2.34205477647765 -1.44189096389639
 6 -12.43858840514051 -0.73879128922892 -1.50353116161616
 6 -12.56382387078708 -1.21008341954195 -3.02723784238424
 7 -7.17268673697370 -1.42068168176818 -0.22553723072307
 6 -8.23767400720072 -2.22430760286029 -0.56218117331733
 6 -7.91323746934693 -3.50124839233923 -0.38007528482848
 6 -6.48673255735574 -3.53324766176618 -0.07705943784378
 6 -6.07443003940394 -2.15771405270527  0.00173297749775
 6 -8.63634110151015 -4.78288113051305 -0.85209368776878
 6 -5.38457292759276 -4.37324120762076  0.16323919651965
 8 -5.16378521642164 -5.53197768116812  0.05930296099610
 6 -4.21524510391039 -3.25308109790979  0.55750561586159
 6 -3.62828345924592 -3.66528174947495  1.83188356125613
 8 -3.74251585218522 -3.13271000720072  2.89569225032503
 8 -2.73217441114111 -4.71841656405641  1.73674225512551
 6 -2.13346393429343 -5.08172240134013  2.91768670417042
 6  2.84877738943894 -0.73787158175818 -1.26911811221122
 6  4.12494458345835 -0.52998117441744 -0.62031218021802
 6  5.18192167656766  0.35417168256826 -0.90595036773677
 6  5.10389881288129  1.16650930023002 -2.25696986228623
 6  6.43760809360936  0.28772062226223 -0.15518200340034
 6  7.64484202210221 -0.36912725962596 -0.89017596809681
 6  8.91109298189819 -0.29131426182618 -0.01053286608661
 6  10.21069169366937 -0.58431550325033 -0.76960793129313
 6  10.12894959515951 -2.00774171027103 -1.51864532953295
 6  11.42316519341934 -0.30484426522652  0.12041290989099
 6  12.79435434313431 -0.52299635073507 -0.62854287718772
 6  14.03353282168217 -0.32200340314031  0.25218228572857
 6  15.37934405930593 -0.27846157525753 -0.42676091589159
 6  15.72610427932793 -1.73611124492449 -0.98646826452645
 6  16.40656476237624  0.32097645764576  0.40829533673367
 6  17.77330191959196  0.60643204160416 -0.15978179277928
 6  18.84700507000700  1.36194441144114  0.76880731373137
 6  20.17863653285328  1.43120345384538  0.26464122732273
 6  20.23581493529353  2.42334063126313 -1.01758275097510
 6  21.07193812461246  2.01867480378038  1.23716908030803
 1 -4.10113159765977  3.67105262666267  1.53438802570257
 1 -10.05193558625863  4.02355319031903 -0.60072546404640
 1 -10.31624491389139 -2.52508184898490 -0.62426907910791
 1 -2.63834029092909 -1.07419573347335  2.03614430563056
 1 -2.37323092829283  1.87579116171617  1.28827947834784
 1 -1.76558101560156  0.89123957685769  3.45363907740774
 1 -2.77689274927493  2.39823388088809  3.46474864026403
 1 -3.51457490019002  0.53429811381138  3.93735614841484
 1 -1.94653713861386 -1.60952091249125 -0.35207911711171
 1 -2.30569224172417  0.29458670907091 -0.60664070367037
 1 -0.30702421982198  0.65428004190419  0.83607400650065
 1 -0.19353715571557 -0.87718223342334  1.44636859205921
 1 -5.74205298069807  6.75940458455846  0.36288199739974
 1 -5.69999698909891  6.27449081218122  2.10866716381638
 1 -4.56685064106411  5.54696586298630  0.94702787838784
 1 -9.05904795729573  6.24482063016302 -0.79925015321532
 1 -8.97007822372237  8.12381312021202  0.76090571237124
 1 -7.96267573337334  7.20983738323832  1.77603598909891
 1 -12.21148525362536  2.85800612661266 -2.44263726842684
 1 -13.13323299249925  1.82876676787679 -1.57285847734774
 1 -12.51466319741974  3.05112376707671 -0.64230547454746
 1 -12.46872165056506 -1.70237968306831 -0.87567252215221
 1 -13.41510022892289 -0.38506524332433 -1.07928345584558
 1 -13.47291364396440 -1.94893958015802 -3.31630151465147
 1 -12.47837140134014 -0.45820035763576 -3.71736523222322
 1 -11.59901618091809 -1.78592345944594 -3.30557917791779
 1 -8.85008461146115 -4.62436317921792 -1.91185444954495
 1 -8.12895226002600 -5.54968497269727 -0.66661627462746
 1 -9.50565044994499 -4.86632165346535 -0.22728455105511
 1 -3.37769846574657 -3.28093134383438 -0.24990026152615
 1 -1.37704587108711 -4.24594103380338  3.33842675797580
 1 -2.96606621522152 -5.24440605820582  3.71281412031203
 1 -1.75881399289929 -6.08272754595460  2.86628058095810
 1  2.75091439553955 -1.69903173907391 -1.75650961596160
 1  2.80606808440844  0.08918319791979 -2.03456660886089
 1  4.11340224582458 -1.05745796099610  0.32950616661666
 1  4.05869483298330  1.37561627202720 -2.50201857155716
 1  5.85707111881188  1.98924918381838 -1.99367583578358
 1  5.95417272487249  0.43110421792179 -2.92973170417042
 1  6.77892995589559  1.37190119011901  0.20313295609561
 1  6.48121224062406 -0.06940497789779  0.84074379107911
 1  7.41248863356336 -1.25174440964096 -1.17811913551355
 1  7.99802223812381  0.25780898899890 -1.68226114971497
 1  8.79719177077708  0.68590647564756  0.52370000220022
 1  8.90937942664267 -0.86266177237724  1.04568243194319
 1  10.24820237163716  0.24867740544054 -1.53390828032803
 1  9.30851583708371 -1.92227020352035 -2.36448237303730
 1  10.94650720642064 -2.30462724662466 -2.07347159105911
 1  10.09125201120112 -2.75236717871787 -0.56482592229223
 1  11.18897657855786  0.74081631183118  0.52821430893089
 1  11.43588664206421 -0.92408837013701  1.00590121172117
 1  12.90847416631663 -1.54263242444244 -1.18446611421142
 1  12.88290204270427  0.14903559455946 -1.55631899319932
 1  13.96676811351135  0.68477103310331  0.49095643864386
 1  13.85214796789679 -0.95200480518052  1.32214873137314
 1  15.25677896639664  0.29459894489449 -1.27638199619962
 1  16.08751619451945 -2.46356664876488 -0.09288074197420
 1  14.92271532223222 -2.18048042364236 -1.51014842994299
 1  16.70272990239024 -1.64053957885789 -1.72968443794379
 1  15.97860306100610  1.24686251995200  1.04166071037104
 1  16.38342278947895 -0.46830600570057  1.26878964016402
 1  18.41196213491349 -0.24918146554655 -0.63437677807781
 1  17.82706977147715  1.35710302920292 -1.13093666946695
 1  18.43557435003500  2.23520767846785  0.82355036033603
 1  18.74131129142915  0.92705688668867  1.75160516081608
 1  20.62157707040704  0.47765391359136 -0.26349928592859
 1  19.86813091969197  3.35521908380838 -0.86815040844084
 1  21.31861611371137  2.39170582338234 -1.38591995529553
 1  19.65728963336334  1.91831364216422 -1.88112508150815
 1  21.09088506370637  1.36467457655766  2.20565018221822
 1  22.13133483978398  2.09467069676968  0.92480744704470
 1  20.76493622352235  3.11504158745875  1.43348378887889

