%nproc=4
%Mem=2GB
# td=(NStates=1) CAM-B3LYP/6-31G(d,p) 

TD

0 1
<<<<<<< HEAD
12 -7.13258383138314  0.66294504260426  0.06010369776978
 6 -4.73069768776878 -1.96253743214321  0.41153768646865
 6 -4.91104103300330  2.79425787308731  1.19077544244424
 6 -9.44084882038204  3.09402489798980 -0.47880073977398
 6 -9.54040435413541 -1.78351386238624 -0.97385381448145
 7 -5.17876130073007  0.42740255835584  0.71482190049005
 6 -4.35073477957796 -0.63708353035304  0.70367839103910
 6 -2.99397840324032 -0.30770019571957  1.29353970817082
 6 -3.15558899729973  1.07190985928593  1.74923565426543
 6 -4.49670666556656  1.49717046584658  1.10376740664066
 6 -3.17279236133613  1.27671996009601  3.31995340424042
 6 -1.93428688968897 -0.49311457285729  0.15401936023602
 6 -0.50093751635164 -0.43141748894889  0.61869599889989
 6  0.53765490269027 -0.62537605050505 -0.39660504100410
 8  0.23577481758176 -0.89634504210421 -1.69594592629263
 8  1.83799561006101 -0.44928232463246  0.10981419251925
 7 -7.18648909680968  2.57315290509051  0.43382207770777
 6 -6.17961724072407  3.34184516031603  0.72904643824382
 6 -6.53835108820882  4.79572386178618  0.79464015121512
 6 -7.82088479547955  4.87971860336034  0.24611300260026
 6 -8.16971124272427  3.52048124342434  0.01376392269227
 6 -5.51166912361236  5.89146161206121  0.98607336783678
 6 -8.66547434503450  6.05409644334433  0.09983696909691
 6 -8.39548343964396  7.23746986558656  0.67975422522252
 7 -9.17716998959896  0.68513137423742 -0.55557959165917
 6 -9.93774003370337  1.83583353645365 -0.74850117421742
 6 -11.32055115171517  1.49815815491549 -1.16822854235424
 6 -11.24374677857786  0.11798716281628 -1.23692240624062
 6 -9.95709138983898 -0.45121709600960 -0.91108612471247
 6 -12.51379020272027  2.37358792979298 -1.42012878767877
 6 -12.37127167346735 -0.84507191729173 -1.69419022752275
 6 -12.24106159455946 -1.28487089828983 -3.04627974657466
 7 -7.20057952625263 -1.38541815541554 -0.24980965796580
 6 -8.19385962576258 -2.27422259435944 -0.55864081928193
 6 -7.76138228382838 -3.66639490699070 -0.56639391669167
 6 -6.49370325442544 -3.60055439243924 -0.09186091799180
 6 -6.16570916731673 -2.20184846614662  0.00563336753675
 6 -8.55644311171117 -4.83015585798580 -0.70960943934393
 6 -5.26487095739574 -4.38283216671667  0.09982285488549
 8 -5.06724556245625 -5.58604308770877 -0.01727469676968
 6 -4.11491507090709 -3.36163195299530  0.56350621592159
 6 -3.50079070997100 -3.71270649194920  1.90951132403240
 8 -3.67639924052405 -3.11067780398040  2.97339002010201
 8 -2.67355854955496 -4.73816853925393  1.72477105800580
 6 -2.07615820372037 -5.27182141124112  2.98335327082708
 6  2.88045055675568 -0.60242803740374 -1.00823202360236
 6  4.13235532453245 -0.34953312961296 -0.33539368836884
 6  5.15429891429143  0.39892615801580 -0.76028580128013
 6  5.20585900890089  1.12566521582158 -2.13661782708271
 6  6.56451078387839  0.52248409860986 -0.02997948314831
 6  7.68143568146815 -0.00012035893589 -0.90501745224522
 6  8.98476034863486  0.18120298989899 -0.10464227702770
 6  10.20276090059006 -0.39522659435944 -0.96487745824582
 6  10.02049875007501 -1.89764070017002 -1.40931439643964
 6  11.42272514941494 -0.20685446624662 -0.06243537493749
 6  12.75701060876088 -0.46293034413441 -0.88543856675668
 6  13.93447291569157 -0.09705090789079 -0.02217515001500
 6  15.39781590649065 -0.28096182528253 -0.51899013881388
 6  15.67877954685468 -1.78741637543754 -0.87621723942394
 6  16.38793289918992  0.23005736573657  0.40899540674067
 6  17.83111770117011  0.45058645704570 -0.22237805240524
 6  18.87129749924993  1.10855907290729  0.69681011401140
 6  20.28469713891389  1.18462879637964  0.18281304450445
 6  20.55186654045405  2.11382968016802 -1.05829682238224
 6  21.19680061086109  1.74632756905691  1.28990435383538
 1 -4.07440892539254  3.47284280568057  1.49347393429343
 1 -10.11296168886889  3.99811064606461 -0.80873626512651
 1 -10.21844513391339 -2.42666200700070 -1.32829948214821
 1 -2.62818927582758 -0.95829414331433  2.10087077827783
 1 -2.32656626182618  1.80959454205421  1.50248089848985
 1 -2.41777623512351  0.80888134103410  3.80251396489649
 1 -3.41003606360636  2.37995205270527  3.64573673907391
 1 -3.90254369706971  0.75151983598360  3.70229264206421
 1 -2.04555704060406 -1.40838079847985 -0.41814572377238
 1 -1.98685035753575  0.21620887128713 -0.83356339593959
 1 -0.24252777017702  0.56139075297530  1.18325872497250
 1 -0.28805660766077 -1.18398291349135  1.47045100030003
 1 -5.65770454585459  6.71354999909991  0.45804151335133
 1 -5.65014200360036  6.46825018811881  1.97772406950695
 1 -4.42905686168617  5.40686185258526  1.11391456705671
 1 -9.59737178967897  5.89478562666267 -0.36691691989199
 1 -8.98700991689169  8.17175791469147  0.68962858465847
 1 -7.42303176897690  7.68658505800580  1.24213259875988
 1 -12.37400150525052  2.90851117711771 -2.37209021372137
 1 -13.46055572477248  1.76651054225422 -1.37841903340334
 1 -12.35789752085209  3.26828548324832 -0.52295353935394
 1 -12.38891366976698 -1.87500694579458 -1.16025097999800
 1 -13.31654037293729 -0.49029576637664 -1.47961348884889
 1 -13.01051740434044 -1.92678736493649 -3.26785667016702
 1 -12.35004856905691 -0.43912845044504 -3.79936343204320
 1 -11.25550182948295 -1.69348421552155 -3.29477809780978
 1 -8.95681528452845 -4.89457019991999 -1.68926219031903
 1 -7.89085845064506 -5.76084608880888 -0.57644725772577
 1 -9.26019590449045 -4.84597961926193  0.10383856125613
 1 -3.30075077097710 -3.48740199089909 -0.38429370087009
 1 -1.26319448594859 -4.62015845554556  3.25611852715272
 1 -2.94902451105110 -5.56026764436444  3.75904874377438
 1 -1.71825993749375 -6.23929320252025  2.85380933383338
 1  2.88507781188119 -1.79551138703870 -1.29748371337134
 1  2.73300077767777 -0.10309603000300 -1.96926007820782
 1  4.16405731133113 -0.75302751795180  0.66419963596360
 1  4.08015697919792  1.19065777617762 -2.44463283298330
 1  5.56230164186419  2.26161642054205 -1.96178264646465
 1  5.81783909150915  0.54591569906991 -2.92656138713871
 1  6.81246330923092  1.53377737773777  0.10060270307031
 1  6.51171529092909 -0.18380641804180  0.87567728442844
 1  7.47954533923392 -1.10105934113411 -1.14153547714772
 1  7.62921535743574  0.49067227532753 -2.00427335093509
 1  9.23850590219022  1.33654153915392 -0.01850421822182
 1  8.85732422112211 -0.14539004520452  0.92332019571957
 1  10.21272882428243  0.19612214991499 -1.87207209670967
 1  9.08274325982598 -1.71040901740174 -2.07171309610961
 1  10.85190774647465 -2.19896668056806 -2.12432667656766
 1  9.72069495549555 -2.64863680568057 -0.76733617331733
 1  11.29897757865787  0.91591382158216  0.15599708720872
 1  11.38875192859286 -0.80579654095410  0.62657327892789
 1  13.01456477537754 -1.61925008620862 -1.13443111071107
 1  12.64712846534653  0.09842053305331 -1.97542090339034
 1  13.84687612431243  1.07415997199720  0.08645598859886
 1  13.81709446254625 -0.69346895159516  0.76407292379238
 1  15.18383167166717  0.37292677767777 -1.27180153815382
 1  15.59262670557056 -2.32273256535654  0.06944549064907
 1  15.11445449614961 -2.32515489108911 -1.82047946304630
 1  16.62744237363736 -2.02069759465947 -1.39888135763576
 1  15.98920412111211  1.15970380408041  0.63497004130413
 1  16.58014246144614 -0.40983015811581  1.35434819601960
 1  18.04409534823482 -0.68722526992699 -0.55815915631563
 1  17.57176424092409  1.22811012991299 -1.19929350515052
 1  18.31622241484148  2.21915607330733  0.98763676897690
 1  18.87578473877388  0.62905708670867  1.61684168446845
 1  20.69194410711071  0.16319246744674  0.21375843984398
 1  20.24377848444844  3.13111667356736 -0.79817341074107
 1  21.67018127022702  2.12873952675268 -1.18171953525352
 1  19.88415231963197  1.79708151895189 -1.94292126112611
 1  20.96949292449245  1.27013512261226  2.29781939913991
 1  22.31166287258726  1.86482771247125  0.85943090939094
 1  20.71477120702070  2.81974205750575  1.70444088458846
=======
12 -7.12134270727073  0.67361610971097 -0.02805511811181
 6 -4.86650126812681 -1.98166934533453  0.52863939663966
 6 -4.87149707860786  2.82106055335534  1.22563892879288
 6 -9.36935167066707  3.09585508100810 -0.37750060976098
 6 -9.55161547524752 -1.67633314431443 -0.88889531863186
 7 -5.15596902150215  0.40623044114411  0.70193061136114
 6 -4.29987969406941 -0.75545536753675  0.81647967116712
 6 -2.85988499389939 -0.41256068176818  1.21111146534653
 6 -3.03252669106911  1.09343201150115  1.79285001570157
 6 -4.42387938283828  1.44869561836184  1.16999402930293
 6 -2.94891997409741  1.33783607170717  3.25821723062306
 6 -1.95125858685869 -0.63890915231523  0.10274423272327
 6 -0.43082050465047 -0.44604895209521  0.56750087938794
 6  0.45638677587759 -0.76560007290729 -0.55127050755076
 8  0.18125936603660 -1.32067747534753 -1.57373370507051
 8  1.71539334983498 -0.38968636503650 -0.25992278117812
 7 -7.13886433433343  2.55916150595060  0.34292298779878
 6 -6.08471775077508  3.38618959475948  0.79822335593559
 6 -6.38824607770777  4.73844813421342  0.81241192839284
 6 -7.69814252125212  4.91227185868587  0.35726411771177
 6 -8.15445971757176  3.53936313161316  0.06852939923992
 6 -5.34790274697470  5.92558502440244  1.12219698019802
 6 -8.54338213581358  6.03143417711771  0.20388737413741
 6 -8.47679157045705  7.17243336193619  0.83292954275428
 7 -9.12591486408641  0.65444830593059 -0.56067010071007
 6 -9.78469472917292  1.79937989108911 -0.61981830593059
 6 -11.10722981958196  1.52244058315832 -1.21906362586259
 6 -11.23742614651465  0.15938130223022 -1.25647436143614
 6 -9.94952063276328 -0.36813878817882 -0.94734975107511
 6 -12.15734455815582  2.45318588958896 -1.57868464326433
 6 -12.35803034933493 -0.71702911301130 -1.88365917441744
 6 -12.16452394079408 -1.12085449664966 -3.36938205680568
 7 -7.24622409070907 -1.35317493109311 -0.12184686168617
 6 -8.29641988178818 -2.21912708480848 -0.56150110531053
 6 -7.82043818941894 -3.68002627012701 -0.47683496079608
 6 -6.52738662276228 -3.61892622962296 -0.06700843274327
 6 -6.24081667806781 -2.14195247654765  0.11093389758976
 6 -8.70605807320732 -4.83217606000600 -0.83333181158116
 6 -5.37633210351035 -4.38070195369537  0.30344321692169
 8 -5.21276011391139 -5.58494297769777  0.29892692339234
 6 -4.15589916931693 -3.35607139693969  0.66371623692369
 6 -3.52586321722172 -3.67935315661566  2.03110348324832
 8 -3.85771737233723 -3.19173590979098  3.06450913201320
 8 -2.79024021772177 -4.73722844524452  1.88361694259426
 6 -2.04049463736374 -5.17698192729273  2.95357029252925
 6  2.81791430313031 -0.71040883548355 -1.19495069546955
 6  4.16229831883188 -0.57481565786579 -0.58070821982198
 6  5.14179766416642  0.27506377177718 -0.99523929662966
 6  4.98283670667067  1.20337298659866 -2.16722088738874
 6  6.46397072987299  0.30899274947495 -0.32292877807781
 6  7.64089162706271 -0.04100444734473 -1.19019597009701
 6  8.94185605820582  0.03909877947795 -0.31682349514952
 6  10.17468809330933 -0.53932100380038 -1.08155912641264
 6  10.08343504370437 -2.00852178827883 -1.29276274127413
 6  11.46441931883188 -0.25667944874487 -0.16027515891589
 6  12.83734864256426 -0.48898294939494 -0.78666868976898
 6  13.97135660406041 -0.01138234103410  0.24032109960996
 6  15.29495562046205 -0.13273700280028 -0.46082432223222
 6  15.63716538543854 -1.51238887268727 -0.93100271797180
 6  16.42044615051505  0.37328168816882  0.45019952715272
 6  17.88777336673667  0.51596299469947 -0.12727854245425
 6  18.81622199169917  1.25853407040704  0.75496592959296
 6  20.26869553875387  1.43586391989199  0.28124288748875
 6  20.29882123592359  2.27753605080508 -1.03312430513051
 6  21.16127705850585  1.75716865316532  1.37303266666667
 1 -4.25404688918892  3.41234675607561  1.98229281618162
 1 -9.96531692439244  4.01660249524952 -0.55143053455345
 1 -10.34378766816682 -2.44820416121612 -1.07029368156816
 1 -2.61391784868487 -1.23394170807081  1.95035572677268
 1 -2.37871147634764  1.77917149974997  1.20029067946795
 1 -1.94983944144414  0.94242469536954  3.65651936543654
 1 -3.38421348134813  2.23941799929993  3.70211237663766
 1 -3.61175461816182  0.56031071507151  3.83608602140214
 1 -2.01119360426043 -1.68265822622262 -0.33448735793579
 1 -2.09439111161116  0.16105335573557 -0.59580962056206
 1 -0.19131264866487  0.58515312921292  0.83108350745074
 1 -0.29977777977798 -1.02663717891789  1.37021097629763
 1 -5.72766154155416  6.70352899699970  0.71405711491149
 1 -5.27451444084408  6.15651901500150  2.24514081118112
 1 -4.36016997299730  5.53118428482848  0.89175235083508
 1 -9.39066111861186  6.10799694779478 -0.52928315651565
 1 -9.26074729062906  7.94596533543354  0.51553117491749
 1 -7.72944241004100  7.42428882838284  1.62424080958096
 1 -12.10300440554055  3.01753207920792 -2.49631263596360
 1 -13.15424509370937  1.82587647884788 -1.68109930143014
 1 -12.17948968006801  3.14163281798180 -0.67418866286629
 1 -12.54547932633263 -1.65108455355536 -1.27612256715671
 1 -13.15132385128513 -0.22195893269327 -1.78520404790479
 1 -12.96446279887989 -1.78847353355336 -3.74275415991599
 1 -12.48298186238624 -0.28212274987499 -3.91348484418442
 1 -11.04615089438944 -1.41585645274527 -3.46598521852185
 1 -8.97868747174718 -4.64645538843884 -1.84552781688169
 1 -8.06502586738674 -5.69107911211121 -0.98001761476148
 1 -9.55049493439344 -4.97765278657866 -0.19746156875688
 1 -3.52187288318832 -3.58642189288929 -0.22918819031903
 1 -1.35968413491349 -4.29544598429843  3.40169308460846
 1 -2.62647225582558 -5.64582620022002  3.64946778567857
 1 -1.37272538403840 -5.94039331253125  2.69894384728473
 1  2.51866117021702 -1.73457529342934 -1.50283424842484
 1  2.73012048964896 -0.14742046244624 -2.13936708890889
 1  4.17021792739274 -1.09171138633863  0.42620583658366
 1  3.77056602010201  1.12210092049205 -2.56385475517552
 1  5.31584699639964  2.35464572347235 -2.12838930713071
 1  5.56165347294729  0.58397950545055 -2.90892962396240
 1  6.70267233013301  1.39255325532553 -0.04054141134113
 1  6.29238335773577 -0.28222626002600  0.65284500120012
 1  7.49311669636964 -1.08711794699470 -1.54700602420242
 1  7.77131956785679  0.66919012711271 -1.92832575617562
 1  9.00257230883088  1.19352723772377  0.09827745994599
 1  8.76100458915892 -0.46102160836084  0.72568043174317
 1  10.28494604600460 -0.02320978327833 -2.06452134163416
 1  9.48130311581158 -2.34531250775078 -2.25287121192119
 1  11.08517107280728 -2.31458824272427 -1.59567381128113
 1  9.92935582158216 -2.42966490849085 -0.32080151985199
 1  11.43593127402740  0.84208643884388  0.10874236173617
 1  11.26616967036704 -0.74810077137714  0.83594421602160
 1  12.76901021992199 -1.52698085928593 -0.84906257385739
 1  12.89741349384938  0.09291998299830 -1.83370673197320
 1  13.91688312501250  0.90965352135214  0.66911425442544
 1  14.03913666676668 -0.80166977167717  1.02494901140114
 1  15.31012430093009  0.49428891389139 -1.37041139913991
 1  15.73580102300230 -2.26816710881088  0.01419996609661
 1  14.71806485718572 -1.92613498909891 -1.74417183228323
 1  16.55116474587459 -1.89809533443344 -1.43686515601560
 1  16.21567676837684  1.45672350605060  0.66174271857186
 1  16.53356780398040 -0.09458863396340  1.47425018621862
 1  18.18571951065107 -0.46265281268127 -0.26464980538054
 1  17.95385244974497  0.98100541944194 -1.23368694449445
 1  18.18455924852485  2.30736489418942  1.00475848114812
 1  18.92468962926293  0.95888006900690  1.74050405070507
 1  20.59778469116912  0.38575472367237 -0.32204514051405
 1  20.08350245684568  3.31999556145615 -0.84680827422742
 1  21.28567281938194  2.52191884468447 -1.50149151245125
 1  19.52594649904991  2.15567737853785 -1.80180714971497
 1  20.81261723692369  1.04612272137214  2.29279889708971
 1  22.16593830013001  1.45874710441044  0.91615658195820
 1  20.96800653055306  2.76657674097410  1.76717715821582
>>>>>>> 8e03b5b5abfc0030b3aa597dc0de36371bfbd096

