%nproc=4
%Mem=2GB
# td=(NStates=1) CAM-B3LYP/6-31G(d,p) 

TD

0 1
12 -7.25413598659866  0.64614336243624  0.22436012341234
 6 -4.87830244824482 -1.87870904930493  0.40807734043404
 6 -4.79350927982798  2.84914336163616  1.22378874377438
 6 -9.40224495999600  3.09552504800480 -0.44173703340334
 6 -9.64105441914191 -1.74779029002900 -0.79856628572857
 7 -5.04892831743174  0.50284010211021  0.68917933623362
 6 -4.33024273037304 -0.70393021502150  0.74920294349435
 6 -2.97698670407041 -0.37817724342434  1.26857721192119
 6 -3.03000643904390  1.10774344264426  1.62474320502050
 6 -4.30172716761676  1.50656140494049  1.11188821872187
 6 -2.98860394249425  1.28989127722772  3.21559296819682
 6 -1.97639110011001 -0.60359562096210  0.01414537283728
 6 -0.50496791939194 -0.50402474967497  0.45020915021502
 6  0.55088622582258 -0.75846935983598 -0.64290967146715
 8  0.21190243034303 -1.10088549614962 -1.74638096979698
 8  1.82915472597260 -0.53796119251925 -0.23273006190619
 7 -7.08279872777278  2.57916350615062  0.31332002750275
 6 -5.99218849784979  3.37112808860886  0.81947548114811
 6 -6.50963821692169  4.76249053845385  0.87618830603060
 6 -7.74757746474647  4.79032966446645  0.34812320362036
 6 -8.09588385998600  3.45344453975398 -0.05834328802880
 6 -5.55715367206721  5.97133959985999  1.22930769126913
 6 -8.58572637023702  6.00464149784979  0.11416840224022
 6 -8.49653354465447  7.12429854845485  0.77394364416442
 7 -9.19136140874087  0.65729859095910 -0.38586261996200
 6 -9.88391465116512  1.82386233933393 -0.69370569466947
 6 -11.16806590319032  1.47510584968497 -1.09085080458046
 6 -11.26487889178918  0.06479184328433 -1.20459917391739
 6 -9.95160084078408 -0.38599057335734 -0.76971198729873
 6 -12.22906172987299  2.56893746474647 -1.63418019281928
 6 -12.45664021032103 -0.69186659675968 -1.73190399889989
 6 -12.30962845124512 -1.04219663086309 -3.28938405700570
 7 -7.29899936823682 -1.37765737933793 -0.16929160616062
 6 -8.32508274807481 -2.27443261536154 -0.58672362756276
 6 -7.81734788038804 -3.61126939443944 -0.52229950725073
 6 -6.47107099119912 -3.52581691869187 -0.09462119401940
 6 -6.21742433883388 -2.18389667096710  0.11850465466547
 6 -8.60148761616161 -4.92618546094609 -0.91226970537054
 6 -5.40460493079308 -4.25753963746375  0.17444031663166
 8 -5.17498633653365 -5.50360484388439  0.17123415411541
 6 -4.25348892829283 -3.35276106590659  0.54934479977998
 6 -3.61337196809681 -3.57594281558156  1.80586095899590
 8 -3.81371297189719 -3.07711444764476  2.98427110821082
 8 -2.90411160486049 -4.73536825922592  1.72296087698770
 6 -2.20912150005001 -5.17898212731273  2.90917585308531
 6  2.87354986668667 -0.73432122672267 -1.27972917331733
 6  4.19814190319032 -0.62878105440544 -0.48757890689069
 6  5.18027151155115  0.20557682308231 -0.83328310101010
 6  5.17020544354435  1.16133878317832 -2.04620878617862
 6  6.43187752055205  0.18160001020102 -0.04051053625363
 6  7.68038557645765 -0.25164551145115 -0.83663061356136
 6  8.94886675927593 -0.23591872227223 -0.08442025482548
 6  10.25721634613461 -0.65018208990899 -0.85108607910791
 6  10.26622332253225 -2.15356629272927 -1.09382284728473
 6  11.45449832673267 -0.26150993179318  0.05057592619262
 6  12.87522242994299 -0.37530158125813 -0.68164818771877
 6  14.01783125152515 -0.21492269506951  0.26858392589259
 6  15.36366249114912 -0.21120484958496 -0.46772501230123
 6  15.72853452235223 -1.64274190799080 -0.76759637733773
 6  16.49793389928993  0.33657801780178  0.40205471267127
 6  17.83181777117712  0.63967536593659 -0.27841365596560
 6  18.89535990549055  1.35844406140614  0.66806723972397
 6  20.26000466966697  1.53792412591259  0.05373013621362
 6  20.35478683248325  2.29601789898990 -1.28541953465347
 6  21.16171710251025  2.17525046134613  1.13393875727573
 1 -4.02802428692869  3.68197371877188  1.53925851275127
 1 -10.09194958765877  3.99512034703470 -0.64789018051805
 1 -10.48784207360736 -2.26607594839484 -0.97452410461046
 1 -2.66395285218522 -1.12510082398240  1.96768745994599
 1 -2.38470207540754  1.67180076267627  1.18132878327833
 1 -2.26713117061706  0.87252770567057  3.67591130463046
 1 -2.98502356235624  2.37869192669267  3.39894205960596
 1 -3.75557900060006  0.60843552755276  3.55058747154715
 1 -2.14776726162616 -1.56023598399840 -0.32163607280728
 1 -2.12474414691469  0.11518876927693 -0.71355139473947
 1 -0.26182970037004  0.41843645754575  0.84699509860986
 1 -0.31370917291729 -1.14918943414341  1.30110406560656
 1 -6.33066184158416  6.75875451955195  0.69692540174017
 1 -5.35765275467547  6.11988535163516  2.33150944804480
 1 -4.54277823382338  5.94361552795279  0.39348252385238
 1 -9.19612166466647  5.93446959505951 -0.56815704390439
 1 -8.75640685658566  8.03400413931393  0.36831645344534
 1 -7.74954442024202  7.53884028352835  1.56731511701170
 1 -11.62524662976298  3.48489881588159 -2.32713571827183
 1 -13.03655332453245  2.06598048924892 -2.36251744324432
 1 -12.85601733283328  2.88347700240024 -0.72786403040304
 1 -12.56414119251925 -1.65439488458846 -1.33507846274627
 1 -13.34630334923492 -0.10080681748175 -1.43826935443544
 1 -13.06186253885389 -1.69926461266127 -3.68824870937094
 1 -12.48790235443544 -0.02117665526553 -3.87194068976898
 1 -11.11772805210521 -1.32491735883588 -3.70047866786679
 1 -8.34332393539354 -4.98171891479148 -2.27436070017002
 1 -7.88890825562556 -5.82743274747475 -0.49364897789779
 1 -9.56462634753475 -5.08066308760876 -0.49218104070407
 1 -3.58862955885589 -3.50999425012501 -0.15618088958896
 1 -1.62982114861486 -4.24985142484248  3.46916983228323
 1 -2.86811642024202 -5.54905652325233  3.59482232113211
 1 -1.77042515401540 -6.02167144034403  2.43874782768277
 1  2.80383968806881 -1.87567940384038 -1.67761172617262
 1  2.85967344494449 -0.08454417481748 -2.14946809900990
 1  4.12508341394139 -1.26571878707871  0.36070928692869
 1  4.18189715321532  1.39326803720372 -2.70941931163116
 1  5.41969738143814  2.11221148004800 -1.46818328652865
 1  5.66838414601460  1.01644275177518 -2.93066179717972
 1  6.51469353225322  1.15802980298030  0.49158180098010
 1  6.28897301670167 -0.37231526892689  0.77326704340434
 1  7.45967335203520 -1.22358159335934 -1.13984530813081
 1  7.87859029492949  0.22871607970797 -1.73855677927793
 1  8.98948099969997  0.84457234223422  0.24499213141314
 1  8.98641713041304 -0.81231673787379  0.66372423612361
 1  10.41730928232823  0.11348388608861 -1.74904979447945
 1  9.33038802430243 -2.40526850335034 -1.58295422022202
 1  11.00954351005100 -2.50281706560656 -1.85405964986499
 1  10.53256614261426 -2.68655059705971 -0.09608904860486
 1  11.45501318221822  0.77340957115712  0.37058854635464
 1  11.31883493689369 -0.86566252755275  0.93801442304230
 1  13.03930724962496 -1.27401556275628 -1.26294396199620
 1  13.03114686718672  0.42903359435944 -1.50876423772377
 1  13.82825426212621  0.85079763576358  0.78846618961896
 1  14.10539329242924 -0.89880948564856  0.91560807730773
 1  15.12905619411941  0.25718520352035 -1.45750010801080
 1  15.83122056495650 -2.35438573067307  0.09908845494549
 1  15.10324337503750 -2.06910928652865 -1.50575799089909
 1  16.75724535393540 -1.82027755265527 -1.26472794229423
 1  16.22214741544154  1.21464929862986  0.95253179747975
 1  16.35433988118812 -0.39693886898690  1.12066482768277
 1  18.01021195989599 -0.47484403180318 -0.61053439383938
 1  17.49271633613361  1.20757807670767 -0.98384195999600
 1  18.64007480008001  2.27629178687869  0.87693569886989
 1  18.76005316561656  0.98552273327333  1.62548254855486
 1  20.60567548024802  0.47720386858686  0.00854791879188
 1  19.89072317891789  3.20425398729873 -1.22448604200420
 1  21.34499875197520  2.51820847364736 -1.55675703900390
 1  19.94671857625763  1.69140095089509 -2.16429339833984
 1  20.96111208640864  1.41212932203220  2.01089070627063
 1  22.24306601290129  2.41931316101610  1.03252821912191
 1  20.64623435333533  3.15981606490649  1.73065350585058

