%nproc=4
%Mem=2GB
# td=(NStates=1) CAM-B3LYP/6-31G(d,p) 

TD

0 1
12 -7.08534910791079  0.56327507560756 -0.01047335993599
 6 -4.77592221022102 -1.86403758215822  0.59170570327033
 6 -4.89831976087609  2.85625407270727  1.22278864376438
 6 -9.41974671017102  3.01344684018402 -0.46388924862486
 6 -9.41552186588659 -1.82678818981898 -0.90479690879088
 7 -5.06337976257626  0.47252707080708  0.62534295259526
 6 -4.25875558165817 -0.66808663066307  0.73869189238924
 6 -2.82705171057106 -0.35955538123812  1.31667202140214
 6 -3.05268870727073  1.16465913421342  1.74462519321932
 6 -4.33221021592159  1.55398614741474  1.15295232513251
 6 -3.07416249834984  1.27870015811581  3.28061947084708
 6 -1.89245270627063 -0.62241750315031  0.14313827212721
 6 -0.32264968756876 -0.35836018321832  0.60152428172817
 6  0.49231036823682 -0.44201771467147 -0.68951433193319
 8  0.30804204430443 -0.78818422602260 -1.86005233693369
 8  1.76755856635664 -0.29515691209121 -0.25628241714171
 7 -7.14001444934493  2.60253584338434  0.26972566806681
 6 -6.16783606260626  3.37602857865787  0.78287182078208
 6 -6.50253750685068  4.75605989538954  0.77803849104910
 6 -7.77928063506351  4.87250788228823  0.38444683598360
 6 -8.21797606920692  3.46806600190019  0.06741928822882
 6 -5.64200215691569  5.85692815871587  1.17413217371737
 6 -8.73437123472347  6.00577161086109  0.21542852825283
 6 -8.73115700700070  7.18583470207021  0.80101635143514
 7 -9.09654192679268  0.62215507660766 -0.67345137883788
 6 -9.89858611831183  1.71408136123612 -0.72500882498250
 6 -11.18753785038504  1.34484282338234 -1.18909062856286
 6 -11.23350575447545 -0.05855049094909 -1.31217993199320
 6 -9.88288396909691 -0.46803877817782 -0.92304732083208
 6 -12.31953077677768  2.36191676267627 -1.27524429922992
 6 -12.36516106240624 -0.95242265236524 -1.63745455395540
 6 -12.41179866826683 -1.11850426162616 -3.14096921552155
 7 -7.18370783908391 -1.47926754035404 -0.16870154715472
 6 -8.21926216601660 -2.29470464256426 -0.52806776197620
 6 -7.73686983258326 -3.63874214171417 -0.51901917921792
 6 -6.40876476057606 -3.61226556355636  0.00953922202220
 6 -6.15300789718972 -2.22118039933993  0.24421722592259
 6 -8.56387385478548 -4.88815165756576 -0.87852633103310
 6 -5.13903837413741 -4.33572745624562  0.25773864646465
 8 -4.95855469336934 -5.53238772217222  0.26090312101210
 6 -4.09595317471747 -3.25544133393339  0.70295016031603
 6 -3.48793942484248 -3.58086330763076  1.94078445134513
 8 -3.77623922452245 -3.11464820102010  3.00805348644864
 8 -2.68822001570157 -4.60439516191619  1.84705328622862
 6 -2.17572816071607 -5.11477570667067  3.01858679417942
 6  2.75849836153615 -0.34170196479648 -1.22624382478248
 6  4.21106319531953 -0.21536971327133 -0.61579172817282
 6  5.15351883628363  0.60612687808781 -1.12600237293729
 6  5.09195761876188  1.29194184348435 -2.36392055735574
 6  6.50228456125613  0.64791664186419 -0.42456894209421
 6  7.65241277917792 -0.01204155105511 -1.13069001950195
 6  8.88891076367637 -0.01902703310331 -0.29158097089709
 6  10.14877550205020 -0.55745281698170 -0.98364933543354
 6  9.97438413861386 -1.97841877797780 -1.39650311531153
 6  11.42828570547055 -0.31252503330333  0.02149301790179
 6  12.77476238393839 -0.59916396749675 -0.66055607850785
 6  13.98386785518552 -0.34845604840484  0.24828189568957
 6  15.30486661156116 -0.32634636373637 -0.45566380618062
 6  15.71809347824782 -1.78637627142714 -0.95304492219222
 6  16.29410351625162  0.26518087808781  0.56417092429243
 6  17.75819040844084  0.39560095849585 -0.06676249084909
 6  18.73185355485549  1.09846806380638  0.84604503750375
 6  20.19597826702670  1.21862219571957  0.25969073227323
 6  20.31164251805180  2.10259855705571 -1.08301929462946
 6  21.15299623042304  1.69240217651765  1.35007037043704
 1 -4.08067955245525  3.66043156455646  1.51172575947595
 1 -10.12074246694669  3.76558739373937 -0.47676306780678
 1 -10.19227251665166 -2.54498383918392 -1.14332098429843
 1 -2.58823528042804 -0.84236255015502  2.18454914611461
 1 -2.14259786498650  1.99268285088509  1.55071572197220
 1 -1.83131758925893  0.80135058795880  3.39678339183918
 1 -3.05401046104611  2.15275933343334  3.81862402780278
 1 -3.93875731843184  0.71001568556856  3.80764317711771
 1 -1.90213269816982 -1.68945890629063 -0.24401831103110
 1 -2.18935060756076  0.11326857725773 -0.71718175777578
 1 -0.11207472487249  0.67353196709671  0.95544594369437
 1  0.03007520552055 -1.20685520072007  1.23757771297130
 1 -6.00997977337734  6.71792043614361  0.69544525372537
 1 -5.43224021342134  5.93748711181118  2.36347264436444
 1 -4.56321027702770  5.79311047744774  0.74707788338834
 1 -9.47114916741674  5.88659480758076 -0.54202443064306
 1 -9.62862407830783  7.86408714761476  0.68154777657766
 1 -7.90168963476348  7.40686708620862  1.47218560406041
 1 -12.28534263936394  3.11361168716872 -2.17107011171117
 1 -13.28628829802980  1.97951184238424 -1.59563075457546
 1 -12.55615734683468  2.98718737343734 -0.47484872887289
 1 -12.20463524192419 -1.95724516961696 -0.99575453035304
 1 -13.31479019791979 -0.44401113791379 -1.17722324982498
 1 -13.34199055165517 -1.63811849804980 -3.50620050455045
 1 -12.55577914211421 -0.20134467206721 -3.53191668736874
 1 -11.67230350965097 -1.71139600670067 -3.60729934993499
 1 -8.93084268726873 -5.17215795869587 -2.00343360746075
 1 -8.00277964276428 -5.69946995119512 -0.70656026902690
 1 -9.30407029192919 -4.79622464376438 -0.23076489908991
 1 -3.38445914181418 -3.44509776047605 -0.27124239573957
 1 -1.54335250175017 -4.26358279797980  3.51471438673867
 1 -2.94340394899490 -5.69277089468947  3.59774261316132
 1 -1.66844495599560 -5.93465273847385  2.67639159205921
 1  2.64189349344934 -1.38312014791479 -1.66232019701970
 1  2.62494997259726  0.21560584018402 -1.99154230643064
 1  4.28683958955896 -0.78306052125213  0.25843905990599
 1  4.06986595009501  1.22612132253225 -2.85075344504450
 1  5.37220263196320  2.45143540244024 -2.35488195639564
 1  5.49399670727073  0.75968707620762 -3.05202393339334
 1  6.74510657355736  1.66071007100710 -0.37409476667667
 1  6.39438355775578  0.14940690329033  0.58155787248725
 1  7.36793417811781 -1.09029826502650 -1.27079840344034
 1  7.62958539443944  0.46641985008501 -2.07601052465247
 1  8.96709876147615  1.08987687268727  0.06278391059106
 1  8.93582207090709 -0.70920642684268  0.60236810051005
 1  10.51082863426343 -0.05546300860086 -1.95175006450645
 1  9.21622660816081 -2.02051002750275 -2.41923784858486
 1  10.89503205890589 -2.27832461636164 -1.76156039993999
 1  9.60949383538354 -2.53079502150215 -0.51149058875888
 1  11.57948562946295  0.79159138933893  0.24468595609561
 1  11.28370142354236 -0.94642060336034  1.09161978357836
 1  12.95010832973297 -1.76863502470247 -0.89730739833983
 1  12.98494224672467  0.12652334333433 -1.48159152045205
 1  13.88696013271327  0.67085964196420  0.87382472547255
 1  14.01500425352535 -1.05328493319332  1.15242175867587
 1  15.34679796829683  0.54493397839784 -1.23530788878888
 1  15.82037948084809 -2.44562485458546 -0.17339879377938
 1  14.94000705140514 -2.25827820342034 -1.52180959605961
 1  16.68850848024803 -1.87957348224822 -1.44000547004700
 1  15.95857105780578  1.11980981468147  0.75630217451745
 1  16.34911935913591 -0.37098627372737  1.62892565376538
 1  18.13912485118512 -0.52091863926393 -0.34770811121112
 1  17.53080014451445  1.06032335123512 -1.03280685648565
 1  18.49497028962896  2.00178433613361  1.25066307160716
 1  19.05686284658466  0.37502168316832  1.73183318361836
 1  20.57690260296030  0.34781092929293  0.25828289228923
 1  19.94835894249425  3.05808937083708 -0.89029262266227
 1  21.35957020912091  1.86866351915192 -1.42187355065507
 1  19.81281518591859  1.80022183298330 -1.98847581658166
 1  21.18784475967597  0.98536664576458  2.18922854005401
 1  22.20732243854385  1.81772300200020  1.17796276257626
 1  20.82665239513952  2.63414349764977  1.98356879737974

