%nproc=4
%Mem=2GB
# td=(NStates=1) CAM-B3LYP/6-31G(d,p) 

TD

0 1
12 -7.08458903190319  0.52705145324532  0.00414810221022
 6 -4.83909852785279 -1.95324650305031  0.51784831753175
 6 -4.75460538943894  2.77363581088109  1.12609897479748
 6 -9.34401913741374  3.18934442994299 -0.42396525622562
 6 -9.52583289698970 -1.69509502050205 -0.79061549064906
 7 -5.12480590519052  0.46753657175718  0.74474489278928
 6 -4.34997470357036 -0.72007182918292  0.80745876907691
 6 -2.98302730813081 -0.53002242794279  1.20478083228323
 6 -3.00879431783178  1.03614628292829  1.58823955465547
 6 -4.36308330323032  1.48359910871087  1.15378240814081
 6 -3.03170825292529  1.18330061816182  3.07268867776778
 6 -1.97741120212021 -0.71744700610061  0.10149410771077
 6 -0.46618404100410 -0.49058340554055  0.52951708100810
 6  0.48880001720172 -0.65730924382438 -0.62180756125613
 8  0.11914315441544 -0.93005841344134 -1.72607893959396
 8  1.81668347884788 -0.66292368876888 -0.17331412031203
 7 -7.03409385728573  2.59935552535254  0.36965566106611
 6 -5.99077835683568  3.38609958575858  0.68521205480548
 6 -6.27330458355835  4.75966025542554  0.80856154335434
 6 -7.64769747674767  4.80199083058306  0.41141953325333
 6 -8.01776604820482  3.48056725202520 -0.00884833853385
 6 -5.47838579527953  5.86617908380838  1.22568732923292
 6 -8.37779557715771  6.10717175087509  0.14961194659466
 6 -8.29610350165017  7.20346646524652  0.86506275607561
 7 -9.12962523512351  0.70593345444544 -0.47583161686169
 6 -9.78551481118112  1.86689664276428 -0.68020434453445
 6 -11.08856795339534  1.51349968906891 -1.08891061056106
 6 -11.16251865576558  0.07473283738374 -1.21502021602160
 6 -9.94753043374337 -0.35023699799980 -0.82401741784178
 6 -12.14689351305130  2.50745131613161 -1.42217899269927
 6 -12.34856940324032 -0.77274468456846 -1.72373318181818
 6 -12.29818730713071 -1.17279969116912 -3.27631274987499
 7 -7.25248471677168 -1.42744235783578 -0.15837051405140
 6 -8.29462970277028 -2.24864003610361 -0.47223217841784
 6 -7.87015316091609 -3.61605987348735 -0.41074835213521
 6 -6.48900278437844 -3.56004034103410 -0.10041177307731
 6 -6.15802839923992 -2.26912519381938  0.05890869506951
 6 -8.86368383578358 -4.86276911931193 -0.68189666806681
 6 -5.38235270557056 -4.38114199769977  0.14799767236724
 8 -5.17644648254826 -5.55520000340034  0.15473250395039
 6 -4.13436701610161 -3.36818260806081  0.60101996729673
 6 -3.59758038893889 -3.73308853015302  1.92062243514351
 8 -3.91247284788479 -3.16648338453845  2.98950163126313
 8 -2.63134432813281 -4.68359308170817  1.75273385428543
 6 -1.99397998589859 -5.00149437853785  3.09521445694569
 6  2.78624113581358 -0.78276607120712 -1.22767396779678
 6  4.12305439443944 -0.45878405470547 -0.64241439043904
 6  5.13155664006401  0.34431069646965 -1.15965573827383
 6  4.95875429842984  1.17632028132813 -2.35942010731073
 6  6.42567690049005  0.49641149134913 -0.43902038723872
 6  7.69167670557056 -0.19936028292829 -1.08744569506951
 6  8.97986985958596  0.07315218481848 -0.31690350315032
 6  10.22617324182418 -0.48267533923392 -0.98873984448445
 6  10.12242894309431 -2.11332226832683 -1.13165663066307
 6  11.36771964886489 -0.10837461826183 -0.21359049044905
 6  12.84722963066307 -0.43386743784378 -0.76156617951795
 6  13.91111057945795 -0.05746694949495  0.11182825032503
 6  15.30497662256226 -0.13969769886989 -0.51597983778378
 6  15.51013268216822 -1.56331396519652 -1.03156277397740
 6  16.40588469436944  0.46875123512351  0.48777328452845
 6  17.80913550295029  0.51836323472347 -0.09591540614061
 6  18.70405077457746  1.27086530353035  0.87275770877088
 6  20.12171084028403  1.38428876237624  0.41310607380738
 6  20.27805915971597  2.06428472567257 -0.89072006470647
 6  21.09447037783778  1.95736867316732  1.45169053245324
 1 -4.00892237673767  3.47941346274627  1.38609319621962
 1 -10.14112450515051  3.85835667066707 -0.59232462396240
 1 -10.34129741914191 -2.32272161296130 -0.92399905210521
 1 -2.79466592349235 -1.03682199609961  2.05694638583858
 1 -2.08140174537454  1.63408699129913  1.24769541994199
 1 -2.23518797629763  0.73925437833783  3.83806752025203
 1 -3.12498755875588  2.23547760526053  3.04452661806181
 1 -3.97081052375238  0.69018370237024  3.49876228902890
 1 -2.06751923682368 -1.66619658005801 -0.46787069626963
 1 -2.25236690919092  0.04683193359336 -0.59532957255726
 1 -0.32283580098010  0.59946456035604  0.96914731383138
 1 -0.27515531753175 -1.15241975717572  1.23868782398240
 1 -5.84111288668867  6.86776542064206  0.92114782398240
 1 -5.49852684208421  5.87337070017002  2.33422972007201
 1 -4.36363031903190  5.72073323972397  0.92547572317232
 1 -9.20692274477448  6.04012016011601 -0.63008323652365
 1 -8.94779599549955  8.04322506140614  0.42213183498350
 1 -7.60211967776778  7.20058645814581  1.61379976547655
 1 -11.83034713981398  3.12272259825983 -2.36671967666767
 1 -13.03329299849985  2.05681957315732 -1.67611880338034
 1 -12.23929566066607  3.14087274197420 -0.48080932493249
 1 -12.20637541594160 -1.58719816491649 -1.00424537943794
 1 -13.46753547244725 -0.35977271407141 -1.62944847234723
 1 -13.14295064766477 -1.87094178037804 -3.59120900540054
 1 -12.25232879707971 -0.15624016161616 -3.90693418911891
 1 -11.37957423672367 -1.74625949304930 -3.51227984798480
 1 -9.06399600260026 -5.03507425032503 -1.76796006010601
 1 -8.23459282408241 -5.64531453565357 -0.17080669366937
 1 -9.56470635553555 -4.82109713101310  0.03067124452445
 1 -3.35857655355536 -3.71379463016302 -0.05140041154115
 1 -1.73608177467747 -4.14362080178018  3.52706562186219
 1 -2.75306491509151 -5.44542616021602  3.82055489438944
 1 -1.22896100760076 -5.64365363856386  2.96902085498550
 1  2.61186049014901 -1.84689652555255 -1.57081104610461
 1  2.36336381398140 -0.05929164956496 -2.02402555475548
 1  4.26024693029303 -0.99336155135514  0.33798701470147
 1  3.99537850135014  0.91441015141514 -2.79512788248825
 1  5.08931434313431  2.29978023692369 -2.19482595079508
 1  5.65424273187319  0.61670277777778 -2.98615734673467
 1  6.68709077197720  1.59809380938094 -0.40592794999500
 1  6.27552167156716  0.21200316291629  0.67980769746975
 1  7.40394777947795 -1.37028626382638 -1.05425674927493
 1  7.74258669456946  0.28239144724472 -2.23409633323332
 1  9.04854690629063  1.14432231723172 -0.36251861966197
 1  8.95462395109511 -0.22351785798580  0.90091795549555
 1  10.01135868726873 -0.11531899419942 -1.91000589008901
 1  9.43457844334434 -2.38600657715772 -2.08739466426643
 1  11.06777933363336 -2.75049183308331 -1.51558580248025
 1  9.88324121012101 -2.52586452845284 -0.10818025772577
 1  11.51164884578458  0.90275250545054  0.14520600810081
 1  11.31527458085809 -0.73482944424442  0.67902852445245
 1  12.80954427332733 -1.41284944614461 -0.95133280088009
 1  12.83283703620362  0.00430112111211 -1.84612797409741
 1  13.73357479417942  0.94607716371637  0.31716905990599
 1  13.61272402550255 -0.59795940064006  0.98539505600560
 1  15.49054234273427  0.50784026902690 -1.48809316731673
 1  15.43053049594960 -2.23058335043504  0.05934448054806
 1  14.80918396909691 -1.83367574317432 -1.71973938903890
 1  16.50388001740174 -1.66316184108411 -1.38267973747375
 1  16.08408360906090  1.43900173387339  0.61138768306831
 1  16.43714816201620 -0.27794696979698  1.40739350055005
 1  17.98179911861186 -0.49766631403140 -0.21688502890289
 1  17.78383544804480  0.91557887678768 -1.30537411321132
 1  18.34161495409541  2.18375253295329  1.07540554585459
 1  18.61159832013201  0.61994617561756  1.93992399269927
 1  20.42588750145014  0.29499564776478  0.14864192819282
 1  19.90477458405840  3.14517807970797 -0.50407400080008
 1  21.21084533663366  1.96206285908591 -1.07177854115412
 1  19.59893379777978  2.06020783158316 -1.70889785878588
 1  21.04966094129413  1.21492960206021  2.28850846804680
 1  22.19303100940094  1.90524175387539  1.06093105940594
 1  20.86186591649165  3.05962604590459  1.67158759925993

