%nproc=4
%Mem=2GB
# td=(NStates=1) CAM-B3LYP/6-31G(d,p) 

TD

0 1
12 -7.10123069606961  0.66025477357736 -0.08346065866587
 6 -4.86361097909791 -1.92419359775978  0.43134966766677
 6 -4.81622155105511  2.73957240454045  1.19768613351335
 6 -9.47376211171117  3.06896239173917 -0.40969382908291
 6 -9.53192350605060 -1.76563207420742 -0.87517394649465
 7 -5.08792221682168  0.44059387748775  0.72945336363636
 6 -4.38381808790879 -0.67815763776378  0.72413043624362
 6 -2.91726073147315 -0.42321174687469  1.23924427862786
 6 -3.11826526492649  1.07622029032903  1.75957668836884
 6 -4.30869786468647  1.51683243204320  1.21155818571857
 6 -2.99202428452845  1.08361064916492  3.34011542044204
 6 -1.90462392339234 -0.64529979137914  0.19157311561156
 6 -0.45076249884988 -0.41350569776978  0.60118424772477
 6  0.42882401960196 -0.59936344924492 -0.51312669316932
 8  0.28421966206621 -0.95311071867187 -1.67435376707671
 8  1.78529033953395 -0.31101849824982 -0.15557234613461
 7 -7.11770221812181  2.58010360016002  0.25565426092609
 6 -6.12711199019902  3.32245322112211  0.74674820842084
 6 -6.42767002010201  4.84304859425943  0.67631831903190
 6 -7.69982268926893  4.80810144164416  0.39322771407141
 6 -8.13333760536054  3.41600079537954  0.04299684598460
 6 -5.41842979967997  5.82478494439444  1.12109687018702
 6 -8.59505730333033  6.00407144084408  0.21656864226423
 6 -8.45781967326733  7.19182530113011  0.69732598239824
 7 -9.20370264286429  0.62528538963896 -0.51257529122912
 6 -9.85724198389839  1.81690164326433 -0.73526985108511
 6 -11.21768086468647  1.42976131523152 -1.11044276377638
 6 -11.23158556245625  0.08427379147915 -1.31813052705271
 6 -9.89962564326433 -0.45267724202420 -0.80783579967997
 6 -12.29845866956696  2.35777634863486 -1.38538531333133
 6 -12.37352189848985 -0.87523493359336 -1.70742155065507
 6 -12.30463795219522 -1.47359977117712 -3.14849996859686
 7 -7.14882435073507 -1.34804441804180 -0.32910758775878
 6 -8.34272451225123 -2.25653082518252 -0.54644960016002
 6 -7.78592473807381 -3.58505677317732 -0.48899617691769
 6 -6.48195207930793 -3.57210154715472 -0.11739347124712
 6 -6.14005660206021 -2.18790707200720  0.03011581578158
 6 -8.62746021342134 -4.80412325472547 -0.78007648604860
 6 -5.27000147044704 -4.37993187668767  0.16570944354435
 8 -5.14235307320732 -5.66280076347635 -0.02958592789279
 6 -4.16262984238424 -3.26976276607661  0.60759062436244
 6 -3.59252988388839 -3.60388560986099  1.93086345924592
 8 -3.77999960056006 -3.05257199339934  2.94704738583858
 8 -2.74703589728973 -4.71364608700870  1.87149573047305
 6 -2.18727931583158 -5.10083431253125  3.14341927742774
 6  2.85369788148815 -0.48694648924892 -1.17550875127513
 6  4.10217230623062 -0.20279845614561 -0.47585773477348
 6  5.18635211961196  0.50910717611761 -0.96293606630663
 6  5.11178960196020  1.33412606190619 -2.21709587488749
 6  6.45428976177618  0.62692454265427 -0.23317980318032
 6  7.56594413231323 -0.05977632453245 -1.00331728222822
 6  8.87898977157716  0.10152502210221 -0.17281909470947
 6  10.10638126262626 -0.47068414011401 -0.88612958345835
 6  9.99137583778378 -1.90589152525253 -1.27270073507351
 6  11.44629750665067 -0.05809959075908 -0.03832296369637
 6  12.75551045874587 -0.39520357145715 -0.84433445634563
 6  13.96962643104310 -0.11190239303930  0.13585065256526
 6  15.34543066796680 -0.24772850195020 -0.51390963076308
 6  15.68939060796080 -1.67908554235424 -0.88042766046605
 6  16.45365947184719  0.30446480648065  0.47875238243824
 6  17.88504309370937  0.41994339273927 -0.16327214181418
 6  18.91972234173418  1.04838305530553  0.75028546154615
 6  20.32502117131713  1.16084641814181  0.20955571877188
 6  20.39623097689769  2.03856215341534 -1.08936992969297
 6  21.18594952575258  1.63958689498950  1.28315367876788
 1 -4.03937542204220  3.50891641304130  1.63148773567357
 1 -10.36745713841384  3.70495133013301 -0.50045543704370
 1 -10.27841113051305 -2.50329967076708 -1.36910356255626
 1 -2.64689114601460 -1.10402871677168  2.04026471767177
 1 -2.30914451965197  1.78734231683168  1.45229587998800
 1 -2.06452090959096  0.80349080198020  3.78628234173417
 1 -3.31328638863886  2.20585464296430  3.66816898229823
 1 -3.70651409410941  0.27487217121712  3.52497491029103
 1 -2.09489197409741 -1.61084104450445 -0.21031494069407
 1 -1.98515018751875 -0.12382513211321 -0.86983702330233
 1 -0.20443396079608  0.72951756565657  0.95976637573757
 1 -0.13286108810881 -1.14385890109011  1.47842179737974
 1 -5.35845462086209  6.72951159525953  0.34881059025903
 1 -5.54291128052805  6.29471283438344  2.28158445554555
 1 -4.17136109210921  5.49359052545254  1.21444462006201
 1 -9.34039609210921  5.66919306740674 -0.51160138833883
 1 -9.22144336023602  8.05189592849285  0.58759838163816
 1 -7.55835530133013  7.58111451095110  1.49964835033503
 1 -12.24965907100710  2.91956228222822 -2.23210621532153
 1 -13.28258792799280  1.87768165936594 -1.39457064856486
 1 -12.29872160326033  3.17075573027303 -0.45762700670067
 1 -12.42813759215922 -1.72073151825182 -1.02249720462046
 1 -13.42307102600260 -0.44829156595660 -1.45856138363836
 1 -12.98618497109711 -2.29072375857586 -3.18717860236024
 1 -12.54310787498750 -0.73391792939294 -4.03569706540654
 1 -11.38967524682468 -1.94400926802680 -3.25983460346035
 1 -8.83780338333833 -4.74323506640664 -1.74457772187219
 1 -8.44138350315031 -5.92220222442244 -0.58350796379638
 1 -9.51856174107411 -4.67819284058406  0.02285046244624
 1 -3.25567626352635 -3.34700795149515 -0.24250952245224
 1 -1.88207637413741 -4.18023446314631  3.82965588088809
 1 -3.11737134573457 -5.47574919251925  3.75792863176318
 1 -1.49950806230623 -5.80385965916592  2.84768872177218
 1  2.87254655875588 -1.60082191809181 -1.49249321432143
 1  2.75511298889889  0.25199947954795 -2.02927607980798
 1  4.23222412801280 -0.86734895009501  0.49255247124712
 1  4.10175913941394  1.58371708210821 -2.59363773347335
 1  5.66755216691669  2.19532979187919 -2.34186065426543
 1  5.49154646224622  0.63437454495450 -3.05802453345335
 1  6.66901896479648  1.62957695769577  0.17152979577958
 1  6.50953507290729  0.15400736333633  0.57049676637664
 1  7.26458384308431 -1.07582681788179 -1.25850717431743
 1  7.78046048194819  0.43545675377538 -1.99922284588459
 1  9.04651670327033  1.18666655165517  0.09872750495050
 1  8.74486297499750 -0.29953545974597  0.87094495819582
 1  10.25346289768977  0.13374591229123 -1.74727961746175
 1  9.03002798829883 -2.11354933143314 -1.81408733353335
 1  10.87215977167717 -2.05729251315132 -2.06168041194119
 1  9.82473535953596 -2.52954489648965 -0.33618305800580
 1  11.30642832373237  0.92181441164116  0.32133362086209
 1  11.27668072147215 -0.62625858715872  0.94663528512851
 1  12.61922524142414 -1.24837299849985 -1.32956062366237
 1  12.72467622012201  0.33268395939594 -1.54906826812681
 1  13.85382681938194  0.75100765676568  0.47514485748575
 1  13.82186493959396 -0.87296690139014  0.96343285978598
 1  15.39590287878788  0.38631811681168 -1.47793215121512
 1  15.74888233113311 -2.41005129722972 -0.01329278317832
 1  14.81127417811781 -2.12183455905591 -1.40033744884488
 1  16.59980961036104 -1.64389991489149 -1.31811328082808
 1  16.20352555325533  1.25791362506251  0.74140068436844
 1  16.41306575377537 -0.43628280338034  1.21917467866787
 1  18.11016195489549 -0.63970051745174 -0.44851819221922
 1  17.87416448094810  1.08490580948095 -1.32350592639264
 1  18.42550334293430  2.13905806350635  0.85486349164916
 1  18.82783994429443  0.76777095809581  1.71652165246525
 1  20.44554946764676  0.00653680188019  0.12754981898190
 1  20.39358346494649  3.19323288518852 -0.72104569796980
 1  21.31977622972297  1.92681933473347 -1.53074443774377
 1  19.43806771117112  1.97425923672367 -1.95741271027103
 1  21.25817179237924  1.17955606470647  2.36165578277828
 1  22.23285499179918  1.60415164486449  1.08202316861686
 1  21.09669939983998  2.79463954725473  1.52246268676868

