%nproc=4
%Mem=2GB
# td=(NStates=1) CAM-B3LYP/6-31G(d,p) 

TD

0 1
12 -7.08894946794679  0.59465821392139  0.19308699609961
 6 -4.88420303830383 -1.89177035543554  0.58108464116412
 6 -4.86421635053505  2.88793724102410  1.22050841574157
 6 -9.39627436293629  3.02953844934493 -0.37203006270627
 6 -9.49903021672167 -1.68710422142214 -0.95006143524352
 7 -5.03954737933793  0.44475429352935  0.70243066136614
 6 -4.29408911501150 -0.63755357735774  0.73683170637064
 6 -2.88678768416842 -0.29995942164216  1.15865621982198
 6 -2.96675011341134  1.14171683998400  1.68120885158516
 6 -4.37005400030003  1.58334908370837  1.13844087398740
 6 -2.86392147424742  1.25752804090409  3.29764117301730
 6 -1.91619508050805 -0.50162542394239 -0.01282732443244
 6 -0.43553097569757 -0.50317466466647  0.50802493179318
 6  0.44959609680968 -0.73229674257426 -0.71878725922592
 8  0.24777601770177 -0.97719312691269 -1.85756208790879
 8  1.71649345984598 -0.50258765516552 -0.18636542544254
 7 -7.05310575847585  2.61754734453445  0.23751244674467
 6 -6.07330660966097  3.41827280308031  0.72167570117012
 6 -6.39042629572957  4.82347663706371  0.73013370057006
 6 -7.80330303730373  4.79723035453545  0.36394478577858
 6 -8.16786105770577  3.48863805910591 -0.06940439413941
 6 -5.51611956865687  5.91733419931993  1.18651341184118
 6 -8.68246604420442  5.96506754045405  0.16008299369937
 6 -8.55888978027803  7.13216933553355  0.82449869966997
 7 -9.15749802240224  0.71136399749975 -0.60639467316732
 6 -9.83798005770577  1.85429538263826 -0.73438976307631
 6 -11.14247334393439  1.49018735783578 -1.13101482098210
 6 -11.27581998589859  0.05739110321032 -1.32210092409241
 6 -9.90658633933393 -0.42518449274927 -0.81774679077908
 6 -12.24324314801480  2.50744131513151 -1.47011378617862
 6 -12.37869241554155 -0.79770718081808 -1.77240804930493
 6 -12.34106159455946 -1.12164457565757 -3.28156327492749
 7 -7.26659612791279 -1.41366097969797 -0.09880455745575
 6 -8.19738997879788 -2.27435260736074 -0.51430638583858
 6 -7.79796594219422 -3.68391665916592 -0.38602587988799
 6 -6.46821070517052 -3.52998733573357 -0.11850358225823
 6 -6.18581117751775 -2.22147042834283  0.21663446764676
 6 -8.58247571497150 -4.82767560996100 -0.76160463886389
 6 -5.32581705200520 -4.36525040854085  0.20270314291429
 8 -5.17803664156416 -5.57139162256226  0.13715074577458
 6 -4.23331691109111 -3.26212200200020  0.65462532783278
 6 -3.58748937983798 -3.63247846914691  1.94188456135614
 8 -3.76385798639864 -3.07671440764076  3.03710639173917
 8 -2.69169036273627 -4.72210693309331  1.76023460436044
 6 -2.21226181408141 -5.29770399949995  2.93752868836884
 6  2.84597710941094 -0.67391518611861 -1.15769697009701
 6  4.16524861386139 -0.55664384068407 -0.45060520952095
 6  5.14170765516552  0.31472773817382 -0.90298007070707
 6  5.00093851685168  1.17058970827083 -2.22400656595660
 6  6.41703603640364  0.43972582278228 -0.23633011821182
 6  7.64485202310231 -0.09401974887489 -1.03168011851185
 6  8.99237110971097 -0.10143527392739 -0.21819363216322
 6  10.20225084958496 -0.62629970167017 -0.93059402990299
 6  9.94758145834583 -2.13230416651665 -1.30560402540254
 6  11.40685356225623 -0.40875465626563 -0.04719385078508
 6  12.69394430213021 -0.41129518061806 -0.71057108000800
 6  13.97376684508451 -0.11316251905191  0.16774384188419
 6  15.40685681058106 -0.16540026912691 -0.50855909570957
 6  15.68490015891589 -1.52650028382838 -0.87318693639364
 6  16.35131923782378  0.49195355535554  0.48254276147615
 6  17.73218780818082  0.58027942634263 -0.19027484208421
 6  18.75301567106711  1.31403962096210  0.70696112911291
 6  20.29880855005500  1.31991232473247  0.27082184538454
 6  20.42645399919992  2.13881217841784 -0.99535052775278
 6  21.21853278407841  1.83964690099010  1.29276463986399
 1 -4.10983246774678  3.47496301770177  1.57794238113811
 1 -10.15950634333433  3.85418625362536 -0.50802619411941
 1 -10.16390968036804 -2.46786612741274 -1.00321697389739
 1 -2.49186564346435 -0.94468278217822  2.05765645684568
 1 -2.44629823502350  1.78668225082508  1.43889453985399
 1 -1.99131358885889  1.06662711561156  3.77787150065007
 1 -3.23946900690069  2.12566662416242  3.64345651105110
 1 -3.33489693239324  0.38188287228723  3.71399381218122
 1 -1.70670315521552 -1.50351031143114 -0.24564847404741
 1 -2.29829150165016  0.02568981938194 -0.91604164376438
 1 -0.27001051845185  0.49890450435043  0.98406880598060
 1 -0.24072187418742 -1.44871938713871  1.19662361756176
 1 -5.88573734913491  6.73581222532253  0.49764547374737
 1 -5.44930191959196  6.02398576167617  2.18847514461446
 1 -4.51182513851385  5.69404057045705  0.77834100970097
 1 -9.52148420092009  5.86337248534853 -0.55045527372737
 1 -9.20357157305731  8.04975571447145  0.69181880368037
 1 -7.88333779957996  7.06312271177118  1.69298768426843
 1 -11.86829093419342  3.11195152115211 -2.26953995869587
 1 -13.19793946314631  2.09838372957296 -1.64715590709071
 1 -12.50645237633763  3.19434808950895 -0.66734797879788
 1 -12.43057783618362 -1.82011145624562 -1.13686864176418
 1 -13.20990970987099 -0.40159689648965 -1.45526105360536
 1 -13.20606695929593 -1.74952963916392 -3.52461234573457
 1 -12.33376694089409 -0.32884742234223 -4.00517401310131
 1 -11.43376965626563 -1.78933380048005 -3.40259887988799
 1 -8.87333693669367 -4.69360010291029 -1.73076634073407
 1 -7.97747711251125 -5.59062906710671 -0.53989360236024
 1 -9.48936882178218 -4.89940496179618 -0.07254907750775
 1 -3.39912060796080 -3.35481873257326 -0.13497876937694
 1 -1.57482564906491 -4.68428486818682  3.51166408170817
 1 -3.05086469506951 -5.49463108070807  3.63061590049005
 1 -1.41216932843284 -6.07341661486149  2.70838479137914
 1  2.90471977607761 -1.83775561146115 -1.39976394139414
 1  2.72545002260226 -0.27833355375538 -1.94262741494149
 1  4.41736264186419 -1.31234344954495  0.35639885588559
 1  3.92383134663466  1.23954266466647 -2.65133350305031
 1  5.24048946064607  2.31190144904490 -1.78162463066307
 1  5.80402771037104  0.98122923042304 -3.08998772977298
 1  6.64413647654766  1.42275627562756  0.01935457825783
 1  6.51228534793479 -0.13822185958596  0.75609532623262
 1  7.47692507720772 -1.05658489368937 -1.43818514211421
 1  7.61806424232423  0.46763997209721 -1.77904082768277
 1  9.13782583418342  0.90632851785179  0.12956058825883
 1  8.76767525622562 -0.96507201340134  0.61734959865987
 1  10.56906445784578  0.08003054075408 -1.78644353385339
 1  9.27741272677268 -2.29605758225823 -2.26943286808681
 1  11.00704326002600 -2.71445822972297 -1.47317156105611
 1  9.60566345234523 -2.69404134613461 -0.36413585328533
 1  11.29656733763376  0.65331756195620  0.40327181468147
 1  11.44104715811581 -1.30542650395040  0.60145076667667
 1  12.88516183508351 -1.23970213141314 -1.17123479107911
 1  12.82580633313331  0.30706139713971 -1.66350971227123
 1  13.66310774747475  0.90881343734373  0.35131247424742
 1  14.10644339743975 -0.56196580128013  1.03161967846785
 1  15.36527981648165  0.44290377537754 -1.50275463346335
 1  15.87153459635964 -2.27848814091409  0.05024357045705
 1  14.93989704040404 -2.03962633823382 -1.57392480758076
 1  16.72269189858986 -1.60160568546855 -1.38128959845985
 1  16.11085628632863  1.39144697839784  0.96544308860886
 1  16.64115856305630 -0.34959413451345  1.26849961116112
 1  17.93888482718272 -0.29989653705371 -0.30280362076208
 1  17.65288235273528  1.19979729862986 -1.15475905170517
 1  18.48500929352935  2.24775893359336  0.77959596489649
 1  18.78963612391239  0.97889207020702  1.73411341164116
 1  20.43507842054206  0.21907805600560 -0.03355629162916
 1  20.27166127272727  3.19672323422342 -0.56690028342834
 1  21.38393264536454  1.95253190599060 -1.49129049234923
 1  19.75957986238624  1.96706851765177 -1.82156912591259
 1  21.14487046224622  1.21426953605360  2.42881249844985
 1  22.19348105440544  1.91440266996700  0.92748771507151
 1  21.14499422932293  2.82747283058306  1.60819125962596

