%nproc=4
%Mem=3GB
# td=(NStates=1) iop(3/107=0140000000,3/108=0140000000) CAM-B3LYP/6-31G(d,p) 

TD

0 1
12 -7.17957264896490  0.60417880138014  0.22770914091409
 6 -4.84555337183718 -1.97675490609061  0.49680508290829
 6 -4.76344237483748  2.84410312821282  1.32994309950995
 6 -9.41193795829583  3.06929448244825 -0.37191966726673
 6 -9.64027012501250 -1.67072883858386 -0.79891669656966
 7 -5.07566459765977  0.41550764136414  0.62519034303430
 6 -4.31392363966397 -0.68347949114911  0.86378427312731
 6 -2.97858407900790 -0.48036643464346  1.33887955705571
 6 -3.11751497839784  0.96389509110911  1.72666894619462
 6 -4.34391462616262  1.52123677477748  1.24016841074107
 6 -3.02273845464546  1.10757357665767  3.27337265186519
 6 -1.98225395509551 -0.73600959015902  0.10372418271827
 6 -0.52622833203320 -0.53254650265027  0.56756013831383
 6  0.44008593179318 -0.68504512641264 -0.58613840394039
 8  0.19188940574057 -0.89708348604860 -1.73837123022302
 8  1.76386498489849 -0.47055699409941 -0.09478486608661
 7 -7.13482112551255  2.61147435733573  0.36218714281428
 6 -6.01203134693469  3.33378714611461  0.70476635273527
 6 -6.25702061046105  4.82587945154515  0.61711997069707
 6 -7.63435822112211  4.82598440364036  0.26471259765977
 6 -8.11811133863386  3.49130606940694  0.08926692529253
 6 -5.27874990889089  5.91876134983498  0.94419457465747
 6 -8.45577558555856  6.15168543814381  0.11617222972297
 6 -8.17872628262826  7.35347449714971  0.63211727102710
 7 -9.11457049814982  0.71449844424442 -0.43737031093109
 6 -9.87103458975898  1.79915323962396 -0.65790860436044
 6 -11.21256520922092  1.49234867936794 -1.07275213491349
 6 -11.19671915911591  0.19012655845585 -1.28265829412941
 6 -9.92055965956596 -0.30498069146915 -0.83586578787879
 6 -12.19790072777278  2.53238848024802 -1.37149660236024
 6 -12.31311510441044 -0.71618774257426 -1.89049838043804
 6 -11.99246115501550 -1.26943713601360 -3.32482313351335
 7 -7.32563552595260 -1.35306014171417 -0.09241191629163
 6 -8.29111343764376 -2.15370391589159 -0.47451903180318
 6 -7.87030907070707 -3.57152770417042 -0.56994729452945
 6 -6.48056584708471 -3.53567654975498 -0.18579066076608
 6 -6.22466619831983 -2.13903185898590  0.05321715711571
 6 -8.72059439893989 -4.88602470087009 -0.89760314341434
 6 -5.32326778967897 -4.37998156155616  0.15411038513851
 8 -5.15497648994899 -5.59804666166617  0.21460740934093
 6 -4.21255575817582 -3.36498394579458  0.52872119371937
 6 -3.57535171197120 -3.72295023772377  1.88696466496650
 8 -3.89079186258626 -3.26903426132613  2.94760811901190
 8 -2.69936528932893 -4.75915453395340  1.62275131263126
 6 -2.06556551355136 -5.31716692259226  2.90596799719972
 6  2.76854317471747 -0.57739602850285 -1.12451596879688
 6  4.11205209040904 -0.44524979287929 -0.34456701950195
 6  5.06565205650565  0.37351387938794 -0.82772564956496
 6  4.91172489808981  1.24151182648265 -2.08641277627763
 6  6.35673195189519  0.37300791679168 -0.09877040144014
 6  7.55518697129713 -0.27258580658066 -0.94145447414741
 6  8.92291000260026 -0.08455027112711 -0.25031113351335
 6  10.14411987258726 -0.56657832103210 -0.93588930893089
 6  10.07249052565257 -2.00835871577158 -1.30176714271427
 6  11.40224488828883 -0.30800569166917 -0.06706466896690
 6  12.74096183168317 -0.46114614811481 -0.79165667076708
 6  14.01445271707171 -0.04028974327433  0.13901031263126
 6  15.34509050005001 -0.14997408100810 -0.56741239373937
 6  15.65093136413642 -1.68225661396140 -1.05364719101910
 6  16.44680167286729  0.36356287358736  0.33229796449645
 6  17.86567415511551  0.38366209580958 -0.12488901590159
 6  18.76127654625462  1.34982306080608  0.74654791149115
 6  20.26302910731073  1.34970440294029  0.21440814681468
 6  20.46485933173317  2.15732303740374 -1.01017571347135
 6  21.13850891789179  2.03461516141614  1.34743868386839
 1 -4.09106947044704  3.35921917331733  1.83836993279328
 1 -10.23742586588659  3.73596587108711 -0.59950447664766
 1 -10.20810523462346 -2.45900143524352 -1.09922774217422
 1 -2.62261954915492 -1.16958716141614  2.12382887358736
 1 -2.26382984928493  1.60650271137114  1.30506415541554
 1 -2.14111719811981  0.66042514891489  3.60854119151915
 1 -2.88571568066807  2.31598082088209  3.26671469366937
 1 -3.95781858235824  0.78676383068307  3.76338802400240
 1 -2.12567768676868 -1.70472114291429 -0.52775078217822
 1 -2.26064243324332  0.02885050485049 -0.54758149274928
 1 -0.34349977867787  0.40463005030503  0.86814067706771
 1 -0.34158257855785 -1.33806457305731  1.31369482778278
 1 -5.60603478117812  6.75003251525152  0.19551938323832
 1 -5.38892036333633  6.39873275467547  1.95872788528853
 1 -4.40527537213721  5.54479874787479  0.71434216681668
 1 -9.18950921072107  6.07052043404340 -0.69974132683268
 1 -8.73080214391439  8.29785950695070  0.10438021372137
 1 -7.52553048514851  7.60790762716272  1.53109206950695
 1 -11.81135160816082  3.16953610071007 -2.09743557505751
 1 -13.03096039373937  1.91693043544354 -1.83072880108011
 1 -12.54816584928493  3.28335566966697 -0.45032547204720
 1 -12.33790575547555 -1.60421134393439 -1.11219472037204
 1 -13.22137443654366 -0.10024273477348 -1.77442319671967
 1 -12.97245244444444 -1.82565622772277 -3.60198115621562
 1 -12.23429383508351 -0.28181665296530 -3.97998697709771
 1 -11.05994083348335 -1.71407243444344 -3.32383066126613
 1 -9.18216283488349 -4.81738823962396 -1.91990805380538
 1 -8.05774015921592 -5.76373232653265 -0.53901385648565
 1 -9.44781896089609 -4.72855130353035 -0.07435970467047
 1 -3.44870238873887 -3.49076568216822 -0.15060279837984
 1 -1.78532191979198 -4.49114132753275  3.41878359595960
 1 -2.97638407570757 -5.67882740764076  3.54866590429043
 1 -1.49950047054705 -6.13597438223822  2.42463582468247
 1  2.79568762356236 -1.76863348614861 -1.50081152985299
 1  2.51513795509551  0.14716280108011 -2.08289934743474
 1  4.26324681138114 -0.83136154995500  0.44132553275328
 1  3.84353966546655  1.25443098579858 -2.59845033073307
 1  5.39742667486749  2.15293571747175 -1.83201063946395
 1  5.54034360286029  0.83961515241524 -2.81120737763776
 1  6.58772695659566  1.42572255285529 -0.01387177327733
 1  6.26587445954595 -0.01040837753775  0.83988018351835
 1  7.44613673647365 -1.26929760276028 -1.13825858305831
 1  7.33995655415542  0.31754085708571 -1.92270309320932
 1  8.99575561986198  0.86364586208621  0.17250967906791
 1  8.76837995879588 -0.53096144884488  0.81915803920392
 1  10.35572020382038 -0.06866071827183 -1.77764292229223
 1  8.89490910001000 -2.07905618911891 -1.85466384828483
 1  10.91771091169117 -2.44995839513951 -2.04193955205521
 1  10.08741093819382 -2.70203431813181 -0.34991238493849
 1  11.23825546714671  0.70187662106211  0.35456322712271
 1  11.41632922842284 -1.08545984358436  0.71022734283428
 1  12.90032798529853 -1.55662308160816 -1.05868814031403
 1  12.68933476337634  0.02144708070807 -1.88288262196220
 1  13.81198261856186  1.02217758105811  0.26971179987999
 1  14.11052936353635 -0.68651503040304  1.04448682268227
 1  15.18234863626363  0.34073747074707 -1.52952422122212
 1  15.56446024282428 -2.27252659385939  0.14580644514451
 1  14.68682032643264 -1.84209872987299 -1.64972634613461
 1  16.58872715231523 -1.72090298729873 -1.58458497179718
 1  16.19074234773477  1.44776311001100  0.34040995729573
 1  16.29124320212021 -0.18864514931493  1.31104959965997
 1  18.37831456915692 -0.52991950595060 -0.11778197379738
 1  17.99763707330733  0.71910080418042 -1.12349809340934
 1  18.21254031093109  2.16630789878988  0.75451739853985
 1  18.68485444794480  1.12266710621062  1.75220846634663
 1  20.68444827712771  0.28773977157716  0.02707860006001
 1  20.11871869036904  3.25592636913691 -0.77680986568657
 1  21.43819762056206  2.31592273437344 -1.37153513471347
 1  19.53678207580758  1.92732302250225 -1.80043842824282
 1  21.27859171267126  1.53183882478248  2.36551021982198
 1  22.04022191499150  2.19849031973197  1.03497015061506
 1  20.81032111061106  3.00488660586059  1.72592972967297

