%nproc=4
%Mem=2GB
# td=(NStates=1) CAM-B3LYP/6-31G(d,p) 

TD

0 1
<<<<<<< HEAD
12 -7.14469504250425  0.69462821092109  0.21895958335834
 6 -4.87608222622262 -1.93868504690469  0.54103063576358
 6 -4.76773670257026  2.80499894719472  1.05010137503750
 6 -9.45596033153315  3.12037753325333 -0.25867872757276
 6 -9.41356166986699 -1.78913442444244 -0.88383481258126
 7 -5.05508893349335  0.47038685678568  0.60595101340134
 6 -4.32949265536554 -0.64143396539654  0.71574959815982
 6 -2.90800980638064 -0.37317674337434  1.18310866506651
 6 -2.91783522192219  1.04270693899390  1.56628735943594
 6 -4.38540553545355  1.55393614241424  1.09167619751975
 6 -2.90023510561056  1.30006229432943  3.22370377927793
 6 -1.89599306030603 -0.55164042544254  0.03212717101710
 6 -0.38688611121112 -0.34002835003500  0.42504663396340
 6  0.54340547774777 -0.50511402430243 -0.76780216071607
 8  0.15236647674767 -0.98196360396040 -1.80688702040204
 8  1.83689550005000 -0.40652804920492 -0.36647343624362
 7 -7.09643009090909  2.65761135093509  0.29538823432343
 6 -6.13360263926393  3.36186716251625  0.74467800140014
 6 -6.54004125722572  4.73730802020202  0.74370505770577
 6 -7.75766847384739  4.85899653115311  0.28847723902390
 6 -8.17207147874788  3.46658585388539  0.04142668896890
 6 -5.56219417611761  5.76595906180618  1.32461722222222
 6 -8.56734453205321  6.03226426012601  0.17537452285229
 6 -8.44269816111611  7.27988410701070  0.81112736253625
 7 -9.11636390899090  0.68336119721972 -0.62704673837384
 6 -9.92982924262426  1.79312926602660 -0.60569689378938
 6 -11.20939003560356  1.36312465156516 -1.08822054155416
 6 -11.23410581448145  0.06636200030003 -1.33582229622962
 6 -9.90433611431143 -0.39806178047805 -0.95185020112011
 6 -12.30169899359936  2.39115968696870 -1.26097287208721
 6 -12.32448699499950 -0.78931634173417 -1.75231604010401
 6 -12.32837032543254 -1.04231664286429 -3.25929104770477
 7 -7.25842531083108 -1.36875648924893 -0.10233491049105
 6 -8.24293453325333 -2.18967413951395 -0.49376433163316
 6 -7.78196434203420 -3.61867013451345 -0.43725100240024
 6 -6.38473235733573 -3.59378371537154  0.03416168426843
 6 -6.20409300570057 -2.19206748804880  0.25188799299930
 6 -8.53085055245525 -4.88336117851785 -0.89484796319632
 6 -5.22850732103210 -4.31106498999900  0.26475934853485
 8 -4.95593443134313 -5.50961544494449  0.27821485218522
 6 -4.12868644804480 -3.26690248004800  0.62561242654265
 6 -3.46402703360336 -3.69179440074007  1.88322869576958
 8 -3.76741834243424 -3.07300403660366  2.96187886898690
 8 -2.65982717641764 -4.70678540094009  1.74039262016202
 6 -2.14929551745174 -5.04937916701670  3.01357629312931
 6  2.75489800150015 -0.60283807840784 -1.44230543094309
 6  3.98495058405841 -0.52535071137114 -0.78220836983698
 6  5.04278776317632  0.28090435583558 -1.04210398309831
 6  5.17423584658466  1.30479312861286 -2.17765193049305
 6  6.33823815661566  0.28305015521552 -0.12174866006601
 6  7.63901143904390 -0.32424277117712 -0.81878882938294
 6  8.95394726732673 -0.23838896929693 -0.13756556935694
 6  10.19396002050205 -0.68312538423842 -0.90300127062706
 6  10.06312301250125 -2.14909584568457 -1.31526499149915
 6  11.44694757165717 -0.36213999479948  0.04180504910491
 6  12.73202811051105 -0.51625567666767 -0.70320034293429
 6  13.92620208860886 -0.29619082188219  0.22696976447645
 6  15.25172129702970 -0.33468719781978 -0.49428766856686
 6  15.72079374827483 -1.71557919171917 -0.93303292099210
 6  16.37290139603961  0.23646800680068  0.40444495169517
 6  17.75822041144114  0.57855925432543 -0.16136195079508
 6  18.70644101360136  1.40322853985399  0.78676910991099
 6  20.18443711291129  1.46772710621062  0.28908367156716
 6  20.26014736853685  2.12311060826083 -1.02561355405541
 6  21.02148307910791  2.25573851015101  1.38363372677268
 1 -4.11455293979398  3.31558708010801  1.53688827572757
 1 -10.26868726142614  3.82585342034203 -0.47699309080908
 1 -10.19276256565657 -2.68659800060006 -1.07154380658066
 1 -2.58546500340034 -1.00547886178618  2.11108179937994
 1 -2.12905651085108  1.61588517111711  0.89863051345135
 1 -1.90320477797780  0.91030148304830  3.73218693219322
 1 -3.05634069406941  2.53378743624362  3.27805997139714
 1 -3.71497494019402  0.74110879487949  3.70594300710071
 1 -2.08320080498050 -1.57426738713871 -0.36764067326733
 1 -2.15080675317532 -0.04322707230723 -0.92249228882888
 1 -0.16105962336234  0.78021263516352  0.80726112521252
 1 -0.00822862486249 -1.11667618281828  1.33390734593459
 1 -5.64779355475548  6.83226187028703  0.86951266046605
 1 -5.74503149254926  5.99219258235824  2.47292358945895
 1 -4.56817077307731  5.55816698309831  1.49455263086309
 1 -9.40389244174417  5.78070421852185 -0.58914914311431
 1 -9.27251846774677  7.98297903680368  0.63108273007301
 1 -7.71292075787579  7.61725812531253  1.48849723522352
 1 -11.99748385348535  3.32223254925493 -1.97503050775077
 1 -13.11252092129213  1.74063795499550 -1.77648884038404
 1 -12.50514224532453  2.83093174787479 -0.30335157915792
 1 -12.23722850125013 -1.86380582568257 -1.21084603950395
 1 -13.16447516641664 -0.34658139493949 -1.27741326882688
 1 -13.00897725032503 -1.73388807500750 -3.75140502500250
 1 -12.52967653185319 -0.04136867446745 -3.84836833253325
 1 -11.32299857915792 -1.24617948504851 -3.64921354135414
 1 -8.90241984498450 -4.94297504040404 -1.93244650875087
 1 -8.17856722152215 -5.89504950915091 -0.64080369336934
 1 -9.45845573047305 -4.76511153245325 -0.18424024662466
 1 -3.31133182908291 -3.63627687838784 -0.04473974547455
 1 -1.37474564106411 -4.31479791949195  3.55220813611361
 1 -2.90905051365137 -5.31744336193619  3.87554039293929
 1 -1.49726783828383 -6.04596386958696  2.88621257415742
 1  2.38390769486949 -1.64394623052305 -1.80059402440244
 1  2.71841931953195  0.21732601220122 -2.37786093829383
 1  4.11971287688769 -1.17416963216322  0.03737695369537
 1  4.26174513801380  1.60528923932393 -2.64157252695270
 1  5.63301871357136  2.24267452635263 -1.76197266546655
 1  5.86133344094409  0.86010711821182 -3.08340707170717
 1  6.51828389128913  1.28184218421842 -0.04719207640764
 1  6.40150426982698 -0.39537757515752  0.73142285898590
 1  7.47538492319232 -1.45420465566557 -0.99764108770877
 1  7.67601003690369  0.14698790689069 -1.71669459305931
 1  9.14808686028603  0.76425431043104  0.37181481368137
 1  8.87622611131113 -0.95649115531553  0.72188005170517
 1  10.32077962936294  0.02378491619162 -1.86498138763876
 1  9.27465245074507 -2.12399037553755 -1.99607553235324
 1  11.04565712141214 -2.44729151305130 -1.82804704860486
 1  9.94804769076908 -3.00927286928693 -0.31421086078608
 1  11.44184186508651  0.66339857005701  0.35347683518352
 1  11.47905095849585 -1.22211817311731  0.80187080868087
 1  12.73068638753875 -1.63410157135714 -0.96309397699770
 1  12.61788554105410  0.13528421942194 -1.66395975727573
 1  13.87602903960396  0.71932448844885  0.58403574657466
 1  13.89572232533253 -1.02768237293729  0.97106362286229
 1  15.37479076757676  0.38079756475648 -1.32156651465147
 1  15.42913035593559 -2.47658795089509  0.01563010911091
 1  15.28886193689369 -2.27449982558256 -2.11057847294729
 1  16.83955358475848 -2.03778930383038 -1.16658812831283
 1  16.08939414011401  1.08004583828383  0.94843138743874
 1  16.78089253645365 -0.53786296139614  1.24226698789879
 1  18.32321326002600 -0.35187173457346 -0.22300564096410
 1  17.77386445094509  1.34938225712571 -0.97427100290029
 1  18.26226701930193  2.29320347804780  0.94176218151815
 1  18.61845900620062  0.92950713171317  1.77958795909591
 1  20.52610752345235  0.36902305050505  0.50889795379538
 1  19.87794190079008  3.20951451335134 -0.94173776717672
 1  21.41454570667067  2.16326297909791 -1.29925128842884
 1  19.80859476387639  1.69831164196420 -1.87971494049405
 1  20.80584655985599  1.91567967706771  2.54835445264527
 1  22.01164287058706  2.26290752045204  1.05297026332633
 1  20.80943067296730  3.45976605990599  1.25371581208121
=======
12 -7.12758333133313  0.65396414451445  0.00427811521152
 6 -4.86716133413341 -1.98900007840784  0.58245477817782
 6 -4.72336226512651  2.85030347764776  1.02016838173817
 6 -9.33240797629763  3.06498199369937 -0.47300015971597
 6 -9.50292060576058 -1.84709022002200 -0.88285471457146
 7 -5.11754517911791  0.45869568766877  0.71442186048605
 6 -4.36803650975098 -0.58603842584258  0.88329635283528
 6 -2.94255326072607 -0.36100552625263  1.29285964016402
 6 -2.98302174057406  1.12487515581558  1.72457318801880
 6 -4.37117411231123  1.58283903270327  1.08926595649565
 6 -2.97574265636564  1.29904219231923  3.20333174207421
 6 -1.91045450645065 -0.66906216761676  0.07352131043104
 6 -0.52123954655466 -0.47031137833783  0.53148727802780
 6  0.45073621082108 -0.60627414031403 -0.59222460296030
 8  0.21976321642164 -0.95581098869887 -1.72173850555055
 8  1.70932274277428 -0.34472186858686 -0.12333912281228
 7 -7.06032648054806  2.67494308410841  0.26206490199020
 6 -6.04699397839784  3.33504448024802  0.80791432503250
 6 -6.41886914001400  4.76230051945195  0.77154784198420
 6 -7.79543225022502  4.81274190569057  0.32495088638864
 6 -8.16782105370537  3.48781797709771  0.08733127942794
 6 -5.58705666236624  5.93747621352135  1.22858761926193
 6 -8.53112090969097  6.00911194489449  0.06934391979198
 6 -8.49760365166517  7.15428154675468  0.78506475627563
 7 -9.09727199979998  0.57891075217522 -0.63341737543754
 6 -9.72076833653365  1.70526047914791 -0.76652297639764
 6 -11.14736383298330  1.38662700180018 -1.21978369786979
 6 -11.24934733863386  0.07132249634963 -1.31324003800380
 6 -9.92447812851285 -0.45311728602860 -0.96233124922492
 6 -12.15392421612161  2.45693626462646 -1.60926770157016
 6 -12.23508805510551 -0.76108351845185 -1.94973578207821
 6 -12.16345383378338 -1.10643305450545 -3.47142226082608
 7 -7.20017948624862 -1.39902951655166 -0.05189986698670
 6 -8.24474471427143 -2.29054422652265 -0.49591454665467
 6 -7.73443958955896 -3.66548481598160 -0.42063934123412
 6 -6.53962784688469 -3.68864320132013 -0.00958269016902
 6 -6.21016361276128 -2.25978425972597  0.26759956415642
 6 -8.59314678207821 -4.82479532193219 -0.73876235463546
 6 -5.30632510281028 -4.33650753425343  0.24268714131413
 8 -5.09207804570457 -5.58981346474647  0.19622665336534
 6 -4.19341292069207 -3.29213500330033  0.68755862116212
 6 -3.47909854075408 -3.66785200650065  2.00368074097410
 8 -3.64308590919092 -3.16818355455546  3.06034871597160
 8 -2.79460065376538 -4.79449417181718  1.76264484538454
 6 -2.10087067496750 -5.28189241834183  2.88435337083708
 6  2.69572208390839 -0.46387418201820 -1.18194939533953
 6  4.02962505150515 -0.26008418471847 -0.44559470847085
 6  5.07876136053605  0.40030629602960 -0.73827360006001
 6  4.95093351635164  1.47810045934593 -1.81637580288029
 6  6.37444177697770  0.35960781098110  0.16911042584258
 6  7.51388892679268 -0.00985133203320 -0.86338328882888
 6  8.85744761736174 -0.14012914331433 -0.03169498229823
 6  10.22618324282428 -0.44867193889389 -0.87903887438744
 6  9.95263196339634 -1.98099903600360 -1.29875334033403
 6  11.44747762466247 -0.31049483028303 -0.01308043944394
 6  12.71972688038804 -0.60880493159316 -0.77367739063906
 6  13.95516498489849 -0.08872007480748 -0.00633356585659
 6  15.32361848674867 -0.15023875297530 -0.60729896969697
 6  15.64499616851685 -1.67749538333833 -1.08021763946395
 6  16.43379748564857  0.42413677367737  0.39356386358636
 6  17.75643023242324  0.52021341974197 -0.33474928952895
 6  18.76399676917692  1.21647986498650  0.69080951395140
 6  20.29449811901190  1.19297963146315  0.18841360456046
 6  20.41263261706171  2.10783908110811 -1.11535252795280
 6  21.21398232903291  1.74552748904890  1.18950431383138
 1 -4.15051653615362  3.82079760116012  1.48407299419942
 1 -9.99197959065907  3.82663349834984 -0.63481887338734
 1 -10.31167445684568 -2.58401774257426 -0.95725237743774
 1 -2.66893335023502 -1.09169748364837  2.11375206640664
 1 -2.00902450765077  1.65773935653565  1.25600625102510
 1 -1.92316677417742  1.23622407530753  3.80456416991699
 1 -3.29502456245625  2.21927598509851  3.59304146954695
 1 -3.80187363006301  0.63341802580258  3.76386879967997
 1 -2.04278676357636 -1.61321128152815 -0.55097900710071
 1 -2.12809448194819  0.18062531293129 -0.65429546914691
 1 -0.41758527592759  0.45754036793679  1.17161756085609
 1 -0.28124592659266 -1.19809432463246  1.16084003920392
 1 -5.99525830123012  6.97057570167017  0.89424513371337
 1 -5.67948493789379  5.97031039413941  2.38253455055506
 1 -4.47926188218822  5.75147631403140  0.97289046464646
 1 -9.22199425192519  5.79526567466747 -0.70116034423442
 1 -9.10712192809281  7.95978671757176  0.44017363916392
 1 -8.02400186598660  7.34254065356536  1.83325171067107
 1 -11.78454255935594  2.90900122612261 -2.62767577227723
 1 -13.10191986118612  1.89549344054405 -1.75769696119612
 1 -12.11605333643364  3.10208886358636 -0.82849409340934
 1 -12.47011178957896 -1.46210565566557 -1.33947890279028
 1 -13.23389210811081  0.04082734593459 -2.12600812831283
 1 -13.09494584718472 -1.55494018021802 -3.94066395089509
 1 -11.75770933513351 -0.43568810641064 -4.08229172487249
 1 -11.24561084038404 -1.80101496859686 -3.41721034103410
 1 -8.75471507450745 -4.86093683658366 -1.85594885898590
 1 -7.99509887468747 -5.72471247544754 -0.64141375437544
 1 -9.63348323322332 -4.99397441874187 -0.17414923752375
 1 -3.54303499939994 -3.51508475917592 -0.29240451195120
 1 -1.31039920642064 -4.64918135783578  3.26061897719772
 1 -2.96802641124112 -5.75206682428243  3.75499833873387
 1 -1.74460257175718 -6.28783805700570  2.45581953485349
 1  2.67950725482548 -1.46562839873987 -1.77718168316832
 1  2.63629110671067  0.44301858145815 -1.73386653885388
 1  4.14513541914191 -1.02162437763776  0.48377159315932
 1  3.86220518401840  1.76950566096610 -2.11433980368037
 1  5.42263767546755  2.35767602650265 -1.61444791299130
 1  5.67842515011501  0.95121622912291 -2.67970670167017
 1  6.59020108300830  1.21345534553455  0.85671831463146
 1  6.29042316171617 -0.42647068446845  0.99988970567057
 1  6.96872425712571 -1.03193242844284 -1.26215753935394
 1  7.66129856575658  0.65234844294429 -1.89253217681768
 1  9.07193924552455  0.88457634263426  0.42344997719772
 1  8.67514600330033 -0.77630313651365  0.83625148884889
 1  10.12137968936894  0.02860539823982 -1.84738962846285
 1  9.11392637813781 -2.21354933143314 -2.03592951775178
 1  10.68929148484849 -2.18964574847485 -1.91745598949895
 1  9.84029691569157 -2.59657159915992 -0.43918335803580
 1  11.27092477337734  0.59285151535154  0.49231071857186
 1  11.47449050245025 -1.09089505080508  0.86802742434243
 1  12.79273259215921 -1.35142330353035 -1.08004567216722
 1  12.70278403090309 -0.19815912491249 -1.77185054635464
 1  13.59272070877088  0.86400895689569  0.44537188018802
 1  13.93626637973797 -0.63346295099510  0.93295981248125
 1  15.35313860236024  0.29739922492249 -1.63392775077508
 1  15.79878732163216 -2.21620191229123 -0.22265371927193
 1  14.84457750845085 -2.03430580618062 -1.61583899899990
 1  16.64714434383438 -1.64141966686669 -1.75459692919292
 1  15.99586478717872  1.44064189788979  0.71583812811281
 1  16.63557800500050 -0.19429860496050  1.21172393359336
 1  18.26802774147415 -0.28527507490749 -0.95723906430643
 1  17.72219928442845  1.03781110001000 -1.31861543734373
 1  18.38203899649965  2.24265842354235  0.73766177147715
 1  18.84602176247625  0.80165434643464  1.87648764906491
 1  20.66955186788679  0.17744389258926 -0.01899483548355
 1  20.21452555915591  3.15802936483648 -0.92153574697470
 1  21.38621287338734  2.03972062486249 -1.48415977927793
 1  19.77179108350835  1.54526633743374 -1.79043601260126
 1  21.38599457465747  1.26647475657566  2.03809342654265
 1  22.28162986928693  1.55803703340334  1.03283825012501
 1  21.13386311621162  2.87799788308831  1.41604204470447
>>>>>>> 8e03b5b5abfc0030b3aa597dc0de36371bfbd096

