%nproc=4
%Mem=2GB
# td=(NStates=1) CAM-B3LYP/6-31G(d,p) 

TD

0 1
12 -7.11140171317132  0.53931267936794  0.12774046144614
 6 -4.84156877487749 -1.97253843224322  0.61290782348235
 6 -4.85305523442344  2.85039348664866  1.06456282118212
 6 -9.42694743024302  3.10235573107311 -0.37317017671767
 6 -9.48407872157216 -1.74268977997800 -0.92635906500650
 7 -5.03101652625263  0.46875669376938  0.73804422272227
 6 -4.24039374547455 -0.70895071707171  0.86557458065807
 6 -2.88360736613661 -0.34188361406141  1.30320067426743
 6 -2.97556099449945  1.17703037133713  1.67935866656666
 6 -4.30964795969597  1.51187193599360  1.16121315121512
 6 -2.97633271537154  1.34192648074807  3.25572698159816
 6 -1.86926038703870 -0.59477473887389  0.12878683698370
 6 -0.39742716531653 -0.28901324852485  0.59008313761376
 6  0.48455959315932 -0.49978349124912 -0.55327070757076
 8  0.21777301740174 -0.81184659225923 -1.75884221592159
 8  1.68508031853185 -0.33836123252325 -0.20312710161016
 7 -7.15958640654065  2.60564615441544  0.22342103760376
 6 -6.08637791679168  3.37657863366337  0.76109964356436
 6 -6.48480573367337  4.72515680508051  0.78448913611361
 6 -7.78015072207221  4.80994162566257  0.37185557685769
 6 -8.10128440004000  3.43554274957496 -0.05461291499150
 6 -5.59900785748575  5.96380884678468  1.08270303080308
 6 -8.60321811941194  5.96012704640464  0.13020000540054
 6 -8.50140403170317  7.17278339693969  0.85849209900990
 7 -9.03775604820482  0.59265212631263 -0.51234526822682
 6 -9.77870413011301  1.80802075517552 -0.65603192729273
 6 -11.10527962456246  1.47648598769877 -1.06809852935294
 6 -11.12045444934493  0.09003436753675 -1.22893160716072
 6 -9.90240592129213 -0.46138811311131 -0.80984600070007
 6 -12.22603142684268  2.51278184918492 -1.39482625742574
 6 -12.32592713901390 -0.74942235233523 -1.70064087258726
 6 -12.20591808020802 -1.21574398559856 -3.21320643924392
 7 -7.18105757405741 -1.39715932953295 -0.15404008100810
 6 -8.24443468326833 -2.20790596269627 -0.51244619981998
 6 -7.87346349194919 -3.59786805430543 -0.59958723602360
 6 -6.54124800890089 -3.50014435143514 -0.22474420632063
 6 -6.13486608300830 -2.17459574087409  0.06493929812981
 6 -8.51625909330933 -4.77091993439344 -1.01674015241524
 6 -5.26409087938794 -4.33057694119412  0.22059493209321
 8 -5.07948678657866 -5.47123160656066  0.18813584428443
 6 -4.15161874127413 -3.32089787958796  0.64806467176718
 6 -3.56108673957396 -3.70938615991599  1.94370474337434
 8 -3.77971957255726 -3.12713945014501  2.96287896899690
 8 -2.84211540524052 -4.80876559895990  1.69883846474647
 6 -2.16258684658466 -5.09125335443544  3.03890882638264
 6  2.67916042774277 -0.54694248884888 -1.25739694009401
 6  4.08836092509251 -0.41067924422442 -0.57359750875088
 6  5.14632811721172  0.27702396779678 -0.96142591529153
 6  5.14282270527053  1.22015466476648 -2.13037720302030
 6  6.45959029182918  0.29565141534153 -0.12149863506351
 6  7.69285682358236 -0.35939628652865 -1.06140309080908
 6  8.90286215881588 -0.32799793019302 -0.13618543134313
 6  10.26849747424743 -0.77390446214621 -0.92540351085108
 6  10.12392909310931 -2.29744068016802 -1.37228069306931
 6  11.47744062096210 -0.44956873767377  0.02350321892189
 6  12.79695460316032 -0.73797784888489 -0.74166418931893
 6  13.86745621402140 -0.18656985978598  0.12400946844684
 6  15.25540166506651 -0.17556128522852 -0.59003724352435
 6  15.78050971987199 -1.60773840764076 -0.82080169786979
 6  16.28995310121012  0.48457281728173  0.41982648984898
 6  17.66110069946994  0.68028942734273 -0.09737555215522
 6  18.67862823232323  1.45444366136614  0.76941737473747
 6  20.14878354755475  1.42208254175418  0.22169693289329
 6  20.23250460426043  2.11246954415442 -1.07124811751175
 6  21.06053698449845  2.11992492879288  1.22554791819182
 1 -4.24139562406241  3.66415193659366  1.60570515741574
 1 -10.13710410311031  3.88934976997700 -0.28346373787379
 1 -10.10486377577758 -2.43076241704170 -1.42956960916092
 1 -2.42705916281628 -0.87750606450645  2.13620431163116
 1 -2.14653825902590  1.79148273087309  1.40253090349035
 1 -1.97500195769577  0.70172062496250  3.34292800630063
 1 -2.88638369836984  2.41865592309231  3.52377454285429
 1 -3.70758420112011  0.71938662266227  3.85364777757776
 1 -1.93790627552755 -1.63043300370037 -0.23923783298330
 1 -2.22175384788479  0.03369061946195 -0.58715875547555
 1 -0.02597611501150  0.67793240714071  0.90244064316432
 1  0.01964416241624 -0.90070458565857  1.44524848004800
 1 -5.92830160556056  6.68755739983998  0.37964367356736
 1 -5.56320330973097  6.45508887198720  2.14494079117912
 1 -4.72188614461446  5.76384755115512  0.79227240284028
 1 -9.25432748524852  5.77561370947095 -0.62819304750475
 1 -8.99782099799980  8.05345608450845  0.63968359015902
 1 -7.84450391619162  7.39271567106711  1.62689107460746
 1 -11.91357546264626  3.41009133513351 -1.89887289198920
 1 -13.06700636983698  1.84307819901990 -1.90028121962196
 1 -12.30963269436944  2.99841849654966 -0.42198344234423
 1 -12.29322410081008 -1.65202464756476 -1.21294624952495
 1 -13.18203692259226 -0.07264400120012 -1.52886841434143
 1 -12.86100245284528 -2.14121880808081 -3.46107599209921
 1 -12.50189375357536 -0.43464800240024 -4.05160865656566
 1 -11.20067634693469 -1.62879774687469 -3.48123674367437
 1 -8.81641124412441 -4.77426816971697 -2.15565882998300
 1 -7.86431579637964 -5.59489949414942 -0.85384499749975
 1 -9.54207409230923 -4.96543156445645 -0.40823264586459
 1 -3.27374807070707 -3.52899615031503 -0.13503877537754
 1 -1.62770093659366 -4.32172861256126  3.65288820412041
 1 -2.90063967256726 -5.58461007860786  3.66117895679568
 1 -1.36744485598560 -5.98933820702070  2.67584153705371
 1  2.49887919201920 -1.54558639453945 -1.69583354835484
 1  2.66223370097010  0.34132841244124 -2.06173932613261
 1  4.10809171477148 -1.08488070327033  0.31513472947295
 1  4.22612157565757  1.24543325372537 -2.63663203290329
 1  5.56561197289729  2.12199245814582 -1.76674314251425
 1  5.80271757935794  0.86157726522652 -2.96948567956796
 1  6.70845290819082  1.34204820482048  0.19874251705171
 1  6.46620073947395 -0.27423546094609  0.84575429212921
 1  7.40089747444745 -1.48591782698270 -1.49431075467547
 1  7.90013244914492  0.07754096219622 -1.94746767036704
 1  8.98024007560756  0.83087097209721  0.25370300250025
 1  8.81765025372537 -0.93156866306631  0.85965382908291
 1  10.31582913431343 -0.00674813711371 -1.82225711521152
 1  9.23172815831583 -2.58759673617362 -2.08362428722872
 1  11.12450500620062 -2.68995577947795 -1.80537478137814
 1  9.94140702670267 -2.92507444944494 -0.30250969066907
 1  11.43041072197220  0.62190442064206  0.19629111661166
 1  11.31310436383638 -1.27785374667467  0.83306392799280
 1  12.83705702460246 -1.97876603780378 -0.88346601420142
 1  12.65999975247525 -0.10528983798380 -1.67763112441244
 1  13.62189362606261  0.88129068506851  0.43400074307431
 1  13.77829058215822 -0.68480808550855  1.04186070257026
 1  15.02326561506151  0.49116860186019 -1.45908026602660
 1  15.76852429532953 -2.02084237633763  0.20679922602260
 1  15.09117216791679 -1.92743511911191 -1.50702811791179
 1  16.77235686508651 -2.08451397629763 -1.11157262676268
 1  15.81798699939994  1.30314814851485  0.82685923022302
 1  16.21489593679368 -0.36314548964896  1.07284004520452
 1  18.01594253295330 -0.28792533993399 -0.38993233363336
 1  17.62172923742374  1.14129144804480 -1.09733330913091
 1  18.46035682828283  2.49169332703270  1.04652265756576
 1  18.79460662096210  1.03152733373337  1.81696169646965
 1  20.37772268496850  0.39811595979598  0.01793885788579
 1  20.00926503310331  3.12433599549955 -1.16011960536054
 1  21.18366261836184  2.13514016681668 -1.47729909320932
 1  19.52741664606461  1.77170898169817 -1.90970793979398
 1  20.94397037223722  1.48536664576458  2.13647326452645
 1  22.17285899219922  2.03027425712571  0.93888885518552
 1  20.79964969486949  3.14963504680468  1.29470991149115

