%nproc=4
%Mem=3GB
# td=(NStates=1) iop(3/107=0140000000,3/108=0140000000) CAM-B3LYP/6-31G(d,p) 

TD

0 1
12 -7.16799149084908  0.55125350885089  0.15330170017002
 6 -4.90970978747875 -2.01281851245125  0.41428683108311
 6 -4.81338736933693  2.84049276717672  1.19706981218122
 6 -9.37644440894089  3.09537709070907 -0.48733120842084
 6 -9.51776787478748 -1.71292305800580 -0.91736854175418
 7 -5.10083711491149  0.41856794739474  0.59169699369937
 6 -4.35944819211921 -0.68980012321232  0.74682257695770
 6 -2.96984320492049 -0.47223562156216  1.20348601770177
 6 -3.06458968586859  1.02014071567157  1.72994927422742
 6 -4.42555278997900  1.49067371847185  1.16774116801680
 6 -3.01219740054005  1.27273009230923  3.28949426402640
 6 -1.95447117681768 -0.59478546774677  0.13730754105411
 6 -0.51047675687569 -0.44817806580658  0.65375875817582
 6  0.43153507670767 -0.64016063796380 -0.46552634273427
 8  0.13161337813781 -0.99639341704170 -1.58147554065407
 8  1.67705630403040 -0.20062000040004 -0.10481586918692
 7 -7.09400704410441  2.55082829272927  0.35037596169617
 6 -6.08690883468347  3.31080484788479  0.85214109020902
 6 -6.33698860726073  4.66571343494349  0.86227448614861
 6 -7.63430821612161  4.85341714691469  0.32847897429743
 6 -8.07593712121212  3.46448338713871 -0.02609461086109
 6 -5.46876891079108  5.78356783048305  1.39093924912491
 6 -8.49897990599060  6.06068633823382  0.03478409090909
 6 -8.30357876787679  7.33981313101310  0.62049610891089
 7 -9.10511955305530  0.64299129352935 -0.56011258515852
 6 -9.81002848914891  1.81841516581658 -0.61644445794579
 6 -11.17400135283529  1.48364780928093 -1.14614947464746
 6 -11.15975546274627  0.15247279307931 -1.29714974327433
 6 -9.90806841044104 -0.37911810521052 -1.03503570487049
 6 -12.28330926862686  2.48604384578458 -1.36211566426643
 6 -12.35103889678968 -0.66898302210221 -1.79264859545955
 6 -12.28202011091109 -1.16746693899390 -3.27672832403240
 7 -7.20049301170117 -1.43171800750075 -0.28773144824482
 6 -8.21374570087009 -2.22001054655466 -0.63770535043504
 6 -7.77370941074107 -3.57169772117212 -0.59516981678168
 6 -6.43400119061906 -3.55652863496350 -0.22690477217722
 6 -6.13925765746575 -2.15828378417842 -0.00506867146715
 6 -8.61967430693069 -4.85687178557856 -0.78126150925092
 6 -5.26071153405341 -4.35688925232523  0.12291726582658
 8 -5.22180317261726 -5.61613847084708  0.13611956055606
 6 -4.22441694429443 -3.27378482588259  0.57675599719972
 6 -3.56288046484648 -3.65955389808981  1.92600856935694
 8 -3.87721050445045 -3.07364472237224  2.92203556175618
 8 -2.82992834563456 -4.72375099359936  1.85607464496450
 6 -2.40976993399340 -5.33276848274827  3.07306470687069
 6  2.74133045344534 -0.45417370627063 -1.16244976217622
 6  4.08655954115411 -0.37646291419142 -0.47292985578558
 6  5.14055954725473  0.32628915691569 -0.87353023002300
 6  5.06427015261526  1.30236791209121 -2.03284741974197
 6  6.44404068276828  0.36036665266527 -0.06594711911191
 6  7.66198765136514 -0.21571011901190 -0.91014134283428
 6  8.95839355095510 -0.18562037813781 -0.22033813621362
 6  10.25863132373237 -0.65746740994099 -0.96111183118312
 6  10.14525780238024 -2.17253513341334 -1.17632459845985
 6  11.48102276607661 -0.32577746884688 -0.04127208970897
 6  12.81612934843484 -0.55507554105411 -0.68922642774277
 6  13.97614888668867 -0.16319203350335  0.20403681528153
 6  15.35887187818782 -0.19848893249325 -0.49798545104510
 6  15.63399967096710 -1.66792518081808 -0.94165599189919
 6  16.41188818151815  0.36828334563456  0.42954768946895
 6  17.78444603230323  0.60223395299530 -0.22473900090009
 6  18.88342876147615  1.24034211271127  0.63786704340434
 6  20.36118892329233  1.37869730223022  0.04939164516452
 6  20.35300814661466  2.28033533863386 -1.26991168706871
 6  21.12700776777678  1.92608430833083  1.26702064206421
 1 -4.02291265476548  3.51390464186419  1.50530662646265
 1 -10.04096621992199  3.73999627412741 -0.63103762996300
 1 -10.29318374247425 -2.22526806190619 -1.44922274167417
 1 -2.68480576777678 -1.11645184788479  1.94217070777078
 1 -2.12047551385138  1.65848790989099  1.25338898789879
 1 -1.97730081648165  0.94601370777078  3.65442577997800
 1 -3.20317742684268  2.37060628342834  3.48605662786279
 1 -3.64653745424542  0.70533568786879  3.98637032223222
 1 -1.74933005200520 -1.48185885668567 -0.49006701380138
 1 -2.02496886588659  0.13710132993299 -0.73031976657666
 1 -0.38295372407241  0.46424601190119  1.07336119911991
 1 -0.27865628592859 -1.31446221282128  1.36951040934093
 1 -5.58648282598260  6.74968248024802  0.77595742704270
 1 -5.71503297459746  6.11449433083308  2.47237925042504
 1 -4.57087193179318  5.49766403440344  1.51916264886489
 1 -9.39472973277328  5.83707708970897 -0.40247159985999
 1 -8.72805186888689  8.28299802080208  0.24435421112111
 1 -7.70102803490349  7.27912474887489  1.44093305360536
 1 -11.99947042004200  3.17603675077508 -2.09856568806881
 1 -13.09605690339034  1.95346408880888 -1.93966969516952
 1 -12.70519155185518  3.25687302140214 -0.57730817031703
 1 -12.47380934583458 -1.54669559235924 -1.03771727262726
 1 -13.17330963006301 -0.23915662616262 -1.56906266066607
 1 -13.17791299049905 -1.44594825692569 -3.65885684378438
 1 -12.01621202690269 -0.15892436373637 -3.99249822822282
 1 -11.54736957635764 -2.03998502570257 -3.38031630983098
 1 -8.75942056065606 -4.81089759055906 -1.92648871187119
 1 -7.89088347354735 -5.74433038633863 -0.55327528262826
 1 -9.67951213021302 -4.35820426882688 -0.38320058875888
 1 -3.24872239073907 -3.48464507010701  0.05292755465547
 1 -1.96108949654966 -4.72961517491749  3.84813653125313
 1 -3.35959239653965 -5.65749527442744  3.51238227592759
 1 -1.69010953145315 -6.15330611541154  2.75898926002600
 1  2.38139619441944 -1.32876949974998 -1.57381883058306
 1  2.59894633593359  0.27808589338934 -2.01408246574657
 1  4.18534902160216 -0.91389980378038  0.48634003420342
 1  4.13107841934193  1.53048859155916 -2.17969845554556
 1  5.41595852805280  2.27911833573357 -1.43239067746775
 1  5.58413798229823  0.98010920182018 -2.94915117201720
 1  6.62495067896790  1.27529751035103  0.40929054295430
 1  6.44547241934193 -0.27479481618162  0.72744894039404
 1  7.15717784058406 -1.28076874987499 -1.11041579877988
 1  7.62350490899090  0.33844294729473 -1.86485730863086
 1  8.90239628392839  0.81020051755176  0.10021244934493
 1  8.97515063586359 -0.90719907260726  0.73533965736574
 1  10.38093272507251 -0.24554840704070 -2.00799595759576
 1  9.39013862296230 -2.50212849634964 -1.85002338423842
 1  10.84884402500250 -2.57663106240624 -1.68767412551255
 1  9.99433163026303 -2.69405352005201 -0.24658205190519
 1  11.55982762436244  0.70639707310731  0.36306407720772
 1  11.26107370287029 -0.72767406500650  0.97975429552955
 1  12.91444939743974 -1.54564198349835 -1.15040731223122
 1  13.03593942384238 -0.01012607660766 -1.57113144684468
 1  13.98077949824983  0.84177954125413  0.39762459115912
 1  13.97017532813281 -0.71606798569857  1.19355172917292
 1  15.51539194059406  0.30902429942994 -1.43803507230723
 1  15.57316111291129 -2.47257659885989 -0.27614575007501
 1  14.83024466886689 -2.06240076007601 -1.66356773027303
 1  16.70455873547355 -1.54702559955996 -1.56983349664966
 1  16.03953722722272  1.21184951865187  1.15273118941894
 1  16.50361443924393 -0.38098438323832  1.22920141484148
 1  18.16090282798280 -0.16995350935093 -0.79420961656166
 1  17.67478478807881  1.44391328542854 -1.02806855045505
 1  18.59791884878488  2.34933620162016  0.75304725152515
 1  19.11590755325533  0.63287812731273  1.55137838333833
 1  20.72301213351335  0.39069006660666 -0.20522463026303
 1  19.85592241074108  3.22800357685769 -0.98825100980098
 1  21.39287308810881  2.47706884898490 -1.64694267546755
 1  19.86051444904491  1.68480877107711 -2.14849323372337
 1  21.05036889038904  1.38095373627363  2.15616928572857
 1  22.32594048684868  1.93628409910991  1.21660831443144
 1  20.61336141464146  2.79204532173217  1.57064420112011

