%nproc=4
%Mem=3GB
# td=(NStates=1) iop(3/107=0140000000,3/108=0140000000) CAM-B3LYP/6-31G(d,p) 

TD

0 1
12 -7.13890858255826  0.64306268976898  0.02805917591759
 6 -4.82603141964196 -2.00987821842184  0.47249265166517
 6 -4.80066609720972  2.80978969686969  1.15267537273727
 6 -9.36609337383738  3.13862141514151 -0.47056953225323
 6 -9.51924802280228 -1.80528229392939 -0.98305511041104
 7 -5.06892392359236  0.41833792439244  0.60789861386139
 6 -4.33186543384338 -0.77069821302130  0.77474536923692
 6 -2.90396661726173 -0.40061845984598  1.26702237133713
 6 -3.10049327622762  1.01618031963196  1.83894017331733
 6 -4.41561179587959  1.44506915801580  1.23953834773477
 6 -3.11212739353935  1.17218003730373  3.42464777937794
 6 -1.91807753745375 -0.60176616581658  0.08382219251925
 6 -0.46998270747075 -0.47854110211021  0.59783316561656
 6  0.54133605680568 -0.55077169906991 -0.52385217531753
 8  0.23125334213421 -0.98218199589959 -1.64116150925093
 8  1.75966456485649 -0.30771070947095 -0.20165555315532
 7 -7.11929957335734  2.64523773367337  0.27134805890589
 6 -6.03941408520852  3.34663843124312  0.78839471557156
 6 -6.31626653505351  4.79609647324732  0.74405266396640
 6 -7.67534231953195  4.96790859605961  0.28398452485249
 6 -8.07217674517452  3.59946688548855 -0.01701370277028
 6 -5.40617265116512  5.89783925762576  1.05432558775878
 6 -8.41677168516852  6.14592486208621  0.06754736723672
 6 -8.29764817481748  7.29704885458546  0.68842290159016
 7 -9.02575161626163  0.66638363276328 -0.53971054495450
 6 -9.79809729602960  1.78494181848185 -0.61529434293429
 6 -11.05053900660066  1.52109155365537 -1.16001086078608
 6 -11.23118260546055  0.12430997679768 -1.30705073337334
 6 -9.83147075067507 -0.42152234563456 -0.99447164846485
 6 -12.26006694439444  2.42930817221722 -1.32828228092809
 6 -12.32263605650565 -0.71624774857486 -1.71034036463646
 6 -12.35942785168517 -1.08941913421342 -3.04564521572157
 7 -7.19237219961996 -1.43021785748575 -0.14295697079708
 6 -8.26215054135414 -2.23844238973897 -0.54794637453745
 6 -7.82456449624963 -3.65025557695770 -0.52681298109811
 6 -6.53496128662866 -3.61499448154816 -0.11155323702370
 6 -6.16008974067407 -2.25158311411141  0.10569240464046
 6 -8.64872721222122 -4.83398949734973 -0.91285466856686
 6 -5.38057352025203 -4.38754231763176  0.25134010811081
 8 -5.33859485178518 -5.57105396239624  0.30448639723972
 6 -4.22521702430243 -3.47643509090909  0.56746506810681
 6 -3.51771594839484 -3.71330927362736  1.91177714621462
 8 -3.76032881628163 -3.21923928182818  2.96972033023302
 8 -2.72328768156816 -4.83499211771177  1.68016705420542
 6 -2.05904486148615 -5.28054326022602  2.84762216261626
 6  2.77589390979098 -0.63379166806681 -1.24844836203620
 6  4.05697658285829 -0.44236950485049 -0.52661522432243
 6  5.08545403670367  0.43205973397340 -1.02198507550755
 6  5.05053877947795  1.37501517681768 -2.11067520252025
 6  6.43253953265327  0.40516113211321 -0.16015654005401
 6  7.60408186078608 -0.07741628962896 -0.91764209290929
 6  8.79829754135413 -0.08632044814481 -0.08679478187819
 6  10.09151461206121 -0.56030769396940 -0.84999071907191
 6  10.03871714831483 -1.98062594249425 -1.36524349034903
 6  11.35775043884388 -0.30780567166717 -0.05961392389239
 6  12.71432916841684 -0.53360339383938 -0.82464997009701
 6  13.85531680348035 -0.17282299659966  0.07395380698070
 6  15.33690968196820 -0.24189327292729 -0.53970962346235
 6  15.72730900190019 -1.69532792109211 -0.92583440974097
 6  16.38467546024603  0.47375389268927  0.34861959665967
 6  17.82495008270827  0.50985471507151 -0.18127465446545
 6  18.83523394199420  1.25249332783278  0.73171642834283
 6  20.23107591199120  1.38026745924592  0.23976068206821
 6  20.38283112891289  2.10250755585559 -1.05833052895290
 6  21.12710777777778  1.82852455235524  1.38410235023502
 1 -4.01706206970697  3.55750900230023  1.58464456025603
 1 -10.08570069336934  3.81677395189519 -0.68658318451845
 1 -10.28225264936494 -2.39496503160316 -1.30082790219022
 1 -2.60587787498750 -1.18274847754775  2.02273876457646
 1 -2.23312677897790  1.78663072417242  1.82757640664066
 1 -2.12145523192319  0.87301640804080  3.75056539393939
 1 -3.21041815091509  2.23857308010801  3.72949097129713
 1 -3.58825162566257  0.36604175847585  4.07312899809981
 1 -1.82558767776778 -1.74626529732973 -0.21046905400540
 1 -2.51236760576058  0.08296591639164 -0.68694542914291
 1 -0.26384181288129  0.52248183548355  1.10934479747975
 1 -0.24862328262826 -1.26437720432043  1.36588004630463
 1 -5.67269144684468  6.81424893689369  0.45730556185619
 1 -5.51700317161716  6.56119900130013  2.14750676317632
 1 -4.48150299489949  5.57240150815081  0.99498023062306
 1 -9.28485874567457  6.05620900290029 -0.74349570227023
 1 -9.01605066876688  8.10562028302830  0.35277505320532
 1 -7.59725765786579  7.35726256265627  1.54155311561156
 1 -11.93398387138714  2.99301844894489 -2.12669850135013
 1 -13.06603390109011  1.82418116051605 -1.58655438363836
 1 -12.38920995369537  3.09069640374037 -0.38709914941494
 1 -12.27240920582058 -1.82603352615262 -1.09469297019702
 1 -13.31050334943494 -0.24871758225823 -1.42885864026403
 1 -13.14189938913891 -1.62504616671667 -3.40955191329133
 1 -12.30429083478348 -0.13017148844884 -3.70448942734273
 1 -11.37992283168317 -1.66101712891289 -3.41094937313731
 1 -9.16130074867487 -4.57181368216822 -1.83041910491049
 1 -7.99884426962696 -5.82846880018002 -0.63462341744174
 1 -9.44971915091509 -4.70720916931693 -0.32483475217522
 1 -3.39699721822182 -3.42237884348435 -0.28539627772777
 1 -1.42364575217522 -4.43912612601260  3.51990370797080
 1 -2.71436787408741 -5.48991851675168  3.75829686738674
 1 -1.40013053355336 -6.08568935373537  2.51254461556156
 1  2.72280033483348 -1.65605222802280 -1.65003645234523
 1  2.54508094939494 -0.06358827402740 -2.13316437393739
 1  4.09567005370537 -1.12307072087209  0.35918731893189
 1  4.04683999549955  1.76201174387439 -2.42361284698470
 1  5.41695862806281  2.45003542744274 -1.55243268166817
 1  5.63506307480748  1.24087527842784 -3.00716697359736
 1  6.70508869276928  1.32651263186319  0.36275588948895
 1  6.17613548564857 -0.34283161986199  0.62978917441744
 1  7.23093521632163 -1.12934360736074 -1.31664642184218
 1  7.75599815831583  0.47715681868187 -1.75116593949395
 1  8.79689573387339  1.00536003350335  0.33081550965097
 1  8.78901202200220 -0.79370772347235  0.67217334073407
 1  10.37505213701370  0.17293344114411 -1.65012017001700
 1  9.18313792289229 -2.30326861036104 -2.09935831773177
 1  10.97141628222822 -2.29469286858686 -1.82754811291129
 1  10.14799699679968 -2.67501161586159 -0.42650004370437
 1  11.45420706230623  0.73802023542354  0.41251902270227
 1  11.10456805230523 -0.85930722832283  0.85656197629763
 1  12.75032298479848 -1.55966338563856 -1.10577284878488
 1  12.57920375027503 -0.03351841584158 -1.83667800150015
 1  13.66819824012401  0.81067643094309  0.35595042374237
 1  13.84507281788179 -0.73419979887989  1.11695406940694
 1  15.17829823122312  0.17439083608361 -1.48044931373137
 1  15.82593639043905 -2.35658499969997  0.10077194169417
 1  14.92181382578258 -2.08465298529853 -1.58401977547755
 1  16.60650893049305 -1.65303620062006 -1.47597411071107
 1  15.93568684218422  1.58880721442144  0.49653556985699
 1  16.26358043584358  0.08407212241224  1.49289778447845
 1  18.14166090379038 -0.61664817881788 -0.20465066066607
 1  17.81898920852085  0.97519641374137 -1.36193193679368
 1  18.46850590749075  2.19119038703870  0.87663961076108
 1  18.82887885038504  0.88438327782778  1.90812405790579
 1  20.51311114341434  0.42177317491749  0.01621751395139
 1  20.26685350385038  3.11721249774977 -0.91628381308131
 1  21.38444224502450  1.87475861796180 -1.21403938513851
 1  19.46015441304131  1.88861915211521 -1.86717510191019
 1  21.08211206470647  1.04805044594459  2.20888455725573
 1  22.18235612841284  2.18441891259126  1.13370002360236
 1  20.85125520402040  2.82426854405441  1.69219635633563

