%nproc=4
%Mem=2GB
# td=(NStates=1) CAM-B3LYP/6-31G(d,p) 

TD

0 1
12 -7.04086465946595  0.58571731983198  0.10822851025103
 6 -4.91957657565757 -1.93622480088009  0.49965649834983
 6 -4.83005293419342  2.82523097039704  1.12169853475347
 6 -9.42454719021902  3.15831132663266 -0.31438429812981
 6 -9.58887920162016 -1.75123063406341 -0.81131756085609
 7 -5.04879830443044  0.48413823192319  0.65856627492749
 6 -4.33889359545955 -0.71580140214021  0.69728775197520
 6 -2.87727673307331 -0.41069049474948  1.08888924312431
 6 -2.99872331073107  1.06838950725073  1.67913864456446
 6 -4.31729872477248  1.48565931473147  1.02298932883288
 6 -3.04010909300930  1.11994428252825  3.20234164306431
 6 -1.91766522752275 -0.59289455085509 -0.06994303600360
 6 -0.41855927852785 -0.41496584378438  0.35405953525353
 6  0.59246038323832 -0.64579809270927 -0.74206958745875
 8  0.36469770987099 -0.99601500910091 -1.89032536423642
 8  1.87521933243324 -0.58541593799380 -0.26119290819082
 7 -7.16512696059606  2.60675626542654  0.27065576107611
 6 -6.08901818081808  3.31019199499950  0.66872040564056
 6 -6.33774102720272  4.78163245264526  0.69711039823982
 6 -7.65423813081308  4.87958859035904  0.34905329662966
 6 -8.16306057765777  3.46561575687569 -0.00169762346235
 6 -5.39731768846885  5.79975244114411  1.10230499099910
 6 -8.42423022062206  6.05548658235824  0.14869185458546
 6 -8.36149004030403  7.25212133073307  0.90512676247625
 7 -9.12488476107611  0.69178203930393 -0.49578361206121
 6 -9.88108436813681  1.87527748084808 -0.56321264536454
 6 -11.26799589618962  1.48212655175518 -0.97023874337434
 6 -11.27704010791079  0.13126849094909 -1.15045375937594
 6 -9.91515719641964 -0.38431040534053 -0.82711772787279
 6 -12.39508833253325  2.43560413141314 -1.34409118391839
 6 -12.36077062336234 -0.81224863496350 -1.56464727322732
 6 -12.47705519391939 -1.10742315351535 -3.03066818541854
 7 -7.19958942724273 -1.35252486608661 -0.07169184618462
 6 -8.29260950075007 -2.18878405050505 -0.54191914711471
 6 -7.89441558715872 -3.55421368886889 -0.51792907020702
 6 -6.47548143224322 -3.53669800680068 -0.22582431433143
 6 -6.23034563096310 -2.18965724702470  0.07914071827183
 6 -8.68863633103310 -4.78331117351735 -0.83059153755376
 6 -5.34861933223322 -4.40985486898690  0.12758563116312
 8 -5.19002784068407 -5.52572705610561  0.03195022572257
 6 -4.27741132053205 -3.32678846864686  0.55516538183818
 6 -3.66543717461746 -3.67775299659966  1.92666303920392
 8 -3.89106070667067 -3.16438317451745  3.00726340744074
 8 -2.88814000770077 -4.71843656605661  1.85850443134313
 6 -2.37929851775177 -5.26708093719372  3.08922385788579
 6  2.89874238593859 -0.82392018661866 -1.26451765216522
 6  4.16795888488849 -0.50340851715172 -0.65845599459946
 6  5.08322180658066  0.21250751615162 -1.15170494319432
 6  5.08767719071907  1.00231288058806 -2.46166033133313
 6  6.42441677447745  0.51674352455246 -0.30348683388339
 6  7.60453799169917 -0.15534588148815 -1.01866881738174
 6  8.87186905950595 -0.03721885228523 -0.09052086488649
 6  10.15797642214221 -0.56991406310631 -0.76520749124912
 6  10.03184988518852 -2.06883781988199 -1.18465193019302
 6  11.40225310221022 -0.20417419821982  0.06504737333733
 6  12.80868577627763 -0.55377942904290 -0.63361338423842
 6  14.06438590699070 -0.18728993179318  0.28859592709271
 6  15.41684780968097 -0.25205893499350 -0.46748498829883
 6  15.83772544144414 -1.72763039683968 -0.63076269396940
 6  16.45044915081508  0.53543790379038  0.46032053925393
 6  17.84760935033503  0.64580597899790 -0.15869168376838
 6  18.85821619111911  1.53091130813081  0.72594302730273
 6  20.26682535173517  1.41549188268827  0.18358312151215
 6  20.43213456725672  2.30365866306631 -1.05197619031903
 6  21.25414634543455  1.97233016931693  1.35360072347235
 1 -4.11274275877588  3.51534705610561  1.26431101800180
 1 -10.21727211991199  3.95931676667667 -0.46003139463946
 1 -10.32166545594560 -2.44802414321432 -1.10756740894089
 1 -2.72837929482948 -1.16442475637564  1.89126981818182
 1 -2.13059666486649  1.64441802440244  1.31121177157716
 1 -2.04966942444244  0.63383383628363  3.63963767726773
 1 -3.44952001200120  1.90194425192519  3.46363852925293
 1 -3.92606604930493  0.40131481548155  3.65624803760376
 1 -2.21496398129813 -1.59312927332733 -0.42861677087709
 1 -2.16752842534253 -0.01929467906791 -0.95253529312931
 1 -0.31899541694169  0.64254886878688  0.71569196829683
 1 -0.25634343634363 -0.98237275247525  1.35021897709771
 1 -5.78243701910191  6.88815745984598  0.89099480868087
 1 -5.11260825022502  5.76486985008501  2.18207450455046
 1 -4.38414237023702  5.70364153055306  0.56843001860186
 1 -9.25805785828583  6.05487163526353 -0.56829705790579
 1 -9.01717293319332  8.08373911281128  0.57049667146715
 1 -7.73675314111411  7.36920331983198  1.91998038353835
 1 -12.22424652975298  2.86135646164616 -2.33764676937694
 1 -13.29595926512651  1.78888277947795 -1.18003919541954
 1 -12.64412614371437  3.11490014471447 -0.49689093309331
 1 -12.45636041444144 -1.72062150725073 -1.08192314721472
 1 -13.45517423632363 -0.19537627442744 -1.45474100160016
 1 -13.39141549414942 -1.66249093529353 -3.19388927342734
 1 -12.69156272047205 -0.18622315991599 -3.60537403310331
 1 -11.53739001830183 -1.58483335043504 -3.52510113011301
 1 -9.07292689568957 -4.68878962186219 -1.83357662176218
 1 -8.00895025982598 -5.78009801400140 -0.65828544154415
 1 -9.43976386128613 -4.82061708300830  0.14813299069907
 1 -3.39431012691269 -3.26936018671867 -0.17196246774678
 1 -1.92358052455246 -4.61230767046705  3.76408932423242
 1 -3.22642225082508 -5.65028664626463  3.64803764266427
 1 -1.82013012451245 -6.16058533173317  2.80700465336534
 1  3.00833013711371 -1.87729956585659 -1.37148111311131
 1  2.68948642624262 -0.31800752115212 -2.34499765196520
 1  4.20854175977598 -0.90814302950295  0.36182939893989
 1  4.12221118461846  1.04989369976998 -2.97792616231623
 1  5.24784019571957  1.90619087798780 -2.30838730693069
 1  5.72360966856686  0.47037814531453 -3.27661639263926
 1  6.60435249814981  1.53179717971797 -0.16565392259226
 1  6.25520964036404 -0.19694773217322  0.66714643134313
 1  7.16891427612761 -1.14857409260926 -1.23231455505551
 1  7.72506494239424  0.18012122022202 -2.12677560116012
 1  8.98774082568257  1.07514539953995  0.00308794099410
 1  8.56606509520952 -0.40313581978198  1.02405026872687
 1  10.20919847124712 -0.01856931923192 -1.70247513701370
 1  8.91783676917692 -2.34775275177518 -1.43503942874287
 1  10.65196775247525 -2.49384616851685 -2.06444068796880
 1  10.36301918791879 -2.58622056405641 -0.20598003770377
 1  11.50270795169517  0.79719194939494  0.35163665116512
 1  11.49558261166117 -0.62875883718372  1.08120874247425
 1  13.05782910181018 -1.50390855205521 -0.86753442104210
 1  12.78056180868087  0.07148783978398 -1.66793015431543
 1  14.14847628432843  0.85500805680568  0.71033837683768
 1  14.14660741384138 -0.98064766946695  0.98388490499050
 1  15.30555384388439  0.15982546754675 -1.37841219921992
 1  16.11775921882188 -2.49310960306031  0.27858640474047
 1  15.08676172687269 -2.29669204480448 -1.17498491359136
 1  16.85325495489549 -1.73505903080308 -1.16886835633563
 1  15.95507070777078  1.67088492219222  0.49762630693069
 1  16.47008145534553  0.16024684958496  1.43997675887589
 1  18.32796373507351 -0.48564511191119 -0.38162150255026
 1  17.94699176367637  1.06040335923592 -1.11808538433843
 1  18.66210700330033  2.52659681738174  0.81497950325032
 1  18.95558271857186  1.05519970097010  1.63035303560356
 1  20.40863577627763  0.39234538273827 -0.23717665366537
 1  20.02664677127713  3.39308287018702 -0.94183777717772
 1  21.34401865396540  2.54066071887189 -1.28653001630163
 1  19.86758066246625  1.79539134993499 -1.85203217221722
 1  21.26964293949395  1.38864697379738  2.31245086228623
 1  22.37995970227023  2.00429165886589  1.23043801010101
 1  20.76802653255326  2.94820490379038  1.64024446494649

