%nproc=4
%Mem=2GB
# td=(NStates=1) CAM-B3LYP/6-31G(d,p) 

TD

0 1
12 -7.15117569056906  0.49032778087809  0.07142482988299
 6 -4.88554317231723 -1.92328350675068  0.45700223292329
 6 -4.87930785968597  2.71126957425743  1.13639000390039
 6 -9.43698843434343  3.12834833033303 -0.49843270297030
 6 -9.61646195989599 -1.68980449144915 -0.87648407750775
 7 -5.09884330893089  0.40198001610161  0.74493491179118
 6 -4.34318402450245 -0.74361418341834  0.85295331853185
 6 -2.94776378177818 -0.41679110481048  1.26248660286029
 6 -3.09045248364836  1.06541921022102  1.78817954865487
 6 -4.41526852175217  1.49334008280828  1.17244427432743
 6 -3.00822590469047  1.08136042414241  3.30446185508551
 6 -1.96483994499450 -0.56526178757876  0.07993195149515
 6 -0.47594501710171 -0.36792113931393  0.47135126442644
 6  0.52384352155216 -0.65202871577158 -0.59153453395340
 8  0.17858909900990 -0.90765617321732 -1.75590192189219
 8  1.71054286478648 -0.24028142454245 -0.20881767066707
 7 -7.14253470137014  2.49811540134013  0.20783947944794
 6 -6.10998027702770  3.25728670447045  0.73385691929193
 6 -6.41094834793479  4.68992328172817  0.79644033123312
 6 -7.76348905590559  4.80937156865687  0.36003439473947
 6 -8.19377364896490  3.44206340164016 -0.06762421612161
 6 -5.60848880558056  5.84068653455346  1.29267402790279
 6 -8.63444124172417  6.07281831553155  0.10374736013601
 6 -8.57277116841684  7.23751987058706  0.85029127892789
 7 -9.10337260986099  0.62175503660366 -0.68113214691469
 6 -9.79394565426543  1.82124207730773 -0.85364168826883
 6 -11.19272836943694  1.40484882398240 -1.20365208470847
 6 -11.23674607850785  0.07619298339834 -1.25998471247125
 6 -9.86023170387039 -0.39425139943994 -0.89619463556356
 6 -12.30689951365136  2.39646021702170 -1.53957073187319
 6 -12.32277682398240 -0.76198360846085 -1.78990979947995
 6 -12.23574106250625 -1.08217062826283 -3.24493961256126
 7 -7.24867433573357 -1.41797141074107 -0.20938561556156
 6 -8.23789402920292 -2.27393256535654 -0.49987494269427
 6 -7.93282942854285 -3.61539980748075 -0.43892116941694
 6 -6.52831671577158 -3.58979331633163 -0.11206293819382
 6 -6.25596819321932 -2.23887216851685  0.14639744394439
 6 -8.74579204660466 -4.83556639903990 -0.74643312171217
 6 -5.37126159645965 -4.42069595309531  0.23828670127013
 8 -5.05654449234923 -5.60735521892189  0.23460049074907
 6 -4.23663724312431 -3.25226101590159  0.53089295459546
 6 -3.50760139103910 -3.59582480378038  1.99154952785279
 8 -3.71038263886389 -3.00097683388339  2.94874755585559
 8 -2.81874306800680 -4.64074879727973  1.86841542244224
 6 -2.21999258715872 -5.10342457155716  3.12942787828783
 6  2.85713822552255 -0.70422821742174 -1.06410761116112
 6  4.08125021402140 -0.33022119841984 -0.45435558455846
 6  5.14224770917092  0.39759602500250 -1.03255302800280
 6  4.98838726172617  1.21271392069207 -2.28541270657066
 6  6.40363469626963  0.47933978417842 -0.18081456665667
 6  7.64683222112211 -0.04723507040704 -0.85595254575458
 6  8.96964883748375  0.03245811541154 -0.07267908070807
 6  10.29386001050105 -0.36628370007001 -0.91415238573857
 6  10.27050375057506 -1.70886182228223 -1.34292775777578
 6  11.46801967886789 -0.21224500530053  0.10527139573957
 6  12.79795470317032 -0.28030208130813 -0.77779780268027
 6  14.03602307070707 -0.05290649344935  0.12234930243024
 6  15.39733585848585 -0.14907863696370 -0.58533677347735
 6  15.73524519341934 -1.56762439623962 -1.06170578827883
 6  16.53639774567457  0.29862422242224  0.30863537073707
 6  17.98591318071807  0.33490488888889 -0.21403721832183
 6  18.84814518401840  1.03017123412341  0.77846827982798
 6  20.32743141234123  1.14800513401340  0.25080984418442
 6  20.35482683648365  1.95067336453645 -0.99258025072507
 6  21.28219915071507  1.73980691699170  1.31840720412041
 1 -4.16150763526353  3.43818934033403  1.35481006790679
 1 -10.22412280498050  3.96776761176118 -0.54415980748075
 1 -10.41068435783578 -2.50919025982598 -1.03212986518652
 1 -2.62253871077108 -0.96545485938594  2.10444113531353
 1 -2.11010461566157  1.49026260886089  1.41309195959596
 1 -1.91892635013501  0.65176562946295  3.72961667516752
 1 -3.15729078907891  1.95558961646165  3.81293345874587
 1 -3.79869331203120  0.39297398139814  3.74019643244324
 1 -2.31030351525153 -1.49881984238424 -0.29804371357136
 1 -2.14159583208321  0.25042229262926 -0.67497753735374
 1 -0.11261477887789  0.65487010091009  0.84020441954195
 1 -0.17870567256726 -1.16439095429543  1.10310426562656
 1 -5.75945472087209  6.73724236833683  0.84384009320932
 1 -5.60744773417342  5.94667803090309  2.29231552865286
 1 -4.56307026302630  5.69143030943094  1.10363353895390
 1 -9.57900995349535  5.86867301540154 -0.39655988418842
 1 -9.34465568146815  8.00513125202520  0.73240286208621
 1 -7.89007847364737  7.10553695319532  1.61153953945395
 1 -11.98529263436344  3.09936026202620 -2.28899190389039
 1 -13.11938160736073  1.74407829902990 -2.03121431293129
 1 -12.54139587068707  2.95142379707971 -0.57628887288729
 1 -12.37697247564757 -1.71032047714771 -1.12184713961396
 1 -13.47136585548555 -0.34433116991699 -1.40279580708071
 1 -13.08931528412841 -1.60325501170117 -3.45273515801580
 1 -12.35574913911391 -0.17005154275428 -3.83725722142214
 1 -11.39906618591859 -1.84523939103910 -3.53062168216822
 1 -9.21476107910791 -4.94145488838884 -1.83091635573557
 1 -8.22985235003500 -5.82425242944294 -0.17784739773977
 1 -9.64114399929993 -4.67059208050805 -0.08973079567957
 1 -3.34065476137614 -3.31802505320532 -0.31238651015101
 1 -1.53890205670567 -4.34347078677868  3.46935985128513
 1 -3.12843245184518 -5.05581719931993  3.99522236113611
 1 -1.72935104660466 -6.22813208640864  2.94429838273827
 1  2.67012631673167 -1.72655449134914 -1.19225319031903
 1  2.72257973557356 -0.32145786618662 -2.18274142634263
 1  4.30427133273327 -0.87532974817482  0.56952016801680
 1  3.95146410991099  1.52948165856586 -2.58885725542554
 1  5.64226963866387  2.11151141004100 -2.20378684688469
 1  5.41781908950895  0.58996010351035 -3.05503423442344
 1  6.61729379227923  1.50218421842184  0.29477212001200
 1  6.20990510991099 -0.32326036343634  0.64773449014901
 1  7.51023840854085 -1.01393062826283 -1.22734405800580
 1  7.64644708060806  0.47791099919992 -1.82981590519052
 1  9.14770682228223  1.14250213521352  0.09160679287929
 1  9.03132162086209 -0.57675318151815  0.83959182288229
 1  10.63140069146915  0.21240377807781 -1.81627651715172
 1  9.33571855735573 -1.78783676017602 -2.01203712851285
 1  11.07712026772677 -1.80526731063106 -1.87418166206621
 1  10.03054594059406 -2.24553649564956 -0.61096053575358
 1  11.49848752965297  0.82185441564156  0.56053754125413
 1  11.40096314971497 -0.91151711301130  0.85191581318132
 1  12.96039935883588 -1.37819598079808 -1.09640730833083
 1  12.63278703120312  0.33075376637664 -1.61595495679568
 1  14.00430186688669  0.98963151915192  0.59858720172017
 1  14.20775352845284 -0.66817642234223  0.98879539603960
 1  15.36731001950195  0.55542502750275 -1.60172453045305
 1  15.66901434433443 -2.39119941204120 -0.12110356425643
 1  15.06989003970397 -1.80061243684368 -1.76539395449545
 1  16.65431506090609 -1.66170169506951 -1.38220969046905
 1  16.39945514621462  1.36074390809081  0.70219676397640
 1  16.37782222942294 -0.26886606170617  1.19864262546255
 1  18.45999693839384 -0.53070961836184 -0.43130647104710
 1  18.05416248074808  0.99151647054705 -1.17931150695070
 1  18.47367816041604  2.03618777647765  1.04632263756376
 1  18.85201236153615  0.35095927692769  1.65735573587359
 1  20.67246215891589  0.20711685988599 -0.22867580358036
 1  20.11747585418542  3.01240480238024 -0.85039863326333
 1  21.45315956805680  2.00115676847685 -1.51783314661466
 1  19.47695159955996  1.52969478027803 -1.72751972097210
 1  21.42090806600660  1.11756986608661  2.26209582678268
 1  22.33964567086709  1.97240847054705  1.04106907320732
 1  21.06624635453545  2.78796888018802  1.58680912141214

