%nproc=4
%Mem=2GB
# td=(NStates=1) CAM-B3LYP/6-31G(d,p) 

TD

0 1
12 -7.18465903890389  0.61978072617262  0.03205089248925
 6 -4.80223484148415 -1.98632981138114  0.49484601730173
 6 -4.93336326522652  2.79667811511151  1.11928829372937
 6 -9.50062479797980  3.07705320082008 -0.42322518221822
 6 -9.58991930563056 -1.70063557455746 -0.87567399649965
 7 -5.08333175777578  0.43074289238924  0.56569698799880
 6 -4.33233293939394 -0.72227204920492  0.68708673187319
 6 -2.90853985938594 -0.37467689338934  1.21291164536454
 6 -3.01885532393239  1.15837850615062  1.56943767446745
 6 -4.44114110901090  1.57598834763476  1.08626565646565
 6 -3.00989607170717  1.25957824592459  3.26821823072307
 6 -1.85643910491049 -0.70356561796180  0.01158511681168
 6 -0.43233065566557 -0.50996534373437  0.62613674297430
 6  0.57390852805281 -0.64605811871187 -0.45825120562056
 8  0.29684092419242 -0.96412181978198 -1.53429976167617
 8  1.85538734923492 -0.48578597499750 -0.04044083298330
 7 -7.17690813871387  2.51535712551255  0.19809850535053
 6 -6.12319159815982  3.32043301910191  0.71446498009801
 6 -6.46007326042604  4.73534782418242  0.80265095229523
 6 -7.80511321832183  4.77047767926793  0.31711010231023
 6 -8.16257052865287  3.38315751105111 -0.08832628632863
 6 -5.47747570427043  5.84673713961396  1.17472223272327
 6 -8.61091888948895  5.95936697039704  0.08602558795880
 6 -8.53486737803780  7.04154027262726  0.87859410921092
 7 -9.20702297489749  0.68821168226823 -0.54058809250925
 6 -9.96512277197720  1.76646659975998 -0.70661698579858
 6 -11.30131922852285  1.52139047814781 -1.12382410191019
 6 -11.33653605750575  0.09643500760076 -1.18394710871087
 6 -9.97860354105410 -0.42114408870887 -0.91886690279028
 6 -12.34783360706071  2.52126269726973 -1.39507628242824
 6 -12.42570711701170 -0.82054946504650 -1.70305111361136
 6 -12.32777026542654 -1.12566497769777 -3.24075919451945
 7 -7.29773924222422 -1.33653326692669 -0.15404008100810
 6 -8.35508574837484 -2.22554772687269 -0.48250320552055
 6 -7.81235738133813 -3.59084735223522 -0.51878915621562
 6 -6.49607349144915 -3.47888222522252 -0.14794652655266
 6 -6.18277087348735 -2.09201748304831 -0.01141833763376
 6 -8.65206267366737 -4.86545938833883 -0.81007948634863
 6 -5.34564903520352 -4.31121500500050  0.15477835043504
 8 -5.29377821572157 -5.54801928532853  0.03804083478348
 6 -4.16890046944694 -3.32512830263026  0.51582144744474
 6 -3.56879751065107 -3.62482770407041  1.93428380128013
 8 -3.77063866446645 -3.05650238643864  2.94816749784978
 8 -2.66568776247625 -4.68001272367237  1.76659524042404
 6 -2.01908249614961 -5.09680390949095  3.03900883638364
 6  2.93201571327133 -0.73606140074007 -1.03230443084308
 6  4.24115620462046 -0.38800697699770 -0.37814796379638
 6  5.20056354075408  0.34588085348535 -0.91197096979698
 6  5.09529795279528  1.18754140344034 -2.07661182648265
 6  6.45062939573957  0.48888073827383 -0.07104358955896
 6  7.57313485138514 -0.22294264116412 -0.74203115361536
 6  9.01378325092509  0.00215508510851  0.05517370457046
 6  10.17614823932393 -0.32156922862286 -0.74553552405241
 6  10.11522822302230 -1.86803773987399 -1.25768923392339
 6  11.51537441434144 -0.15483926472647 -0.01072020342034
 6  12.75414032173217 -0.55165921702170 -0.81029105200520
 6  14.04377384578458 -0.16990819361936  0.00909797729773
 6  15.40757688258826 -0.28312204130413 -0.56567480728073
 6  15.73422509140914 -1.70210784458446 -0.89419903760376
 6  16.52246635253525  0.38770313031303  0.32725723292329
 6  17.90295488488849  0.41160255865587 -0.23909972457246
 6  18.83435380488049  1.25789400640064  0.64944537753775
 6  20.26776544574457  1.29447978147815  0.17562232543254
 6  20.35287664146415  2.14287258445845 -1.11952294499450
 6  21.23153408420842  1.80868380468047  1.23342870627063
 1 -4.34978646314632  3.52757827922792  1.75481006790679
 1 -10.25864625732573  3.83487432243224 -0.58424381588159
 1 -10.39504279367937 -2.60841018181818 -1.15029168136814
 1 -2.55820227712771 -0.75461377527753  2.13648433963396
 1 -2.35826943214321  1.87771135373537  1.17296794719472
 1 -2.13328778627863  0.60549100200020  3.38759247274727
 1 -2.84391945194520  2.35116917441744  3.87450961636164
 1 -3.78585202790279  0.75344002800280  3.63432584538454
 1 -1.75608809370937 -1.89602956335634 -0.21065497469747
 1 -2.17447912041204 -0.10145289488949 -0.88460850045005
 1 -0.13904742214221  0.51362597649765  1.05069546864686
 1 -0.19623742574257 -1.15213972917292  1.45850980618062
 1 -5.73336211161116  6.75919456355636  0.66394210341034
 1 -5.53823081248125  5.89794315741574  2.32283858095810
 1 -4.62363631963196  5.32967413381338  0.88713188878888
 1 -9.56368842134213  5.98718486658666 -0.60622085028503
 1 -8.96469768566857  8.10809154805481  0.93615323712371
 1 -7.86789625542554  7.22939933943394  1.70582896839684
 1 -11.96682078717872  3.18525885188519 -2.19370237493749
 1 -13.21358102730273  2.20029392059206 -2.19478066956696
 1 -12.51253298439844  3.09459811451145 -0.39991123512351
 1 -12.50193497189719 -1.82987243234323 -1.14146910181018
 1 -13.38551727062706 -0.41553829062906 -1.52471799929993
 1 -13.14539089168917 -1.73806849304931 -3.59605949044904
 1 -12.16140970517052 -0.34649918751875 -3.94732822852285
 1 -11.30431671097110 -1.57957282438244 -3.56737535753575
 1 -8.88126772977298 -4.85291603450345 -2.01794505860586
 1 -8.13607297209721 -5.83295329952995 -0.20183979697970
 1 -9.67637752265227 -4.84091911321132 -0.45507733033303
 1 -3.57497819371937 -3.58421167186719 -0.29858513001300
 1 -1.43863202970297 -4.44032047174717  3.43911682698270
 1 -2.79750935953595 -5.21555317291729  3.84812765166517
 1 -1.58248636013601 -6.13596286948695  2.77330128302830
 1  3.13192249634963 -1.73513534943494 -1.33511747674767
 1  2.60480795839584 -0.03626934733473 -2.02588574077408
 1  4.46211711731173 -1.02303451865187  0.48987220322032
 1  4.13424238773877  1.19787849824982 -2.69005737543754
 1  5.32756816851685  2.22718297719772 -1.92774924312431
 1  5.48963627122712  0.65396650415042 -2.88554728572857
 1  6.62339440234023  1.70246424642464 -0.12371972917292
 1  6.44895901530153  0.32845480808081  1.09032874957496
 1  7.46760414511451 -1.33962319751975 -0.92877420102010
 1  7.60671310721072  0.11489469756976 -1.82551547514751
 1  9.08211026262626  1.02972085708571  0.39684731693169
 1  8.99252774147415 -0.48199370557056  0.95586345004500
 1  10.44615216661666  0.47398993669367 -1.72078696819682
 1  9.30803578907891 -2.02670064656466 -2.14570049484949
 1  11.15598815451545 -2.01946873077308 -1.72272651655166
 1  9.98705159115912 -2.52928487048705 -0.36779621932193
 1  11.48674635553555  1.06495872607261  0.09984147164716
 1  11.43889694309431 -0.63147910921092  1.02019264086409
 1  12.66132945184519 -1.61714987618762 -0.89681734933493
 1  12.97762151465146  0.07194788578858 -1.80610397169717
 1  13.91554299099910  0.93869642564256  0.31749909290929
 1  14.16623937703770 -0.80349995469547  1.10703722022202
 1  15.43700698919892  0.33213269826983 -1.64524888288829
 1  15.78461590449045 -2.19190948304830  0.15180372647265
 1  14.87152020272027 -2.06816919251925 -1.41371878697870
 1  16.54565419481948 -1.81594711961196 -1.57684915441544
 1  16.10129533023302  1.28567640134013  0.50862740704070
 1  16.47531197839784 -0.11412058715872  1.23027578877888
 1  18.59663060176018 -0.47189373677368 -0.35002834323432
 1  17.86280334483449  0.95490280918092 -1.09991356715672
 1  18.50141093369337  2.23380753845385  0.71356936223622
 1  18.85546270657066  0.83125730673067  1.56135613591359
 1  20.56028094079408  0.13549969816982 -0.11772470847085
 1  19.94806891349135  3.15213877577758 -0.92904649804981
 1  21.42671692379238  2.13094974777478 -1.34404576787679
 1  19.70802470687069  1.98754056485649 -1.93785075407541
 1  21.28755473067307  1.24695280438044  2.20905052225222
 1  22.28266997329733  1.42356358605861  0.63363833013301
 1  21.14447417731773  2.88635871917192  1.41233167366737

