%nproc=4
%Mem=2GB
# td=(NStates=1) CAM-B3LYP/6-31G(d,p) 

TD

0 1
12 -7.11448202120212  0.52694144224422  0.14296198359836
 6 -4.88009262726273 -1.92661383978398  0.49020555325533
 6 -4.81396132503250  2.86292473977398  1.11358772367237
 6 -9.39107384288429  3.06046154165417 -0.34723758345835
 6 -9.59950026372637 -1.77817332833283 -0.88422485158516
 7 -5.07291071567157  0.44848466656666  0.71714213251325
 6 -4.32839254535454 -0.74670449244924  0.87500552375238
 6 -2.91474047944794 -0.40511993769377  1.18191854605461
 6 -3.10891432983298  1.02003467176718  1.59861059175918
 6 -4.44363135803580  1.52839358815882  1.10194722462246
 6 -2.87457253935394  1.28485077317732  3.08221963086309
 6 -1.92081554255426 -0.61545680708071  0.09801375967597
 6 -0.53822124472447 -0.41931627882788  0.55329945924592
 6  0.51421255845585 -0.40877439033903 -0.65016039653965
 8  0.19014025412541 -0.74453986158616 -1.73960029172917
 8  1.73482529302930 -0.27014441084108 -0.08270505940594
 7 -7.12166261416142  2.54694028382838  0.33152184768477
 6 -6.09187846684669  3.33385436123612  0.78905243884388
 6 -6.39764701780178  4.70364465386539  0.76346703390339
 6 -7.73519622662266  4.80654128562856  0.30141853315332
 6 -8.16953122472247  3.42784197949795 -0.01700915461546
 6 -5.47965592229223  5.90307277317732  1.07984274477448
 6 -8.54599239683968  5.99701073477348  0.02006899229923
 6 -8.46023991529153  7.09279539813981  0.78581483128313
 7 -9.18977124972497  0.64128698979898 -0.46969100280028
 6 -9.91194745444544  1.67785773887389 -0.55964228832883
 6 -11.24659375597560  1.48693703280328 -1.17529924942494
 6 -11.32011441534153  0.02117748184818 -1.19314802880288
 6 -10.01312699339934 -0.35854782908291 -0.87531254735474
 6 -12.27511633533353  2.44751532253225 -1.33460023482348
 6 -12.45882042834283 -0.78603601370137 -1.67890869936994
 6 -12.48791628002800 -1.06809922112211 -3.18130324892489
 7 -7.19443891219122 -1.42351196479648 -0.12859753675368
 6 -8.30322056185619 -2.19877504960496 -0.52523747894789
 6 -7.84303044864486 -3.61386965446545 -0.45944322162216
 6 -6.48161204530453 -3.57233157015702 -0.12448418031803
 6 -6.20798339473947 -2.20278856015602  0.07777058125813
 6 -8.69060652805280 -4.79248209060906 -0.69292777117712
 6 -5.34352882318232 -4.25169905340534  0.24356722932293
 8 -5.06821565946595 -5.46223070647065  0.18789582028203
 6 -4.27884146354635 -3.27210300010001  0.50876074137414
 6 -3.54045467636764 -3.71513673497350  1.91982235513551
 8 -3.77369897049705 -3.25596233243324  2.96624930603060
 8 -2.58840003370337 -4.62481720412041  1.68916749764977
 6 -2.02939352725273 -5.16932116121612  2.87703263876388
 6  2.81874438613861 -0.55012280688069 -1.04937613801380
 6  4.16198828782878 -0.39435761206121 -0.50590073907391
 6  5.16029951435143  0.34484074947495 -1.04614438713871
 6  5.10136855985599  1.03408605790579 -2.34475864116412
 6  6.49361369416942  0.39729157935794 -0.27009349454945
 6  7.57233477137714 -0.23467381428143 -0.97775472597260
 6  8.89709158175818 -0.13330846124612 -0.27857967076708
 6  10.27761838633863 -0.59187625932593 -1.00884185468547
 6  10.09652635283528 -2.03522445854585 -1.56856032103210
 6  11.43451632853285 -0.24606838763876 -0.08812794419442
 6  12.77927283498350 -0.54417846894689 -0.74153417631763
 6  13.98084755315532 -0.08428963176318  0.09716678417842
 6  15.33473959885989 -0.21198492759276 -0.50908914871487
 6  15.72664433333333 -1.74164179797980 -0.67336695439544
 6  16.41759586548655  0.44532889288929  0.45650015721572
 6  17.93222781218122  0.42777417581758 -0.07556337093709
 6  18.80362073157316  1.35772398939894  0.82346277927793
 6  20.26175484468447  1.30291062456246  0.39952471567157
 6  20.46371772557256  2.05735403260326 -0.98822981568157
 6  21.24353528432843  2.04589752605261  1.36290165356536
 1 -4.11579306380638  3.47634315571557  1.45329991689169
 1 -10.10901129382938  3.88222905790579 -0.31910730223022
 1 -10.28305159455946 -2.44624396519652 -1.13814046624662
 1 -2.76629308620862 -0.89167748164816  2.20834152535254
 1 -2.30072367756776  1.69047262986299  0.91522217261726
 1 -1.74545900340034  1.13359381228123  3.31779549304931
 1 -3.15334039403940  2.27334139163916  3.31449361476148
 1 -3.54267771047105  0.78548323232323  3.66124853765376
 1 -2.15775826072607 -1.67397735813581 -0.13582749194919
 1 -1.97684935743574 -0.16722947254726 -0.70646068566857
 1 -0.45523904130413  0.45937055095510  1.33456385548555
 1 -0.10561836383638 -1.22682719791979  1.13919787498750
 1 -5.51773054845485  6.69098774287429  0.35278098729873
 1 -5.66718370777078  6.22223558665867  2.19013531063106
 1 -4.42086604260426  5.56997816421642  1.36726990259026
 1 -9.13260531303130  6.00571671977198 -0.82830305850585
 1 -9.11053226912691  7.93650438933893  0.52407202900290
 1 -7.90431989778978  7.29853625312531  1.57703608910891
 1 -11.83308741384139  3.19456978297830 -1.99193219791979
 1 -13.09491916111611  1.89010290149015 -1.76742793429343
 1 -12.37530926202620  3.00519917461746 -0.46376762076208
 1 -12.53842862126213 -1.85331477657766 -1.34571952685269
 1 -13.38448716761676 -0.16558329512951 -1.50475600310031
 1 -13.39207556015602 -1.56923160936094 -3.43193307780778
 1 -12.27535109930993 -0.08124266186619 -3.71011450715072
 1 -11.71527780708071 -1.76560142724272 -3.66834545454545
 1 -9.09978958195820 -4.74883562646265 -1.63455671977198
 1 -8.14479384418442 -5.77980798499850 -0.52119173217322
 1 -9.51437132203220 -4.93039806110611 -0.01282310491049
 1 -3.25820651655166 -3.17408065876588 -0.23815908740874
 1 -1.55006317281728 -4.46090252995300  3.58045096039604
 1 -2.99037864646465 -5.52945456305631  3.40838367726773
 1 -1.56177428892889 -6.15036430963096  2.48905285818582
 1  2.75577488158816 -1.63119495539554 -1.31380534553455
 1  2.54845232283228 -0.02715843624362 -1.99936308850885
 1  4.23173407900790 -0.82425464066407  0.40679389538954
 1  4.12557152065207  1.18978768916892 -2.73352172187219
 1  5.45983139483948  2.16772703160316 -2.10020648884889
 1  5.93285059265927  0.59517062456246 -3.12126085708571
 1  6.73774583748375  1.45749974997500 -0.11367872507251
 1  6.29666378577858  0.03144510711071  0.68604832153215
 1  7.46363374807481 -1.21605084028403 -1.31390271387139
 1  7.67931036693669  0.28410161826183 -1.93211613521352
 1  9.25767781938194  0.93354123912391  0.00106773897390
 1  8.91378986768677 -0.92633814001400  0.56421428512851
 1  10.15771332273227 -0.09683714601460 -2.01231612111211
 1  9.18024300980098 -2.19878785528553 -2.34384030883088
 1  10.99708226392639 -2.42897968186819 -1.94079832373237
 1  9.74520740674068 -2.70257219921992 -0.66787622732273
 1  11.37750543144314  0.80011224142414  0.22942442994299
 1  11.43976703010301 -1.08492445374537  0.77774839643964
 1  12.77583090199020 -1.55462362356236 -0.73094076167617
 1  13.12855660816082 -0.12276158515852 -1.66293965526553
 1  13.83188462516252  0.86812936893689  0.55991333433343
 1  14.09651240434043 -0.70976058075808  1.01090760726073
 1  15.32879616811681  0.32078156315632 -1.64184854285429
 1  16.07654509740974 -1.91522181428143  0.54596314241424
 1  15.02321537223722 -2.48732110771077 -1.10259767486749
 1  16.76335596499650 -1.80918644354435 -1.26028749824982
 1  15.93270847154715  1.37928576227623  0.71679822412241
 1  16.43860830803080 -0.17293646874687  1.35910867206721
 1  18.12419335803580 -0.57557410481048 -0.36403974437444
 1  17.93638070257026  0.87883520242024 -1.16592016781678
 1  18.29851064366437  2.42474663236324  0.82227023232323
 1  18.63509066936694  0.96358053905390  1.77730773107311
 1  20.47988290099010  0.31844799299930  0.12428949294929
 1  20.02294640124012  3.07757131903190 -0.78871246464646
 1  21.45265951805181  2.01796844964496 -1.15800716401640
 1  19.82018592299230  1.51127293809381 -1.73666063506351
 1  20.91932790799080  1.73186129522952  2.37280689788979
 1  22.40489219551955  1.83240447014701  1.19163412971297
 1  21.14847457735774  3.15029511281128  1.36792723322332

