%nproc=4
%Mem=2GB
# td=(NStates=1) CAM-B3LYP/6-31G(d,p) 

TD

0 1
<<<<<<< HEAD
12 -7.03095366836684  0.63197194529453  0.07353504090409
 6 -4.93955857385739 -1.94072525092509  0.63381991469147
 6 -4.83132306120612  2.91549999729973  1.24023038793879
 6 -9.36839157465747  3.13447894339434 -0.49161202090209
 6 -9.52265257895790 -1.71581709270927 -0.98540496959696
 7 -5.07360078467847  0.46311612971297  0.83859427772777
 6 -4.27371707780778 -0.74384420642064  0.85076309950995
 6 -2.95259426482648 -0.37508693439344  1.27597795199520
 6 -3.06009944834483  1.11081374967497  1.81943267396740
 6 -4.40114710961096  1.49019976877688  1.18775580548055
 6 -3.01438652075208  1.15207749584958  3.33478488738874
 6 -1.91858531953195 -0.69719498089809  0.14568852715272
 6 -0.53366078867887 -0.66241058825883  0.61475560486049
 6  0.48765990319032 -0.84545805870587 -0.52817819831983
 8  0.19150039013901 -1.28362376997700 -1.59539587128713
 8  1.73769558005801 -0.53543093949395 -0.12609939883988
 7 -7.09527997589759  2.56652224202420  0.31569026452645
 6 -5.97808708770877  3.31918289408941  0.81403493709371
 6 -6.36961421452145  4.73158744814481  0.73783447064706
 6 -7.65008771577158  4.89901053255326  0.32454084538454
 6 -8.08341261286129  3.47642683798380 -0.04724217791779
 6 -5.56314427112711  5.90887335323532  1.06089084958496
 6 -8.40896869446945  6.18103913761376  0.04941192659266
 6 -8.27301119241924  7.20645676427643  0.78838508830883
 7 -9.04997727032703  0.70985384648465 -0.58050208390839
 6 -9.76043230293029  1.85181513461346 -0.76218254235424
 6 -11.09732882948295  1.44814315341534 -1.23903562306231
 6 -11.14659706360636  0.14963032713271 -1.43071178517852
 6 -9.81997767846785 -0.34313628792879 -0.91550656675668
 6 -12.19360818451845  2.48853942494249 -1.27175395019502
 6 -12.37089163546355 -0.71845925602560 -1.88594940344034
 6 -12.21630911931193 -1.16753916511651 -3.39179429802980
 7 -7.26217568586859 -1.35577519111911 -0.11801647864786
 6 -8.26823706350635 -2.18186335843584 -0.60790574577458
 6 -7.90314646024602 -3.57664593209321 -0.56217349464947
 6 -6.55883976807681 -3.52329666666667 -0.05974770667067
 6 -6.32581517791779 -2.20720900220022  0.24115691989199
 6 -8.60697816521652 -4.76406924932493 -1.01810028842884
 6 -5.35691016131613 -4.37870175367537  0.35151802440244
 8 -5.25367420532053 -5.53280776417642  0.25736276697670
 6 -4.19002258165817 -3.29496528632863  0.64058392369237
 6 -3.58765939683968 -3.80479570087009  1.95876624952495
 8 -3.65582718331833 -3.19601633783378  3.08119080018002
 8 -2.77656885058506 -4.72439716211621  1.85804438533853
 6 -2.23915450335033 -5.22597682678268  3.11769670517052
 6  2.77698020972097 -0.76866466106611 -1.17709891029103
 6  4.05593768276828 -0.49031720802080 -0.49739988898890
 6  5.03489697409741  0.20376664206421 -1.00078985168517
 6  5.01930035303530  1.09367201650165 -2.26349051435144
 6  6.31823615641564  0.24801665186519 -0.25232171737174
 6  7.51059859775978 -0.21275162206221 -1.08599555005501
 6  8.81860373297330 -0.11765689608961 -0.17588940174017
 6  10.09126975147515 -0.42959003070307 -0.98276924742474
 6  10.17832453265326 -1.88045898199820 -1.48997246224622
 6  11.48784166106611 -0.13408718951895 -0.16556568796880
 6  12.77557246494649 -0.22412646374637 -0.87956797969797
 6  13.96595606400640 -0.06306750955095  0.06119318681868
 6  15.31944806970697 -0.15785951505151 -0.64256249604961
 6  15.83967563646365 -1.60717835163516 -0.91838145584558
 6  16.38624273017302  0.46270063006301  0.31211571877188
 6  17.77490207960796  0.66709810821082 -0.17953376797680
 6  18.72488285778578  1.22460067706771  0.77584801780178
 6  20.22925159435944  1.34862519601960  0.24355911911191
 6  20.38333968776878  2.35117341454145 -0.86401739443944
 6  21.06547747854786  1.81411434773477  1.37836319971997
 1 -4.03482496699670  3.67683320472047  1.51750633753375
 1 -9.95079547224722  3.91339217421742 -0.59785517701770
 1 -10.18573186258626 -2.35189453025303 -1.40170682288229
 1 -2.51059751665167 -0.86107442134213  2.14903559475948
 1 -2.13180678587859  1.69086266886689  1.19150980138014
 1 -2.04818927642764  0.87896834973497  3.76957067056706
 1 -3.18671373137314  2.26821087858786  3.57077924332433
 1 -3.84130757345735  0.50942562656266  3.78033044584458
 1 -2.05551803670367 -1.73261322172217 -0.16693060226023
 1 -1.93042471497150 -0.09567231683168 -0.68198823842384
 1 -0.06032955035504  0.20049466336634  1.23606400550055
 1 -0.47743554555456 -1.53471798699870  1.29045300050005
 1 -5.90339911531153  6.51230987508751  0.36273198239824
 1 -5.77250423982398  6.36117948104810  2.03543984108411
 1 -4.39687364336434  5.69738090449045  1.19450262586259
 1 -8.99785183768377  6.26793294139414 -0.70980120832083
 1 -8.84423563946395  8.12504324322432  0.74760438223822
 1 -7.73772323812381  7.14323072257226  1.65519390489049
 1 -11.97049115421542  3.41901222722272 -2.04396740144014
 1 -13.18924859405941  2.17043093429343 -1.34237542904290
 1 -12.22646437753775  2.94282293699370 -0.20319156315632
 1 -12.57332211061106 -1.60287973307331 -1.29278423332333
 1 -13.27931665056506 -0.03575031183118 -1.85091061856186
 1 -12.88144449704970 -1.86756144234423 -3.90460034453445
 1 -12.21327489168917 -0.19933447104710 -4.01717521322132
 1 -11.24669094839484 -1.88166303340334 -3.22051067106711
 1 -8.74531413441344 -4.87556829972997 -2.21135439953995
 1 -8.03533289808981 -5.64831483568357 -0.72504211721172
 1 -9.51322120702070 -4.89301432273227 -0.57590941354135
 1 -3.57135783168317 -3.60337358805881 -0.27441271277128
 1 -1.71882004850485 -4.40897733743374  3.50671358665867
 1 -3.14709431803180 -5.60132174977498  3.74776761566157
 1 -1.62584069556956 -6.16989626282628  3.02461641454145
 1  2.66339564366437 -1.84875671157116 -1.49644360936094
 1  2.41210868846885 -0.00859658005801 -2.01068422062206
 1  4.29165007060706 -0.92750496569657  0.38591180718072
 1  4.05832479597960  1.22969167956796 -2.70107847754776
 1  5.45374078577858  2.05181544044404 -2.01402787098710
 1  5.91658896649665  0.91679278677868 -3.09938866986699
 1  6.68711077397740  1.32730673067307  0.31180382318232
 1  6.30346446584659 -0.51950998839884  0.63394311101110
 1  7.19149653435343 -1.14878411361136 -1.37714903850385
 1  7.91634407030703  0.25588879697970 -1.84905782938294
 1  8.94081613321332  0.99372725772577  0.19371700390039
 1  8.70596908560856 -0.64172967916792  0.65953381708171
 1  10.09647719911991  0.11226376407641 -2.04112900240024
 1  9.07757274277428 -2.29364734123412 -1.65822174697470
 1  10.86978953465347 -2.13516029992999 -2.24526877077708
 1  10.49647253325333 -2.51741368336834 -0.41993143284328
 1  11.44523220412041  0.92699492969297  0.26296778427843
 1  11.34904795819582 -0.75226118741874  0.62282290389039
 1  12.66710002890289 -1.25114327552755 -1.28202587018702
 1  12.95027878037804  0.42104279527953 -1.69827318861886
 1  13.85428686538654  1.01204376037604  0.44696203920392
 1  13.92212496559656 -0.76401600630063  0.89336585308531
 1  15.42115540404040  0.51345083008301 -1.63025738373837
 1  16.09402684558456 -2.17496778887889 -0.16060751465147
 1  14.95215826652665 -2.04426680228023 -1.68575599069907
 1  16.79020865026503 -1.58938446334633 -1.59674114361436
 1  15.97753295399540  1.54270210391039  0.54638118241824
 1  16.40909535673567  0.13943476837684  1.29511227242724
 1  17.94227516621662 -0.41960850825082 -0.26819015941594
 1  17.65904296879688  1.08092541144114 -1.22642621842184
 1  18.56759755235523  2.29333349104911  1.07457546284628
 1  18.71017817811781  0.51818599959996  1.72123212351235
 1  20.48659357205721  0.40635678387839 -0.05961889788979
 1  19.98171227782778  3.30768433033303 -0.64029762316232
 1  21.58021227332733  2.47649430223022 -1.13590495379538
 1  19.99744364876488  1.94539635043504 -1.90136710571057
 1  20.69341531673167  1.19883799289929  2.41120073727373
 1  22.15481718801880  1.51387261696170  1.28902386868687
 1  20.91256098599860  2.91958204150415  1.59171961246125
=======
12 -7.18975954895490  0.59946869496950  0.03330101750175
 6 -4.91144576257626 -1.99345052345235  0.55501203390339
 6 -4.80666059495950  2.86383483078308  1.18423478837884
 6 -9.43357809330933  3.11435693119312 -0.35361822152215
 6 -9.41131144484448 -1.72967847884788 -0.84324075317532
 7 -5.07757118171817  0.40622044014401  0.84578499679968
 6 -4.31521122722272 -0.70760058205821  0.82713073627363
 6 -2.89696870227023 -0.40444987068707  1.33658401260126
 6 -3.02461589999000  1.08868153645365  1.56160689138914
 6 -4.47634462936294  1.50230097889789  1.15897292719272
 6 -2.93639872197220  1.31241352945295  3.08373978287829
 6 -1.95663912491249 -0.67323258465847  0.09434339263926
 6 -0.46888431103110 -0.54480882808281  0.50531466076608
 6  0.52341347854785 -0.73685719861986 -0.57294267476748
 8  0.27985922602260 -0.99967537513751 -1.71932826452645
 8  1.86015782628263 -0.54015141154115 -0.19447623652365
 7 -7.16229667756776  2.61493708350835  0.37501619711971
 6 -6.04440371937194  3.40468144394439  0.67251078467847
 6 -6.37686493959396  4.78002229162916  0.84907559475948
 6 -7.77039974697470  4.79367999949995  0.36281467276728
 6 -8.21720599219922  3.53352254755476  0.13455600190019
 6 -5.41963992069207  5.81955442134213  1.18202296279628
 6 -8.55963376097610  6.02554358805881  0.22537952335234
 6 -8.48697258855886  7.18193431203120  0.94342059185919
 7 -9.14015628822882  0.70083294439444 -0.57714174787479
 6 -9.89664592429243  1.83281323442344 -0.71296762086209
 6 -11.26279537613761  1.52588092719272 -1.17509922942294
 6 -11.18246064996500  0.11424678877888 -1.38660737473747
 6 -9.91561724242424 -0.35799777407741 -0.96398141424142
 6 -12.34536336003600  2.50299087008701 -1.55897267206721
 6 -12.38516306260626 -0.70950836093609 -1.72865367386739
 6 -12.46980446884688 -1.02020443164316 -3.25549066766677
 7 -7.25390485878588 -1.44280389398940 -0.17505218221822
 6 -8.26368660846085 -2.17443261536154 -0.52990794599460
 6 -7.82365851145114 -3.68829709720972 -0.55492276957696
 6 -6.52168605270527 -3.56224056105611 -0.05444717661766
 6 -6.21544414081408 -2.14592287358736  0.15809861406141
 6 -8.84665213261326 -4.81346418881888 -0.70103858225823
 6 -5.26660113041304 -4.36118000150015  0.17176004860486
 8 -5.15537437533753 -5.52947743114311  0.13510054075408
 6 -4.15436901630163 -3.29779556935694  0.60213007830783
 6 -3.51225185608561 -3.67016223752375  1.90442081498150
 8 -3.78481008160816 -3.18589532573257  2.96716939803980
 8 -2.74423561726173 -4.74206892929293  1.69704828572857
 6 -2.21088167606761 -5.28809303840384  3.08813374887489
 6  2.90692320402040 -0.66074386898690 -1.34294549494949
 6  4.09736182518252 -0.51098927522752 -0.62487263626363
 6  5.08603208760876  0.27548381378138 -1.05629540224022
 6  5.23025144814481  1.06412906220622 -2.29204336963696
 6  6.51085541834183  0.32431428162816 -0.25724220942094
 6  7.71626916481648 -0.25680602750275 -0.95488243874387
 6  8.98143001560156 -0.08071320172017 -0.28317012981298
 6  10.25891651615161 -0.63118018971897 -0.87034800530053
 6  10.06288298849885 -2.16012694879488 -1.02502596759676
 6  11.51005388228823 -0.33556733753375 -0.06062519391939
 6  12.92228713641364 -0.55880993209321 -0.77406742964296
 6  13.98637810621062 -0.17398860166017  0.29669673717372
 6  15.38258438333833 -0.20428415751575 -0.30308854865487
 6  15.73226489538954 -1.64001163496350 -0.82975259295930
 6  16.40162426832683  0.49330369036904  0.56260076727673
 6  17.72116670607060  0.61622302070207 -0.17796361096110
 6  18.74192456195620  1.50985920292029  0.75194562756276
 6  20.28267693689369  1.46652698619862  0.14437920112011
 6  20.23357471127113  2.16605490269027 -1.23477447014701
 6  21.27957888868887  2.07086002230223  1.19238460186019
 1 -4.12669415391539  3.51941746314631  1.62177676457646
 1 -10.35075546824682  3.91664249924992 -0.38227361886189
 1 -10.24696798619862 -2.38599794059406 -1.20209686188619
 1 -2.61676813371337 -1.00335864976498  2.16750744194419
 1 -2.20283388858886  1.76363994659466  1.18196884728473
 1 -2.13117757525753  0.95924637753775  3.54350806430643
 1 -2.84461952195220  2.40475453295330  3.23755592099210
 1 -3.92241568426843  0.84023870787079  3.63287570037004
 1 -2.07631011591159 -1.65481544194419 -0.23143705290529
 1 -2.08186985948595  0.11003825422542 -0.38184822442244
 1 -0.38779229662966  0.28612322622262  0.84448484758476
 1 -0.34643244524452 -1.22136665186519  1.47707166236624
 1 -5.80677945334533  6.90981962606261  0.90487619681968
 1 -5.50156714611461  5.84567793089309  2.17378367546755
 1 -4.56018997499750  5.45908707510751  0.66695987158716
 1 -9.34412646514651  6.05751189928993 -0.54691491969197
 1 -9.12226344224422  8.05015575447545  0.82947256905690
 1 -7.71571103690369  7.49831623112311  1.76472485798580
 1 -11.98386249134914  3.30816114211421 -2.17012001670167
 1 -13.25604527372737  1.89933382458246 -1.99087027852785
 1 -12.70322205330533  3.04804345904590 -0.73842508650865
 1 -12.20822560096010 -1.77625707080708 -1.22540749564956
 1 -13.29596831573157 -0.34270100690069 -1.39781530903090
 1 -13.32273862646265 -1.72448713491349 -3.73657354185419
 1 -12.75847941214121 -0.12519705730573 -3.65192868856886
 1 -11.37802408170817 -1.26953182028203 -3.70364898489849
 1 -9.07063666666667 -4.57087783068307 -1.63984724882488
 1 -8.34093345814581 -5.78328833303330 -0.56015562856286
 1 -9.76276616151615 -4.59357437873787 -0.10793261586159
 1 -3.36336703260326 -3.28307155785579 -0.07754302580258
 1 -1.75050321682168 -4.10728716841684  3.22992590789079
 1 -3.04941455005501 -5.26713833143314  3.75225806470647
 1 -1.67292540404040 -6.16008528172817  2.88682263516352
 1  2.91582088618862 -1.83088492439244 -1.77535150015001
 1  2.75137261486149 -0.04925064546455 -2.03207635983598
 1  4.37201810741074 -1.19544175937594  0.00870408640864
 1  4.16315527902790  1.18600731113111 -2.74390275997600
 1  5.56892230393039  2.17860811971197 -2.17609407760776
 1  5.93380068766877  0.69246035353535 -2.94878360936094
 1  6.73753581648165  1.28075207520752  0.07619026182618
 1  6.28434255365537 -0.34737277467747  0.63200291699170
 1  7.53425080978098 -1.34857409260926 -1.00387171077108
 1  7.71923435933593  0.14610781888189 -1.97549047264726
 1  9.15712776437644  1.17739562456246  0.06685431763176
 1  8.87275576427643 -0.53134864106411  0.74813267696770
 1  10.52468001940194 -0.28133559585959 -1.91732662216222
 1  9.28011299679968 -2.38397637413741 -1.70508643344334
 1  10.95659821552155 -2.75216200010001 -1.46727097099710
 1  9.91384427042704 -2.81801374337434  0.01568212851285
 1  11.41634931583158  0.74400663086309  0.24466595409541
 1  11.58380143354336 -0.90987694899490  0.88311893349335
 1  13.10759407830783 -1.67099526072607 -1.01356902450245
 1  12.89146289878988  0.37885857685769 -1.69773313461346
 1  13.72931436813681  0.90499305530553  0.47035437843784
 1  13.93317607070707 -0.74149375407541  1.06825334183418
 1  15.41070435893589  0.22801228622862 -1.12706706470647
 1  15.70590803370337 -2.27801809390939 -0.02426388028803
 1  14.96427947864787 -1.73060543614361 -1.56032344744474
 1  16.73000262966297 -1.73480900580058 -1.23369483898390
 1  16.10032523322332  1.54966279998000  0.81598814311431
 1  16.51353580078008  0.04219504440444  1.60789355055506
 1  18.13182412111211 -0.30151669906991 -0.01339467986799
 1  17.52615968046805  0.88776609550955 -1.20339391519152
 1  18.40835162776278  2.65139929762976  1.04645265056506
 1  18.56658381868187  1.03783796479648  1.77435743604360
 1  20.26365127782778  0.33391954015402 -0.03155609160916
 1  20.10044415101510  3.28036159805981 -1.10730432383238
 1  21.28613286538654  2.24593124592459 -1.44910627392739
 1  19.62434633903391  1.70897270807081 -2.07837480648065
 1  21.31612758795880  1.35827393649365  1.92718233543354
 1  22.25046675297530  2.11221245094510  0.73038800510051
 1  21.00544027392739  2.97109719301930  1.62253269376938
>>>>>>> 8e03b5b5abfc0030b3aa597dc0de36371bfbd096

