%nproc=4
%Mem=2GB
# td=(NStates=1) CAM-B3LYP/6-31G(d,p) 

TD

0 1
12 -7.18747932093209  0.61313006110611 -0.00704301690169
 6 -4.84183880188019 -2.01993317171717  0.50193672637264
 6 -4.77196712561256  2.84365281258126  1.04635100000000
 6 -9.35332006750675  3.11514701020102 -0.44266712641264
 6 -9.58341865556556 -1.74202971397140 -0.70548697779778
 7 -5.10793421802180  0.46122594069407  0.68268868716872
 6 -4.36616632273227 -0.71348117011701  0.74933295649565
 6 -2.95822482788279 -0.28411783748375  1.18528888308831
 6 -3.01203464186419  1.12264493279328  1.70831156185619
 6 -4.32410940584058  1.51751250005001  1.10339736963696
 6 -3.00180526262626  1.10805309340934  3.22387379627963
 6 -1.96948040904090 -0.68098335973597  0.03632759105911
 6 -0.48540596319632 -0.55518986618662  0.49730385968597
 6  0.44515565276528 -0.73311682458246 -0.70416579707971
 8  0.29068030813081 -1.29264467206721 -1.72899923162316
 8  1.78312012251225 -0.42681007740774 -0.34789157805781
 7 -7.00142058995900  2.58460405020502  0.36266496199620
 6 -6.01331061006101  3.38691966776678  0.75289882348235
 6 -6.30039729282928  4.78511280068007  0.74192487968797
 6 -7.67905061206121  4.84901553305331  0.29867825912591
 6 -8.03256752835284  3.45961515681568  0.05132767906791
 6 -5.52741069776978  5.87605007090709  1.08777353785379
 6 -8.62977077467747  5.95654668836884  0.20670765616562
 6 -8.47376126742674  7.07005312391239  0.93296954675468
 7 -9.12914518711871  0.70620348144814 -0.46382041574157
 6 -9.84018027772777  1.79280923402340 -0.59757608170817
 6 -11.14323341994199  1.53289162826283 -1.06934865436544
 6 -11.23687609150915  0.02136750085009 -1.32442115611561
 6 -9.96365204590459 -0.41531350565056 -0.85020003610361
 6 -12.20960978467847  2.49253982498250 -1.40877765256526
 6 -12.35383993029303 -0.71189859996000 -1.69048985748575
 6 -12.36883437183718 -0.92999541074107 -3.21234635323532
 7 -7.26248571687169 -1.37811742534253 -0.16864154115412
 6 -8.32833307310731 -2.23038821092109 -0.45624057925793
 6 -7.92164831043104 -3.60625889338934 -0.40873815111511
 6 -6.57461134523452 -3.56046038303830 -0.13217494939494
 6 -6.24699729612961 -2.22338061936194  0.03549635383538
 6 -8.68723619101910 -4.92173501590159 -0.77177565596560
 6 -5.35056952725273 -4.38133201670167  0.25847872047205
 8 -5.32353119101910 -5.53982846624662  0.32244927562756
 6 -4.16172975237524 -3.28202399219922  0.59014888018802
 6 -3.58074870577058 -3.70277549884989  1.86148652155216
 8 -3.77443904450445 -3.06721345754575  2.96616929802980
 8 -2.72861405510551 -4.75336005840584  1.74832341324132
 6 -2.21674226212621 -5.29592382148215  2.96927186268627
 6  2.78987149884988 -0.69320711531153 -1.27328852925293
 6  4.13179526852685 -0.41340951725173 -0.60138028702870
 6  5.18145162956296  0.31438770417042 -1.10096986968697
 6  5.12682110511051  1.11932458175818 -2.32915708100810
 6  6.36870120292029  0.39533138333833 -0.20183666886689
 6  7.65598313621362 -0.09233958085809 -0.89451640214021
 6  9.00454232683268 -0.06587171757176 -0.09894170697070
 6  10.21799242374237 -0.50812788448845 -0.81835280578058
 6  10.17253395359536 -1.96579751585159 -1.25133859885989
 6  11.49331220812081 -0.18160194099410 -0.01153028442844
 6  12.88384329202920 -0.39511356245625 -0.61775179807981
 6  13.99042851125112  0.00098889608961  0.12581964946495
 6  15.36988311321132 -0.19586331543154 -0.48194643444344
 6  15.68370003890389 -1.66564419821982 -0.75932555025503
 6  16.35076918281828  0.56108046804680  0.41121562876288
 6  17.75702029142914  0.61532293069307 -0.18506432103210
 6  18.82169253875388  1.33896211321132  0.74074450745075
 6  20.22030069926993  1.35210554405441  0.22954771797180
 6  20.44979633343334  2.06357465466547 -1.08171916461646
 6  21.15371630243024  1.82734567086709  1.38533389678968
 1 -4.07727921242124  3.70703622502250  1.34760934783478
 1 -10.07060745344534  3.97517835283528 -0.50427581908191
 1 -10.37648093749375 -2.48371771257126 -1.03505015721572
 1 -2.65867232413241 -1.09040735463546  1.83852454365436
 1 -2.21768537373737  1.62931651425143  1.37806845724572
 1 -1.93265772327233  0.94595504840484  3.51895560906091
 1 -3.43763882388239  1.99789384688469  3.58429059445945
 1 -3.36733017571757  0.23495817981798  3.71661407420742
 1 -2.16237872277228 -1.77344730513051 -0.01196510571057
 1 -1.99377104960496 -0.20361311091109 -0.90178021762176
 1 -0.21494501190119  0.51872648654865  0.68270866996700
 1 -0.27479528152815 -1.14153866906691  1.31898585378538
 1 -5.50718949434944  6.80621926602660  0.24813052225222
 1 -5.61422841224122  6.19970333343334  2.14082037913791
 1 -4.42651660766077  5.64649581598160  0.89963313891389
 1 -9.42927497999800  5.93088923702370 -0.81301152935294
 1 -9.00120133603360  7.99838057695770  0.85430505230523
 1 -7.74043350915092  7.14267066656666  1.72984136963696
 1 -11.84680878597860  3.22112243824382 -2.25463846854686
 1 -12.83458312751275  1.86328021922192 -2.09832102360236
 1 -12.71400313141314  3.20200885558556 -0.55758700270027
 1 -12.28404318271827 -1.65126457155716 -1.11380633553355
 1 -13.23467218611861 -0.28236497329733 -1.27250277777778
 1 -13.24304065666567 -1.49753443964396 -3.37854773927393
 1 -12.65938950315032 -0.00426496409641 -3.81433492919292
 1 -11.58706498579858 -1.57524239133913 -3.45031365136514
 1 -8.89077868086809 -4.63567431033103 -1.80807407150715
 1 -8.08113747854785 -5.69790979517952 -0.78509812281228
 1 -9.81318120302030 -4.95199022032203 -0.34375619821982
 1 -3.34070476637664 -3.55016826752675 -0.05951122262226
 1 -1.64028219471947 -4.62146858655866  3.57732064736474
 1 -3.07533714231423 -5.54579619721972  3.64347718661866
 1 -1.34072218371837 -6.20435970917092  2.83412736563656
 1  2.72599190329033 -1.54266610251025 -1.89001296629663
 1  2.72766024362436  0.19312359195920 -2.08535168736874
 1  4.23582448804880 -0.97790000520052  0.37700091609161
 1  4.01388035153515  1.25778448884889 -2.73945231493149
 1  5.65298070977098  2.08251851075108 -2.02156862506251
 1  5.97365467306731  0.70087119461946 -3.02089082008201
 1  6.42589465236524  1.42894689468947  0.22146478927893
 1  6.30577469686969 -0.15305334273427  0.77871758845885
 1  7.33566095079508 -1.08306754195420 -1.34121544514451
 1  7.75680811671167  0.42569577767777 -1.70869379297930
 1  9.04595664726473  0.91153903890389  0.25269290149015
 1  8.74268275697570 -0.69860536673667  0.73186104980498
 1  10.23368091949195  0.21846438413841 -1.61028591809181
 1  9.07318230373037 -2.09401737823782 -1.70998692349235
 1  10.90157271297130 -2.14497128102810 -2.11771601550155
 1  10.45246813281328 -2.75733767576758 -0.38601804150415
 1  11.49883756465647  0.99074130433043  0.05068655615562
 1  11.42504555795580 -0.56142210351035  0.99080970257026
 1  12.97351066996700 -1.43965212641264 -0.83513118071807
 1  12.91894564706470  0.07869856085609 -1.67819118041804
 1  13.85410684738474  1.18624118011801  0.36162350535053
 1  13.98380113321332 -0.50821042574257  1.27886440294029
 1  15.20686397489749  0.39399888488849 -1.36586094409441
 1  15.84113155605561 -2.28214850695069  0.01221976807681
 1  14.98788183888389 -1.98974134973497 -1.51816923202320
 1  16.76408603800380 -1.69380490539054 -1.29788125762576
 1  16.10781598229823  1.40981881558156  0.76558310261026
 1  16.43067751495149  0.09643046794680  1.34056681788179
 1  17.98155909460946 -0.48155470287029 -0.29025236563656
 1  17.59499656415642  1.23664098299830 -1.02847642344234
 1  18.33743453605361  2.35779993769377  0.74367237253725
 1  18.89993715401540  0.82493667466747  1.59460946124612
 1  20.45540045274527  0.20658680688069  0.19361642564256
 1  20.30942504910491  3.07476103800380 -0.95973956735674
 1  21.54765901800180  2.00521717451745 -1.49262062536254
 1  19.89418332273227  1.64025583638364 -2.08103507250725
 1  20.98050402560256  1.34409251835183  2.26873649084909
 1  22.18189989628963  1.73501473117312  1.05568053435344
 1  21.04575430533053  2.90152023532353  1.53040348084809

