%nproc=4
%Mem=2GB
# td=(NStates=1) CAM-B3LYP/6-31G(d,p) 

TD

0 1
12 -7.23762433543354  0.59894864296430  0.29205689308931
 6 -4.80978559655966 -1.91173235163516  0.46871340404040
 6 -4.88677860676068  2.78876732403240  1.16156252115212
 6 -9.38066280178018  3.05409090459046 -0.44889774947495
 6 -9.54152446614662 -1.79607511851185 -0.90296672577258
 7 -5.11362478707871  0.52017183528353  0.65503592189219
 6 -4.37383708980898 -0.72171199319932  0.87457548074807
 6 -2.98998800420042 -0.34523394909491  1.13271362556256
 6 -3.03723716211621  1.04834750305031  1.59028975967597
 6 -4.41330832573257  1.48838958775878  1.23387041694169
 6 -2.85963104520452  1.14226651475148  3.23969537843784
 6 -1.90484394539454 -0.56662192359236 -0.08196423812381
 6 -0.45258268086809 -0.32595694289429  0.46077020632063
 6  0.65995713291329 -0.61436494939494 -0.70144552505251
 8  0.33921516161616 -0.98627403500350 -1.77584391609161
 8  1.85011682218222 -0.63422081848185 -0.10251704060406
 7 -7.16914736263626  2.60619620942094  0.41265996149615
 6 -6.09987926692669  3.40922189798980  0.93265679927993
 6 -6.46520377347735  4.76169045844584  0.78707939513951
 6 -7.71287399439944  4.87111774327433  0.46610500180018
 6 -8.20241451305131  3.48686788208821  0.10350289658966
 6 -5.44749270597060  5.82551501740174  1.13347810831083
 6 -8.51798959655966  6.02328336203620  0.20921790719072
 6 -8.56151004230423  7.27793391199120  0.89862611241124
 7 -9.17130940354035  0.67862072317232 -0.48257229092909
 6 -9.90170643034303  1.82082203530353 -0.62314863896390
 6 -11.10569966656666  1.42471081018102 -1.21282300180018
 6 -11.22321472537254  0.08518388248825 -1.36362507650765
 6 -9.89896557725772 -0.43729570387039 -0.95290030613061
 6 -12.12396121982198  2.41712228322832 -1.53720049484949
 6 -12.33023757005701 -0.82514992509251 -1.78916972547255
 6 -12.29137662606261 -1.05510792199220 -3.22904802340234
 7 -7.23947341564156 -1.39851946554655 -0.23262793979398
 6 -8.29191943174317 -2.24094926702670 -0.58821377657766
 6 -7.78183432903290 -3.62129039653965 -0.39275655295530
 6 -6.49542342644264 -3.59468380538054 -0.02847457935794
 6 -6.18681127752775 -2.14268254955496  0.06418922312231
 6 -8.58212567996800 -4.82223506590659 -0.79861834023402
 6 -5.30922539283928 -4.32868675217522  0.21933480608061
 8 -5.17300613851385 -5.57993247664766  0.34604163486349
 6 -4.15623920332033 -3.29747553735374  0.50540040534053
 6 -3.61620225112511 -3.64306952825283  1.93072344524452
 8 -3.91325292589259 -2.98949568576858  2.93194587568757
 8 -2.63958515221522 -4.62546726912691  1.73363194409441
 6 -2.34094468236824 -5.15337956705671  3.03967890339034
 6  2.80039255095510 -0.66208400300030 -1.21364256465647
 6  4.14292638163816 -0.44131230753075 -0.51257140614061
 6  5.16344982938294  0.31912817821782 -1.06274604730473
 6  5.08336675967597  1.18513116241624 -2.25146931223122
 6  6.55086941974197  0.38153000320032 -0.38724520972097
 6  7.69194673257326 -0.27818816571657 -1.09163611411141
 6  8.99674154675468 -0.25227035743574 -0.20905271807181
 6  10.24332495699570 -0.64686175787579 -0.89689065956596
 6  10.18752545274527 -2.08276921302130 -1.30753421842184
 6  11.40509338623862 -0.23874765556556 -0.00895002640264
 6  12.76206111381138 -0.50190424152415 -0.66909693259326
 6  13.96111557995800 -0.14127533033303  0.25552261976198
 6  15.30107623252325 -0.32812654175418 -0.34904314411441
 6  15.62225389428943 -1.79889752355235 -0.85960557825783
 6  16.39621372727273  0.35595995599560  0.39048355555556
 6  17.76117070647065  0.43923532193219 -0.06587240184018
 6  18.71937230673067  1.39020723772377  0.73625405840584
 6  20.22726139533953  1.56911724522452  0.24109887308731
 6  20.25390674447445  2.23332162936294 -1.10455144784478
 6  21.06899783058306  2.12241517781778  1.24151951535154
 1 -4.03885537003700  3.47973349474947  1.34622920982098
 1 -9.99024941764176  3.90611144614461 -0.77900329182918
 1 -10.20755404480448 -2.52832217301730 -1.28039469166917
 1 -2.64649110601060 -1.03685199909991  2.04027471867187
 1 -2.16246985218522  1.72141572417242  1.20197084748475
 1 -2.01891634913491  0.32704315721572  3.54372808630863
 1 -2.51171623162316  2.27923198069807  3.68000016541654
 1 -3.81959540224022  0.87636232023202  3.62379479227923
 1 -2.09532201710171 -1.64092405280528 -0.39769367856786
 1 -2.30691236373637  0.06506375677568 -0.71616165576558
 1 -0.30813433083308  0.71356597049705  0.65832623172317
 1 -0.22021982398240 -0.83080759595960  1.27616157135714
 1 -5.67826660206021  6.54986363046305  0.44000971017102
 1 -5.39181617101710  6.34699806290629  2.25212150925093
 1 -4.21764572057206  5.72762392879288  0.97117029262926
 1 -9.22220427292729  5.97678382648265 -0.46629685788579
 1 -9.36293750965097  7.98023876277628  0.71454107590759
 1 -7.78041750755076  7.38883528302830  1.67738612411241
 1 -11.70255436053605  3.07788811481148 -2.22867587228723
 1 -13.06806647584758  2.14694858605861 -1.95923711521152
 1 -12.58660039113911  3.13163181788179 -0.81650289428943
 1 -12.27620239863987 -1.72074151925192 -1.30040499539954
 1 -13.36859557845785 -0.10535727252725 -1.84753028052805
 1 -13.02940929352935 -1.77752243844384 -3.48395828032803
 1 -12.41059462366237 -0.16840137773777 -3.91639513521352
 1 -11.42138841814181 -1.62691755885589 -3.38201682168217
 1 -9.37907751075108 -4.56264700760076 -1.61811507560756
 1 -7.82851221602160 -5.61915191939194 -0.83269288228823
 1 -9.15120500540054 -4.92096711801180  0.08130630803080
 1 -3.49558025392539 -3.30324357505751 -0.42791806330633
 1 -2.10750891739174 -4.22408884858486  3.80109302460246
 1 -3.27876748534853 -5.51248286588659  3.34885772467247
 1 -1.52770088158816 -5.89689896309631  2.60736468936894
 1  2.65866517061706 -1.58635047094709 -1.87513147814782
 1  2.69942742034203  0.22547682728273 -1.81038419061906
 1  4.51956286188619 -1.04974718991899  0.41499471547155
 1  4.13893285678568  1.42074078447845 -2.72872124182418
 1  5.55073048474847  2.04408466736674 -2.08434490269027
 1  5.64092139973997  0.66451755925593 -3.13328205920592
 1  6.89548161106111  1.36353035303530 -0.25500285748575
 1  6.69088320772077 -0.07516555395540  0.67628734543454
 1  7.38705609030903 -1.28112734793479 -1.38688001160116
 1  7.89931236713671  0.25607881598160 -2.04881780538054
 1  9.12364441604160  0.66549443444344  0.28185581778178
 1  8.78885737443744 -0.92097760396040  0.71897976167617
 1  10.22361991339134  0.08958149584959 -1.72916780628063
 1  9.24945993149315 -2.33241121762176 -1.96347227202720
 1  11.20979353505351 -2.39994677857786 -1.90943518741874
 1  10.39195208120812 -2.76933887588759 -0.49352879257926
 1  11.27284496539654  0.86535876607661  0.26965845334533
 1  11.26896995039504 -0.74037999929993  0.89572019361936
 1  12.84559787868787 -1.56866502770277 -1.02638030563056
 1  12.93221697419742 -0.07766707570757 -1.71563492479248
 1  13.91030246694669  0.90421297729773  0.81142848584858
 1  14.01653440654065 -0.84684428912891  1.11111762826283
 1  15.44777806630663  0.10707019201920 -1.31978633663366
 1  15.37188463136314 -2.39446973907391  0.04537308340834
 1  14.89759280998100 -2.00056243184318 -1.83081049614961
 1  16.87981761116112 -1.74993051795179 -1.18182965246525
 1  16.23321852255225  1.50524835853585  0.69789633393339
 1  16.49929437663766 -0.21508068316832  1.36459922112211
 1  18.25452639133913 -0.52290883828383 -0.30849418981898
 1  17.79931699619962  0.90326764566457 -1.06339991579158
 1  18.31460225282528  2.43702786048605  0.84591259655966
 1  18.46294345464547  0.98598277927793  1.66533653395340
 1  20.57614252695270  0.53146929512951 -0.10963389938994
 1  19.95113922052205  3.25752931483148 -0.92030562396240
 1  21.29387363946395  2.33338999179918 -1.44615597889789
 1  19.67608151255126  1.80027183798380 -1.97284425342534
 1  21.27922389758976  1.50557866696670  2.25282489968997
 1  21.94030573687369  2.16629785948595  0.77067203350335
 1  20.59782951285129  3.15992607590759  1.63199363986399

