%nproc=4
%Mem=2GB
# td=(NStates=1) CAM-B3LYP/6-31G(d,p) 

TD

0 1
12 -7.04123469646965  0.64229297739774  0.18040572797280
 6 -4.87499211721172 -2.03873505190519  0.63447998069807
 6 -4.85075500440044  2.74162260956096  1.11410777567757
 6 -9.39379411491149  3.08688418391839 -0.41984484418442
 6 -9.46052636633663 -1.77337284828483 -0.87249367846785
 7 -5.10276370097010  0.34688450655066  0.73605402370237
 6 -4.34346405250525 -0.77757757975798  0.88015603880388
 6 -2.87626663206321 -0.42097152285229  1.23178353255326
 6 -3.02547598599860  1.07851051935194  1.62324305500550
 6 -4.41063805870587  1.50307105590559  1.06457348724873
 6 -2.99049413151315  1.25403769186919  3.11344275317532
 6 -1.90490395139514 -0.63651891329133  0.00566452475248
 6 -0.52541996459646 -0.39591393859386  0.39728385768577
 6  0.47677881508151 -0.62643615651565 -0.67531291179118
 8  0.26269750985098 -0.97813322092209 -1.80583691539154
 8  1.77661947244724 -0.45099249564957 -0.21671846074607
 7 -7.04455490339034  2.61682727252725  0.28902759825983
 6 -6.04453373237324  3.37776875267527  0.66509004260426
 6 -6.42161941504150  4.82534682408241  0.65190587778778
 6 -7.71025373237324  4.92448307980798  0.35276366766677
 6 -8.11820609220922  3.51938113341334  0.07848039433943
 6 -5.41721967866787  5.85953841974197  1.07534229472947
 6 -8.56587438503850  6.04548558225823  0.08009499489949
 6 -8.38903279457946  7.18975509410941  0.74199044884488
 7 -9.12914518711871  0.59823268436844 -0.50521455515552
 6 -9.89196545624562  1.75981593469347 -0.64246057015702
 6 -11.26922601920192  1.39181752085208 -0.99197091659166
 6 -11.22202460636064  0.06769213331333 -1.13189190319032
 6 -9.90002568326833 -0.43408538283828 -0.86426144224422
 6 -12.25018384208421  2.51531210221022 -1.49067584238424
 6 -12.33248779507951 -0.77442485258526 -1.65252606110611
 6 -12.27970545894589 -1.05931834303430 -3.16116123472347
 7 -7.23312278057806 -1.34660427402740 -0.05499017601760
 6 -8.17804804460446 -2.22708788088809 -0.54165912111211
 6 -7.76904304990499 -3.62588085558556 -0.51009828712871
 6 -6.49097298139814 -3.51291562856286 -0.07907963986399
 6 -6.16626922332233 -2.16692497379738  0.23074587878788
 6 -8.57483495089509 -4.76272911531153 -0.90378885728573
 6 -5.35145961626163 -4.42895677917792  0.22382525512551
 8 -5.28001683958396 -5.64069855325533  0.20104713541354
 6 -4.12579615901590 -3.30804659445945  0.63040290559056
 6 -3.61027165806581 -3.67608282958296  1.99844021692169
 8 -3.84197579817982 -3.08896563276328  3.00429311041104
 8 -2.87522871657166 -4.83947867026703  1.87184576547655
 6 -2.40802139003900 -5.28906313541354  3.10915585108511
 6  2.67558006970697 -0.55837363196320 -1.32365356575658
 6  4.05643773277328 -0.38964714101410 -0.60301045004500
 6  5.06166965136514  0.34828109350935 -1.10652042474247
 6  5.02081050405040  1.16317896719672 -2.25517968326833
 6  6.36786111891189  0.43395524572457 -0.32704919011901
 6  7.57956549444945 -0.19835018191819 -1.11115806630663
 6  8.83017489008901 -0.14131926232623 -0.28560037283728
 6  10.22799342384238 -0.57277434913491 -0.99738070857086
 6  10.25526222642264 -2.04207514361436 -1.36658012301230
 6  11.39491236813681 -0.33737751855186 -0.00962009340934
 6  12.86431133883388 -0.52248629972997 -0.67332735563556
 6  14.03137260566057 -0.15931713451345  0.18463553105311
 6  15.34803092799280 -0.08413214231423 -0.52229046884688
 6  15.81632330123012 -1.43955158895890 -1.06216583428343
 6  16.39152325822582  0.44390875087509  0.38364287148715
 6  17.78813340274027  0.72737413581358 -0.15064087868787
 6  18.85396576607661  1.29374759175918  0.86505693869387
 6  20.31279994919492  1.33127346084608  0.41372613581358
 6  20.35901725552555  2.20299859705971 -0.89668066076608
 6  21.26311724252425  1.76243918021802  1.44337970137014
 1 -3.95660714521452  3.32870839223922  1.42879746664666
 1 -9.94943533623362  3.88740957595760 -0.60776616811681
 1 -10.22272556195620 -2.34436377717772 -1.32494914711471
 1 -2.55763222012201 -1.04839315321532  1.90426111731173
 1 -2.25088869406941  1.87313089568957  1.18937958835884
 1 -2.11891634913491  0.78681913481348  3.67997171067107
 1 -3.13684874487449  2.23675773327333  3.56455862126213
 1 -3.72928637133713  0.68896358035804  3.59447185998600
 1 -2.16119860476048 -1.64316427682768 -0.34726863606361
 1 -2.15054672717272 -0.07006975657566 -0.87615765536554
 1 -0.28067158455846  0.60137475137514  1.03784418351835
 1 -0.22479028102810 -1.15128964416442  1.25033898909891
 1 -5.79197797319732  6.68340698479848  0.65604131333133
 1 -5.44178116751675  6.31892525562556  2.13697999509951
 1 -4.38778273427343  5.62588375477548  1.19253242884288
 1 -9.42072412491249  5.98876502460246 -0.59083931213121
 1 -8.96940815671567  8.10854159305931  0.59136875867587
 1 -7.54777424322432  7.36497289678968  1.41574996049605
 1 -11.76409051415141  3.18982930893089 -2.28119112381238
 1 -13.31139080828083  2.12481637283728 -1.49266045754575
 1 -12.31650338143814  3.24493314801480 -0.71988323232323
 1 -12.60824560296030 -1.63031247634764 -1.14424937983798
 1 -13.27023574247425 -0.13543027982798 -1.43378890639064
 1 -13.17095344794479 -1.87276196239624 -3.50726061056106
 1 -12.57594115831583 -0.19141367896790 -3.80529402510251
 1 -11.24099037833783 -1.51324619171917 -3.39197781778178
 1 -8.88964856785679 -4.60578132103210 -1.91049431353135
 1 -7.79044840964096 -5.54968497269727 -0.90531014401440
 1 -9.39120900580058 -4.83816883818382 -0.17687951055106
 1 -3.36901759765977 -3.53916716741674 -0.27563283478348
 1 -1.61991015751575 -4.82001844154415  3.68810172547255
 1 -3.29551916051605 -5.40717233483348  3.96641948084809
 1 -1.97819593109311 -6.32896216941694  2.89084303720372
 1  2.82644194829483 -1.50923275917592 -1.88228219321932
 1  2.33577105470547  0.22283656325633 -2.05418857105711
 1  4.26863776937694 -0.97632984818482  0.22453566956696
 1  3.99903886738674  1.26080479087909 -2.74491286098610
 1  5.32454786648665  2.07446770567057 -2.31352782098210
 1  5.68057536513651  0.73543465096510 -2.96471520252025
 1  6.64999706260626  1.57298129812981  0.02424506730673
 1  6.27779189858986  0.05678764136414  0.69762947964796
 1  7.34361174587459 -1.33185242044204 -1.52444376797680
 1  7.66593902980298  0.49348255635564 -2.00612353595360
 1  9.20919297089709  0.78314619961996  0.29833746594660
 1  8.55825431413141 -0.81298680488049  0.34668253195320
 1  10.21809936133613 -0.01090855315532 -1.81046593609361
 1  9.50359534503450 -2.21150912741274 -2.05882180698070
 1  11.27535009070907 -2.17811459535954 -1.74553879777978
 1  10.32399528552855 -2.86466840884088 -0.51449088878888
 1  11.36110379127913  0.58709093929393  0.67236872437244
 1  11.35241829522952 -1.05863182448245  1.00387100870087
 1  12.95571889078908 -1.62179034023402 -1.25182284988499
 1  12.52155590809081  0.31508219921992 -1.61782514381438
 1  13.93830526722672  0.75786834283428  0.72948029102910
 1  14.15402815591559 -0.92213181788179  1.06225274177418
 1  15.21511479998000  0.69655914091409 -1.39990434843484
 1  16.02180962386239 -2.05879617171717 -0.25464691859186
 1  15.09397244794479 -1.77990036563656 -1.74659207430743
 1  16.66105573497350 -1.41485701060106 -1.66728819831983
 1  16.06912211291129  1.34942277597760  1.07260380468047
 1  16.21243569076908 -0.28431760686069  1.22565532673267
 1  18.06833777247725 -0.32100864826483 -0.45126846724672
 1  17.77013407790779  1.45332265116512 -1.00310388618862
 1  18.41268206080608  2.29648380608061  1.12914091939194
 1  18.89113627392739  0.84557873887389  1.85299529982998
 1  20.58167308000800  0.35209135733573  0.18665572957296
 1  20.10378448504850  3.18476203810381 -0.75557915131513
 1  21.40007425952595  2.26630328312831 -1.22766412971297
 1  19.75480938533854  1.88546035683568 -1.87733470247025
 1  21.22222819801980  1.10464857395740  2.29286890409041
 1  22.25483719001900  1.89276050575058  1.05725069136914
 1  20.84219394929493  2.72985306860686  1.82121256175618

