%nproc=4
%Mem=2GB
# td=(NStates=1) CAM-B3LYP/6-31G(d,p) 

TD

0 1
12 -7.16001657465747  0.65620436853685  0.04397208460846
 6 -4.80700531853185 -1.93145432383238  0.45574210691069
 6 -4.83554348324833  2.88858730603060  1.11910827572757
 6 -9.50218495399540  3.09139463496350 -0.28842170187019
 6 -9.51846215991599 -1.77202271327133 -0.81768819791979
 7 -5.05528895349535  0.49402922102210  0.60093051135114
 6 -4.42151185728573 -0.66596641864186  0.73766178937894
 6 -2.91902090749075 -0.32695212091209  1.15140549474947
 6 -3.00102354075408  1.01025369366937  1.62063279397940
 6 -4.40730772567257  1.54112486128613  1.09504653455346
 6 -3.03743882598260  1.31075336343634  3.10200160906091
 6 -1.83505696669667 -0.62003726512651  0.00745470377038
 6 -0.51027845044504 -0.36716106330633  0.46025015431543
 6  0.49523066026603 -0.52490600350035 -0.57853323382338
 8  0.24609584968497 -0.75175058265827 -1.80905723742374
 8  1.78246005650565 -0.33928132453245 -0.23582037093709
 7 -7.14119456735674  2.58964455425543  0.38463715921592
 6 -6.17669694869487  3.40211118691869  0.83673720732073
 6 -6.58234548764876  4.78723301270127  0.82301298849885
 6 -7.90664337133713  4.78923955545554  0.36869526082608
 6 -8.17675194679468  3.38936813211321  0.11881442774277
 6 -5.62591054775478  5.84742720862086  1.22131689218922
 6 -8.63603140074007  5.99809084278428  0.16635362076208
 6 -8.47568145944594  7.20337645624562  0.78103435323532
 7 -9.16643891649165  0.60929379047905 -0.34548858255826
 6 -9.99249550925092  1.78402835593559 -0.60232655675568
 6 -11.30049914651465  1.39948828792879 -1.14216593609361
 6 -11.22675507940794 -0.00924556045605 -1.24174288828883
 6 -9.90904658535853 -0.44288626292629 -0.76031104720472
 6 -12.38799762346235  2.28380895189519 -1.55490226502650
 6 -12.39645419171917 -0.88104551465147 -1.69668047654766
 6 -12.31805929432943 -1.32705511671167 -3.13253837243724
 7 -7.24109357765777 -1.42588220182018 -0.16754143114311
 6 -8.30862110191019 -2.20587575967597 -0.47839279447945
 6 -7.78694484008401 -3.57997626512651 -0.51538881618162
 6 -6.47789167326733 -3.42116645364536 -0.06198793069307
 6 -6.18681127752775 -2.14668294959496  0.04135693989399
 6 -8.64746221362136 -4.81625446784679 -0.73781225962596
 6 -5.30158462876288 -4.28199208270827  0.15185805840584
 8 -5.13620245814581 -5.50825530893089  0.00530756145615
 6 -4.15068864826483 -3.28787457725773  0.66738660396040
 6 -3.47150778167817 -3.58346356765677  1.93919429232923
 8 -3.80461206180618 -3.07311404760476  2.96015869696970
 8 -2.67025821952195 -4.68826354875488  1.68628720962096
 6 -2.15180576847685 -5.21830605970597  3.00316525202520
 6  2.89549206090609 -0.58831662626263 -1.24691589198920
 6  4.14085617461746 -0.29208738503850 -0.57855800480048
 6  5.21305478987899  0.40435670107011 -0.98182795549555
 6  5.21887031003100  1.04673732303230 -2.32802696799680
 6  6.46937126992699  0.48142999319932 -0.15480196539654
 6  7.65638317621762 -0.13165351225123 -0.99149610011001
 6  8.93141501410141 -0.11865699609961 -0.16770858365837
 6  10.25054567906791 -0.56838391009101 -0.83484445494549
 6  10.19399609980998 -2.12369330543054 -1.27333079807981
 6  11.41868474537454 -0.19697347814781  0.12135300390039
 6  12.72687759545954 -0.43834788588859 -0.59526954985499
 6  13.99259872827283 -0.08304950775077  0.23269033653365
 6  15.34244036893689 -0.23922765186519 -0.33385162496250
 6  15.68788045694569 -1.70332796659666 -0.75727534523452
 6  16.44775888178818  0.24105846584658  0.54622913011301
 6  17.79895448484848  0.47333873227323 -0.17881369596960
 6  18.90156052555255  1.18912712971297  0.69093952695270
 6  20.32056072527253  1.29061939543954  0.05489025222522
 6  20.39024037783778  2.14341263846385 -1.18731972467247
 6  21.31925285608561  1.74464740104010  1.22138750215021
 1 -4.16783826832683  3.56034155555556  1.65978056495650
 1 -10.17630802350235  3.95925676067607 -0.72068746024602
 1 -10.42990628002800 -2.36498583938394 -1.11148780098010
 1 -2.68532498939894 -1.01717003090309  2.12860355155516
 1 -2.30464406960696  1.48050163276328  1.19166981738174
 1 -2.12598705620562  0.86468692159216  3.50782449594959
 1 -3.19683474347435  2.47490154765477  3.38316048144815
 1 -3.85454889758976  0.65434011801180  3.64941735453545
 1 -1.96647913281328 -1.63636359675968 -0.52676658585859
 1 -1.96510818331833  0.20197744814481 -0.80816085568557
 1 -0.25650916831683  0.54038865276528  0.94488488758876
 1 -0.21873967596760 -1.03004751995200  1.30669462466247
 1 -5.76410518591859  6.84460310441044  0.66476218541854
 1 -5.68670565996600  6.15589895299530  2.34851114821482
 1 -4.48869282528253  5.56804797119712  0.88729190479048
 1 -9.39190124262426  5.95520166826683 -0.68593882208221
 1 -9.14749596549655  8.05235597449745  0.53802342414241
 1 -7.89545901170117  7.20959735923592  1.67905629112911
 1 -11.96684078917892  2.86301662766277 -2.45642864756476
 1 -13.53763343254325  1.60139403060306 -1.64101529302930
 1 -12.63646537763776  2.95712436713671 -0.84669591359136
 1 -12.43122790119012 -1.75115456055606 -0.94611956685668
 1 -13.47237595649565 -0.34707144394439 -1.66335186268627
 1 -13.05612196479648 -2.00365505170517 -3.71986187068707
 1 -12.25611917611761 -0.40845538313831 -3.83059655535554
 1 -11.30014629392939 -1.69282414951495 -3.17657627762776
 1 -9.39035863886389 -4.72228297119712 -1.74073733783378
 1 -7.85123448824882 -5.76995699989999 -1.20924053705371
 1 -9.25969585448545 -4.95287030833083  0.21799997739774
 1 -3.33756445234523 -3.31227447814782 -0.10088536003600
 1 -1.57648581508151 -4.47372381208121  3.54090700600060
 1 -2.89467907650765 -5.33827544514452  3.73867670657066
 1 -1.41182929442944 -6.01348062126213  2.74809876277628
 1  2.95916522062206 -1.75751758765877 -1.60117408240824
 1  2.63257073467347  0.02461674127413 -2.18694184638464
 1  4.14814572017202 -1.02914512971297  0.38703191919192
 1  4.14553351685169  1.20686939733973 -2.81741011071107
 1  5.72662807450745  2.13388364726473 -2.27825429362936
 1  6.02379968756876  0.63786489398940 -3.16931566256626
 1  6.60094215711571  1.53276727672767  0.04690733353335
 1  6.33469758915892 -0.11936997439744  0.80529024572457
 1  7.28354573927393 -1.05269450465046 -1.31077240084008
 1  7.80245268116812  0.32455566366637 -2.05749867346735
 1  9.19418146974697  1.04241212621262  0.12870050225023
 1  8.75074356305631 -0.76128163436344  0.57917578127813
 1  10.43835138653865  0.08429096679668 -1.73266815631563
 1  9.31184617011701 -2.37908588508851 -1.84121004580458
 1  11.04130668636864 -2.30072685658566 -1.86316055995600
 1  10.34664755075508 -2.74783672567257 -0.50558999869987
 1  11.51188886978698  0.80169239943994  0.39829131663166
 1  11.53059611301130 -0.90085604690469  0.91445206680668
 1  12.91838515741574 -1.44732289348935 -0.69528719631963
 1  12.89528328082808  0.21605229622962 -1.38617197849785
 1  13.98653008970897  1.12151470747075  0.39321666466647
 1  13.99373212631263 -0.59772937763776  1.31578809530953
 1  15.38259154765476  0.33207269226923 -1.19838419641964
 1  15.66455389828983 -2.40088038013801  0.30104865096510
 1  14.84032708340834 -2.17910028562856 -1.32116953205321
 1  16.65767539693969 -1.61073659855986 -1.20105157465747
 1  16.01492669336934  1.08679651335133  0.94231077537754
 1  16.58679312651265 -0.36505568066807  1.53308606980698
 1  18.32232317101710 -0.64553110051005 -0.25982932333233
 1  17.63448051255126  0.96683400230023 -1.00530410621062
 1  18.62942373497350  2.17351150885089  1.01572957825783
 1  18.81529869016902  0.60172435343534  1.77571757205721
 1  20.80784569726973  0.28405455365537 -0.25386832283228
 1  20.00381448804880  3.14215777767777 -0.75098869226923
 1  21.35020927302730  2.24165081788179 -1.59338070137014
 1  19.67276118051806  1.81269308010801 -1.77127409640964
 1  21.19888586378638  1.10530863996400  2.04517413461346
 1  22.40113181948195  1.93976520622062  0.91203616991699
 1  21.22346207610761  2.78626871017102  1.42929336983698

