%nproc=4
%Mem=2GB
# td=(NStates=1) CAM-B3LYP/6-31G(d,p) 

TD

0 1
<<<<<<< HEAD
12 -7.11728230123012  0.60286903500350  0.06586427382738
 6 -4.92609722772277 -1.94923610201020  0.33741027372737
 6 -4.78163809270927  2.75209365666567  1.11207757265727
 6 -9.38410314581458  3.13858935443544 -0.38747160686069
 6 -9.58395870957096 -1.71986749774978 -0.83225965506551
 7 -5.15187861246125  0.40398021612161  0.68372879117912
 6 -4.38331803790379 -0.75679550155015  0.69803782698270
 6 -2.91440044544454 -0.52455188088809  1.07383773797380
 6 -2.96378981738174  1.06010867916792  1.57615834653465
 6 -4.35085208010801  1.46168691749175  0.99445647554755
 6 -2.98833391549155  1.03809609770977  3.15319672857286
 6 -1.91363482448245 -0.67031229262926 -0.08880492219222
 6 -0.51762918551855 -0.39941428862886  0.42112624192419
 6  0.53809494669467 -0.67995150805081 -0.62625800630063
 8  0.27319855995600 -0.97735314291429 -1.79901623332333
 8  1.80828263876388 -0.64443183958396 -0.09904669356936
 7 -7.20049049694970  2.61452704250425  0.38439713521352
 6 -6.07640691969197  3.31148212401240  0.78398193179318
 6 -6.43217047014701  4.82025631503150  0.83361404860486
 6 -7.71568427542754  4.86747737923792  0.35671406270627
 6 -8.14723899549955  3.54081327662766  0.04801734803480
 6 -5.44161211791179  5.87048951485149  1.24801956245625
 6 -8.54532232983298  6.07156819051905  0.04219120452045
 6 -8.43351724302430  7.17203332193219  0.65900215001500
 7 -9.11684395699570  0.76096895799580 -0.54273830753075
 6 -9.86951321102110  1.87331728482848 -0.65091141524152
 6 -11.27934703130313  1.59993833293329 -1.08101982148215
 6 -11.26789919381938  0.22096746084608 -1.28579729372937
 6 -9.95870155085509 -0.30183215751575 -0.90019503560356
 6 -12.31544036773677  2.53645421642164 -1.25606238103810
 6 -12.45679022532253 -0.69635704580458 -1.70236104460446
 6 -12.34111159955996 -1.00324273547355 -3.23611873047305
 7 -7.19171864016402 -1.32891250485049 -0.23053773077308
 6 -8.28985922572257 -2.25261043314331 -0.49081403660366
 6 -7.93884002960296 -3.59811807930793 -0.44580185748575
 6 -6.56642052615262 -3.58439277627763 -0.05498723062306
 6 -6.21327392379238 -2.12095037633763  0.00614341854185
 6 -8.73116058345835 -4.87902074447445 -0.73116159455946
 6 -5.36353082338234 -4.38469235273527  0.28240111271127
 8 -5.22197103500350 -5.56217070047005  0.27247427812781
 6 -4.28400197959796 -3.33948973877388  0.51734159945995
 6 -3.65885651655166 -3.70831605290529  1.89853022592259
 8 -3.72201380198020 -3.10976771297130  2.93982666376638
 8 -2.88555974967497 -4.72745746814681  1.81012959385939
 6 -2.39007959585959 -5.41935616471647  2.98113304880488
 6  2.84041655335534 -0.76609440404040 -1.22006320672067
 6  4.13421551055105 -0.47459563586359 -0.45344549354935
 6  5.20835431983198  0.17722398779878 -0.95186495919592
 6  5.18502692569257  1.11152380168017 -2.16966113141314
 6  6.46408074087409  0.28579042924292 -0.09462594779478
 6  7.70445798369837 -0.18231857875788 -0.92971992249225
 6  9.05384725732573 -0.20376550695070 -0.11298311111111
 6  10.24496512101210 -0.65298236993699 -0.86986795729573
 6  10.29720642084208 -2.14363529962996 -1.18799226422642
 6  11.48706158305831 -0.29849363016302  0.07908877747775
 6  12.79790469816982 -0.49513356445645 -0.55163518641864
 6  14.07060652905290 -0.12288349114911  0.26898396589659
 6  15.36311243614361 -0.13738746784678 -0.43427166696670
 6  15.71226289518952 -1.53056068986899 -0.79641925962596
 6  16.46615072097210  0.46549090909091  0.41781628882888
 6  17.89256384578458  0.61597299569957 -0.20784659925993
 6  18.85612598209821  1.43160137713771  0.62569300230023
 6  20.28042671187119  1.52644297779778  0.09983474667467
 6  20.37508886268627  2.30109840704070 -1.26479747244724
 6  21.19560049084908  2.08376131243124  1.22238760216022
 1 -3.98446993149315  3.40482600400040  1.40618520542054
 1 -10.09070946364636  4.06245708070807 -0.62977836933693
 1 -10.33871716111611 -2.40358969976998 -0.98119477167717
 1 -2.64577103400340 -1.17461577547755  1.98999969116912
 1 -2.20527413261326  1.67981156375638  1.02358300870087
 1 -2.04041849934994  0.75860631353135  3.70673438693869
 1 -3.17672273227323  2.26085014251425  3.50041220662066
 1 -3.90246368906891  0.38184286828683  3.44736714951495
 1 -1.85049753465347 -1.70056001640164 -0.40196410561056
 1 -2.27819949244924  0.13948119851985 -0.66937697729773
 1 -0.35766928432843  0.69813442734273  0.71232163126313
 1 -0.20909871187119 -1.06841135633563  1.27133108830883
 1 -5.74648342374237  6.78463710781078  0.63144885408541
 1 -5.40527751715172  6.04710807390739  2.30253655075507
 1 -4.43495745174517  5.51836300270027  0.83201637723772
 1 -9.47057911041104  5.81350749884989 -0.64322455065507
 1 -9.09375059095909  7.81121186008601  0.44900452225223
 1 -7.70904036983698  7.35361176067607  1.44028241374137
 1 -11.93484758985899  3.09835016101610 -1.93254625932593
 1 -13.12200186938694  1.95665955715572 -1.50998218971897
 1 -12.65083681478148  3.14106276097610 -0.33067431143114
 1 -12.43478825722572 -1.55023446854685 -1.36648160306031
 1 -13.36165488438844 -0.22754949174917 -1.42387791529153
 1 -12.97069342194219 -1.73642832903290 -3.51185106960696
 1 -12.47750131433143 -0.04935947354735 -3.86037953365337
 1 -11.28741502080208 -1.21389625672567 -3.34105272527253
 1 -8.91250085308531 -4.74428517141714 -1.91388465256526
 1 -7.94496386118612 -5.70151015521552 -0.22064167716772
 1 -9.62719260416042 -4.77728274957496 -0.17951977457746
 1 -3.49960065596560 -3.67185043574357 -0.09104437593759
 1 -2.10070823732373 -4.58823526322632  3.72442535783578
 1 -3.26706631523152 -6.16768838643864  3.32344518341834
 1 -1.48612672417242 -5.88466773997400  2.58209216211621
 1  2.72106141024102 -1.82989482538254 -1.55577954295429
 1  2.69791726932693 -0.11972769316932 -2.10965411761176
 1  3.95421632723272 -0.79233144834483  0.70845406140614
 1  4.00674963846385  1.28701741214121 -2.23009137883788
 1  5.61529694139414  2.22519277817782 -1.90955742394239
 1  5.79269657725773  0.46917802530253 -2.81671040204020
 1  6.54424648754875  1.39129312931293  0.27683032583258
 1  6.28513263266327 -0.24102213961396  0.84208392509251
 1  7.67119450415042 -1.28147738293829 -1.33225454905490
 1  7.96003843974397  0.31879508760876 -1.89918284188419
 1  9.25777782938294  0.75070295529553  0.26476410861086
 1  8.80326881558156 -0.72923843004300  0.84150201390139
 1  10.33178072947295  0.15576811451145 -1.73156804630463
 1  9.57094207970797 -2.37767574407441 -1.92427835263526
 1  11.29934248994899 -2.61103788768877 -1.30066431033103
 1  9.83123600960096 -2.60627256925693 -0.34752419211921
 1  11.31921960286029  0.68281051125113  0.18205969346935
 1  11.31044409780978 -0.78859482078208  0.97302792439244
 1  12.94610792969297 -1.58091625282528 -0.84207187478748
 1  12.79547329982998  0.09178986998700 -1.57515087638764
 1  13.96921835853585  0.98870142614261  0.59168651165117
 1  13.75317807090709 -0.98372797749775  1.01839835633563
 1  15.09456274477448  0.56962644764476 -1.43340769876988
 1  15.71220866376638 -1.96035632773277  0.17002554865487
 1  15.11698474917492 -1.81915429102910 -1.56586400150015
 1  16.66247587698770 -1.77804332923292 -1.03438490799080
 1  16.05201040174017  1.51375920962096  0.86267281158116
 1  16.51055550275028 -0.18708788388839  1.34294705590559
 1  18.21859279797980 -0.40513706110611 -0.44013735413541
 1  17.83161022552255  0.96533385228523 -1.16434000980098
 1  18.64478527112711  2.46842099979998  0.75522352765277
 1  18.86911407170717  1.04293847484748  1.70182018231823
 1  20.80224513721372  0.50714686288629 -0.09036197219722
 1  19.78042214881488  3.29573313521352 -0.97704129752975
 1  21.49665391749175  2.30388704150415 -1.36491785508551
 1  19.90528443284328  1.69783159395940 -2.06313328232823
 1  21.24414038923893  1.69342745184518  2.24788440564056
 1  22.26019772607260  2.12251348104810  0.96290125642564
 1  20.89966969686969  3.18236832013201  1.31135157565757
=======
12 -7.16522709570957  0.56333508160816  0.11015870327033
 6 -4.79817443544354 -1.94101527992799  0.66411294399440
 6 -4.77664759365937  2.84605305260526  1.12432879777978
 6 -9.25842057755776  3.04675017051705 -0.28054091379138
 6 -9.43271358505851 -1.71824733573357 -0.83966039513951
 7 -4.97195061966197  0.45901571967197  0.78576899519952
 6 -4.32635234133413 -0.73524334633463  0.90793881708171
 6 -2.91912091749175 -0.40772019771977  1.28321867606761
 6 -2.99015245364536  1.18253092139214  1.68084881558156
 6 -4.32308930383038  1.57321807060706  1.14549157905791
 6 -2.98237331943194  1.28534082218222  3.11231264016402
 6 -1.95041850285028 -0.58877413881388  0.01905586388639
 6 -0.49941736433643 -0.35717006420642  0.47120124942494
 6  0.43368450565057 -0.63498701160116 -0.64882026252625
 8  0.19857109720972 -1.01949735733573 -1.72585891759176
 8  1.72739454995500 -0.35777317371737 -0.22821961086109
 7 -7.00625107300730  2.64217980778078  0.19635833133313
 6 -6.00030930993099  3.31290226602660  0.83261679527953
 6 -6.34660191329133  4.71287557695770  0.77831851905191
 6 -7.71495420242024  4.81137176867687  0.33774216551655
 6 -8.08100237183718  3.49825902120212 -0.04405185888589
 6 -5.48753671037104  5.92218468436844  1.12336709720972
 6 -8.46853465106511  5.97685871957196  0.22804979037904
 6 -8.43476736803680  7.14650076867687  0.90143639343934
 7 -9.09536180878088  0.75522838393839 -0.58213224692469
 6 -9.77583384308431  1.78046799989999 -0.67587391149115
 6 -11.11162025862586  1.42991133023302 -1.08594031353135
 6 -11.17234963886389  0.03682904700470 -1.21424013801380
 6 -9.78941462216222 -0.36138811311131 -0.94353937003700
 6 -12.22927175087509  2.42393296429643 -1.45540231503150
 6 -12.33718826512651 -0.68831624172417 -1.73572438093809
 6 -12.13627111551155 -1.04319673087309 -3.19265438403840
 7 -7.19312878117812 -1.37410702430243 -0.20573525052505
 6 -8.25364560436044 -2.28918409050905 -0.52691764696470
 6 -7.82825897149715 -3.64852311981198 -0.56825410271027
 6 -6.46916080018002 -3.57096143314331 -0.13621535343534
 6 -6.16258885528553 -2.15088336963696  0.17889069326933
 6 -8.67852531993199 -4.78145098749875 -0.86761523992399
 6 -5.36681115141514 -4.41343522702270  0.25881875447545
 8 -5.15503434133413 -5.56333081648165  0.30755778647865
 6 -4.19841342074207 -3.26676246604660  0.56234609990999
 6 -3.50355098599860 -3.68272349364937  1.92557293019302
 8 -3.69300090069007 -3.17803453965397  3.08312099319932
 8 -2.66952814651465 -4.75485020742074  1.75858443934393
 6 -2.02509309720972 -5.23020724982498  2.98460339583958
 6  2.65717822952295 -0.78568636323632 -1.17598879927993
 6  4.09333142214221 -0.49365754205421 -0.70129027802780
 6  5.07169065346535  0.39244550995099 -1.13112288498850
 6  5.00047847084708  1.04262691199120 -2.40791495679568
 6  6.42532686548655  0.42436428662866 -0.46809329452945
 6  7.63483102100210 -0.22713306020602 -1.12026897739774
 6  8.90171204380438 -0.06886201660166 -0.26030784358436
 6  10.18092871737174 -0.59910698239824 -0.97487845834583
 6  10.09846654685468 -2.00825176127613 -1.34729819481948
 6  11.36284916181618 -0.18475225602560 -0.00072920432043
 6  12.75777068476848 -0.60135418651865 -0.63434345724572
 6  13.88738820722072 -0.15087629042904  0.19930699819982
 6  15.31607773267327 -0.17818154725473 -0.41436967676768
 6  15.65331700060006 -1.64136176997700 -0.89094871257126
 6  16.34205831173117  0.43691805180518  0.51237574477448
 6  17.71661625102510  0.55107650605060 -0.11843765836584
 6  18.72213258275828  1.26516473347335  0.86418685168517
 6  20.13591226042604  1.32867320082008  0.33961872507251
 6  20.04520587438744  2.21306960416042 -0.96242723542354
 6  21.01072200300030  1.90824376067607  1.29408477187719
 1 -4.03722520702070  3.54552007340734  1.59823441034103
 1 -10.11454184688469  3.75080591559156 -0.37209260076008
 1 -10.17197048644864 -2.63602294309431 -1.03583023522352
 1 -2.44522097899790 -0.96001431533153  2.20197088828883
 1 -2.21140474567457  1.88854243684368  1.04354500490049
 1 -1.88457291479148  0.67253770667067  3.50640435393539
 1 -2.92155721572157  2.21566562406241  3.64752691809181
 1 -3.97458090079008  0.74858954295430  3.43525593839384
 1 -1.93827631253125 -1.70724068446845 -0.27795170437044
 1 -2.22162383488349 -0.00611336093609 -0.84698473807381
 1 -0.38368188558856  0.59114372827283  0.95519591869187
 1 -0.35299310131013 -1.15065958115812  1.11455541074107
 1 -5.82480125552555  6.97801644574457  0.51890759996000
 1 -5.52875986538654  6.16837020012001  2.08846514361436
 1 -4.38308226422642  5.76090725712571  0.68993216881688
 1 -9.31584363686369  6.13371952005201 -0.36611683988399
 1 -9.01760297619762  7.94876561546155  0.51833145494550
 1 -7.78966843264326  7.27186358585859  1.71835022052205
 1 -12.13200730583058  3.29285961196120 -2.40840384508451
 1 -13.14253392259226  1.96197008820882 -1.67375856735674
 1 -12.43427515861586  2.98557721242124 -0.63375461946195
 1 -12.42867764616462 -1.66618606370637 -1.10643559845985
 1 -13.18594731363136 -0.01173791059106 -1.54786031353135
 1 -13.11379773237324 -1.70400508670867 -3.35652553705371
 1 -12.07489105330533 -0.13303784138414 -3.93584708040804
 1 -11.30572685198520 -1.45602046914692 -3.27149576957696
 1 -9.02658226122612 -4.88221896479648 -1.84660792489249
 1 -8.27813717851785 -5.78344834903490 -0.81714132713271
 1 -9.59108899379938 -4.84522954425443 -0.14725654825482
 1 -3.51021171707171 -3.45124837553755 -0.29358462996300
 1 -1.37495566206621 -4.37645408510851  3.47596051135114
 1 -2.78970857945795 -5.57796941454145  3.60894373327333
 1 -1.32605071657166 -6.10921019421942  2.52167612051205
 1  2.60424972907291 -1.94628646454645 -1.30050401540154
 1  2.57093457105711 -0.39148486888689 -2.24595774797480
 1  4.16657756335634 -0.94035625082508  0.16258947494749
 1  3.83103206670667  1.06453516391639 -2.86881525122512
 1  5.40258567026703  1.99843010191019 -2.37881434963496
 1  5.61765907350735  0.71981308880888 -3.32433116411641
 1  6.49162122502250  1.56323032303230 -0.35920327752775
 1  6.07185130453045 -0.04567260466047  0.56445616231623
 1  7.15529291399140 -1.35069430463046 -1.15161648524852
 1  7.84264670057006  0.28021122922292 -1.98590151375137
 1  8.93691574317432  1.01490937593759 -0.18538090589059
 1  8.78126661536154 -0.37477298349835  0.91261912561256
 1  10.13274082548255  0.22215475317532 -1.76858174767477
 1  9.11814680018002 -2.47070504700470 -1.95128105290529
 1  11.02101465716572 -2.40881766566657 -1.91305554945495
 1  10.01491437743774 -2.40108205020502 -0.32618205790579
 1  11.28468614951495  0.99172140234023  0.19500098759876
 1  11.25420847424743 -0.60163612491249  0.99287990959096
 1  12.58881220012001 -1.69471763296330 -0.82330999859986
 1  13.00569432193219  0.02738342934293 -1.75437879917992
 1  13.59570100680068  0.97585014101410  0.47533487648765
 1  13.81434418751875 -0.57170677537754  1.21542805930593
 1  15.28817210571057  0.48124760976098 -1.39405376337634
 1  15.24103154605461 -2.32688298039804  0.01495004110411
 1  15.03952700340034 -2.02763513911391 -1.79475689078908
 1  16.72519214861486 -1.71843736863686 -1.15809727922792
 1  16.03221842254225  1.41862969666967  0.74892143644364
 1  16.86252069926993 -0.31740091519152  1.36917967916792
 1  17.97126806550655 -0.44681122852285 -0.58078141854185
 1  17.60741780628063  1.47617493639364 -0.83038661446145
 1  18.54209500210021  2.41600575827583  1.02114011931193
 1  18.76185334563456  0.53962814381438  1.74629462976298
 1  20.43235814851485  0.22229837803780  0.21415847984798
 1  19.74027813441344  3.20204376627663 -0.81007460086009
 1  20.89410366246625  2.24798145094509 -1.46771813511351
 1  19.34675858025803  1.72221403220322 -1.56926389538954
 1  21.31028700390039  1.47542565166517  2.29808942614261
 1  21.96158786508651  2.31559278897890  0.94703967026703
 1  20.48953868376838  2.99050913421342  1.68656909740974
>>>>>>> 8e03b5b5abfc0030b3aa597dc0de36371bfbd096

