%nproc=4
%Mem=2GB
# td=(NStates=1) CAM-B3LYP/6-31G(d,p) 

TD

0 1
12 -7.22260283328333  0.58787753585359  0.05448313571357
 6 -4.89557417541754 -1.94258543694369  0.53722025472547
 6 -4.75103503240324  2.87260570787079  1.02017838273827
 6 -9.47270200570057  3.15844133963396 -0.39610246994699
 6 -9.47990830453045 -1.74774028502850 -0.86452288138814
 7 -5.16984040864086  0.47642746084608  0.74206462476248
 6 -4.35742544864486 -0.68611843384338  0.79689771297130
 6 -2.91299030443044 -0.38488791449145  1.25507586178618
 6 -3.14319775817582  1.15611828012801  1.76851758245825
 6 -4.49669666456646  1.48191894069407  1.12913994389439
 6 -3.10283536563656  1.23446573467347  3.34917632653265
 6 -1.89633309430943 -0.45213047444744  0.08234219251925
 6 -0.42932035463546 -0.42505685288529  0.55544967426743
 6  0.54166530373037 -0.62384589748975 -0.58084346484648
 8  0.18277951805181 -0.90916632423242 -1.65912224392439
 8  1.70786259675968 -0.33546094249425 -0.16452324122412
 7 -7.16688713661366  2.62345793559356  0.33417211271127
 6 -6.05066434543454  3.32503347914792  0.62730626422642
 6 -6.35782303540354  4.88307259665967  0.59403009020902
 6 -7.68423113011301  4.89977060856086  0.20875926722672
 6 -8.16802107370737  3.48526772207221  0.02203474977498
 6 -5.43686164286429  5.93018548444845  0.96784154465447
 6 -8.52122992059206  6.05867690139014  0.13665065046505
 6 -8.54190808210821  7.23882000060006  0.83474972477248
 7 -9.10639291189119  0.73345620672067 -0.50771480518052
 6 -9.94309056875688  1.84084403750375 -0.61083740784078
 6 -11.31908100470047  1.45340367946795 -1.09481120062006
 6 -11.25567797169717  0.10833619771977 -1.26457517151715
 6 -9.89294497519752 -0.42268424272427 -0.88853386948695
 6 -12.46996582028203  2.36763733473347 -1.28628540334033
 6 -12.36254080038004 -0.86848425852585 -1.56172698119812
 6 -12.36538402680268 -1.27589000020002 -2.97092221082108
 7 -7.17300676897690 -1.43487310091009 -0.15819049604961
 6 -8.21970221002100 -2.32161733383338 -0.56305126032603
 6 -7.79253539913991 -3.71709997749775 -0.51337861516152
 6 -6.44589847394740 -3.58173251025103 -0.19994172607261
 6 -6.15646824322432 -2.14656293759376  0.04010681488149
 6 -8.68757622502250 -4.92596543894389 -0.68145662406241
 6 -5.28866333663366 -4.35182906640664  0.10989386198620
 8 -5.19287812571257 -5.51964644804480  0.15286231693169
 6 -4.10344392379238 -3.34140993079308  0.49370923622362
 6 -3.50605123602360 -3.71312653395340  1.77911828472847
 8 -3.69469106970697 -3.17748448464846  2.84672735383538
 8 -2.74589578327833 -4.81147586998700  1.63288186908691
 6 -2.07277786568657 -5.18111234033403  2.87888282378238
 6  2.82944545624562 -0.61590938553855 -1.16611781218122
 6  4.16187827682768 -0.34131230753075 -0.45204535353535
 6  5.19366285068507  0.44632089748975 -0.97951772447245
 6  5.12471089408941  1.12285493479348 -2.29610377567757
 6  6.54128846164616  0.51123297349735 -0.23507999319932
 6  7.68113565146515 -0.27257760466047 -0.92843979447945
 6  8.95944781738174 -0.18717384778478 -0.11712352515252
 6  10.24006463096310 -0.61032810451045 -0.93393436393639
 6  10.21585828602860 -2.01971290739074 -1.30449391439144
 6  11.50231310821082 -0.13103688448845 -0.01628075947595
 6  12.80479538723872 -0.46369042014201 -0.72873289618962
 6  14.07091656005601 -0.21446264906491  0.22140920842084
 6  15.35955208010801 -0.22838656775678 -0.46295453525353
 6  15.55897756665667 -1.66864449824982 -0.94939455715572
 6  16.43223732963297  0.39416377637764  0.45628013521352
 6  17.75176976637664  0.57603900230023 -0.12813862846285
 6  18.82043241274128  1.19441765876588  0.71477191019102
 6  20.16488515771577  1.25295562906291  0.20068483168317
 6  20.36500785458546  2.15198349554956 -1.00686167886789
 6  21.15657658845885  1.78711164746475  1.34878024142414
 1 -4.10022150665066  3.54903042444244  1.47178176507651
 1 -10.33996438913891  3.90233106810681 -0.59914530603060
 1 -10.23575686508651 -2.49879922072207 -0.75031168336834
 1 -2.70847730463046 -1.04584289818982  2.14269496069607
 1 -2.17548115331533  1.70333391599160  1.32276292669267
 1 -2.22545700320032  1.02869332223222  3.59689340284028
 1 -3.25854091409141  2.38697275477548  3.66764893029303
 1 -3.87665110781078  0.58034271827183  3.91381379417942
 1 -1.93357584248425 -1.37674763516352 -0.42685659485949
 1 -2.04962663516352  0.33548079847985 -0.62977301690169
 1 -0.19896341374137  0.46859147304730  0.93015341444144
 1 -0.34589239123912 -1.05410992619262  1.41523547874787
 1 -6.01382015741574  6.97383602770277  0.67419312851285
 1 -5.20569755915592  6.01914527762776  2.13451974907491
 1 -4.37284124012401  5.97052821922192  0.48292146774677
 1 -9.32257430993099  6.06461260936094 -0.69854008220822
 1 -9.09978119401940  8.20071080998100  0.44483410521052
 1 -7.95303476927693  7.48488488798880  1.74099248474847
 1 -12.24689879497950  3.00204053005301 -2.18898190289029
 1 -13.31455112431243  1.59302319351935 -1.53391458295830
 1 -12.75268699979998  2.89393804850485 -0.39015025902590
 1 -12.28782356075608 -1.79994944004400 -0.89590454535453
 1 -13.27551627052705 -0.53110984778478 -1.45434096159616
 1 -13.29330568316832 -1.86698138433843 -3.05197508200820
 1 -12.31241480568057 -0.25859039663966 -3.39345284098410
 1 -11.46796307560756 -1.90325519261926 -3.16432505250525
 1 -9.20686028902890 -5.03886462936294 -1.75265852995300
 1 -8.01499086388639 -5.74908491269127 -0.81300091309131
 1 -9.57097698259826 -4.96433145444545  0.08647682508251
 1 -3.29017971387139 -3.20195344604460 -0.48981425292529
 1 -1.59443761026103 -4.43356979667967  3.50579349464946
 1 -2.75041465006501 -5.56577819541954  3.65395823472347
 1 -1.43001111261126 -5.97155642884288  2.47162111501150
 1  2.70245955005501 -1.66575841174117 -1.68141210621062
 1  2.44977245484548  0.04561884148415 -1.91345449764976
 1  4.31947285288529 -0.87381959715972  0.59591280728073
 1  4.13061202470247  1.28122683308331 -2.54602297199720
 1  5.67957336903690  1.95870612951295 -1.95490195839584
 1  5.63164047164716  0.52050315781578 -3.06928565956596
 1  6.94467653055306  1.66106010601060 -0.21447880508051
 1  6.49773389278928  0.12796475907591  0.77312702940294
 1  7.59474685938594 -1.31910114531453 -0.98624994859486
 1  8.08942137803780  0.18531173927393 -2.03472639623962
 1  9.05765781738174  0.79273715871587  0.29419705190519
 1  8.98969745844584 -0.78745425162516  0.97098496219622
 1  10.34586213761376  0.09513205090509 -1.89274416391639
 1  9.75850083558356 -2.28299627612761 -2.36859278407841
 1  11.29786234193419 -2.39712649654965 -1.49727397129713
 1  9.60396328232823 -2.43481542354235 -0.45628506820682
 1  11.38646632753275  0.99404163436344  0.34394588208821
 1  11.26568962236224 -0.59921588288829  1.03987460906091
 1  12.81418473737374 -1.50141830303030 -0.80682835043504
 1  12.87872162466247  0.27079777077708 -1.61131449274927
 1  14.01831326802680  0.70377293329333  0.59043638663866
 1  14.12754550765077 -0.94839444414441  1.11103762026203
 1  15.32275556405641  0.41873135813581 -1.13290764876488
 1  15.46352379527953 -2.28377866996700  0.02411095719572
 1  14.82503555425543 -1.81829420502050 -1.80356777187719
 1  16.53996362576258 -1.74052957785779 -1.50695216471647
 1  16.32396759745975  1.48072590629063  0.61393793809381
 1  16.41472591979198  0.10172099699970  1.50582334353435
 1  18.20950188888889 -0.48773532093209 -0.36256959735974
 1  17.72492955745575  1.06285360426043 -1.22096567236724
 1  18.51936272887289  2.22500665836584  0.94570257555756
 1  18.83699085938594  0.75845002600260  1.80270027032703
 1  20.48998391109111  0.25304145234523  0.14584164816482
 1  20.08452255885588  3.22066562846285 -0.89335292869287
 1  21.40700495259526  2.04100075287529 -1.50664202750275
 1  19.58173207760776  2.01329314011401 -1.80276724572457
 1  20.99848582378238  0.98781689078908  2.18731834903490
 1  22.10541224752475  1.90758198789879  1.15680064636464
 1  20.83887361726173  2.86388647194720  1.61206164666467

