%nproc=4
%Mem=2GB
# td=(NStates=1) CAM-B3LYP/6-31G(d,p) 

TD

0 1
12 -7.11333190619062  0.67434618271827 -0.03920623322332
 6 -4.93216783478348 -1.94682586098610  0.46635316801680
 6 -4.81940186908691  2.83247169446945  1.10996736163616
 6 -9.46841157665767  3.06712220772077 -0.34319717941794
 6 -9.58295860956096 -1.86619213021302 -0.74632106120612
 7 -5.09046247084708  0.40848066616662  0.64652507080708
 6 -4.33396310241024 -0.65971579357936  0.72883090629063
 6 -2.95355436083608 -0.29517894359436  1.23660401460146
 6 -3.07739117751775  1.15208787708771  1.69656038673867
 6 -4.41061805670567  1.53217396619662  1.11551858175818
 6 -3.17877295939594  1.25375766386639  3.20286169506951
 6 -1.87910137113711 -0.48118337973797  0.10324428272827
 6 -0.49703712631263 -0.27865221242124  0.61353548284828
 6  0.47740887808781 -0.48453196609661 -0.55445082558256
 8  0.32499373947395 -0.80081548914891 -1.73305963766377
 8  1.77117892839284 -0.31811920832083 -0.07872466136614
 7 -7.10765121302130  2.58736432623262  0.35848454395440
 6 -6.06422570157016  3.35860683648365  0.86962049564956
 6 -6.49189644274427  4.83098738813881  0.79507019421942
 6 -7.73784649164917  4.84584521602160  0.40037842914291
 6 -8.17572184378438  3.43754294959496  0.12541508780878
 6 -5.58673663036304  5.94204667056706  1.17020178067807
 6 -8.53863166076608  6.00904193789379  0.09539652505251
 6 -8.58011190249025  7.22136825542554  0.73899014881488
 7 -9.09129140174017  0.59111197229723 -0.52953698739874
 6 -9.90082634233423  1.71444139723972 -0.62532885698570
 6 -11.25730482708271  1.41149948904890 -1.11422314181418
 6 -11.23803620752075  0.04283964806481 -1.20153886788679
 6 -9.90646632733273 -0.44535650995099 -0.83543855995600
 6 -12.26307513121312  2.36783735473547 -1.51489826462646
 6 -12.28177272357236 -0.95324273437344 -1.65931674017402
 6 -12.23499098749875 -1.18312072327233 -3.15983110171017
 7 -7.24687415571557 -1.42377199079908 -0.27205188218822
 6 -8.36076631643164 -2.33798897099710 -0.58997395259526
 6 -7.74715086068607 -3.63781204870487 -0.51781905920592
 6 -6.44001788588859 -3.54421875887589 -0.21624335623562
 6 -6.15521811821182 -2.16297457875788  0.05838864306431
 6 -8.44777224462446 -5.01159400180018 -0.74386286468647
 6 -5.26862133243324 -4.33774765826583  0.10087295989599
 8 -5.15786462436244 -5.48086256965697  0.17895492619262
 6 -4.10304388378838 -3.22730852065206  0.53004286958696
 6 -3.52902353325333 -3.68467368866887  1.91706207910791
 8 -3.68937053765377 -3.06653338953895  2.96995967706771
 8 -2.70047124082408 -4.72671739413941  1.82013059395940
 6 -2.31495208310831 -5.29886411551155  2.99667460296030
 6  2.78975148684868 -0.71456925152515 -1.09673087348735
 6  4.10101219021902 -0.36505468176818 -0.42216236523652
 6  5.06918040244024  0.41396766216622 -1.04765453815382
 6  5.02030045304530  1.19035168446845 -2.39279344464446
 6  6.44760909370937  0.51780363056306 -0.22037852305230
 6  7.65121265916592 -0.04583493039304 -1.03495044554455
 6  9.00112198479848 -0.07968309870987 -0.27383919671967
 6  10.29673029752975 -0.46999407110711 -0.94226519701970
 6  10.07314401460146 -1.89026996309631 -1.30446391139114
 6  11.51628450535054 -0.34181796259626  0.02899376797680
 6  12.80465537323732 -0.36210026112611 -0.74672469536954
 6  14.02233170157016 -0.09179038183818  0.17341440894089
 6  15.34366049094909 -0.25904963406341 -0.43133137293729
 6  15.67378904780478 -1.64910254405441 -0.89400901860186
 6  16.35891999789979  0.41895625562556  0.45821032823282
 6  17.75048963836383  0.48083948234823 -0.12084789938994
 6  18.81472184168417  1.23178139513951  0.84995542854285
 6  20.27811648084808  1.16531686518652  0.26538130133013
 6  20.33774512831283  1.92782107930793 -1.14690568326833
 6  21.25063599439944  1.71668460476048  1.22706807020702
 1 -3.88473995849585  3.25950147154715  1.46899148604860
 1 -10.20020041274127  4.00501133613361 -0.32930832233223
 1 -10.27629091849185 -2.52888222902290 -1.25226187838784
 1 -2.73835029192919 -0.96971528542854  2.19420011121112
 1 -2.25971957715772  1.96979056165617  1.39945059545955
 1 -2.23632809030903  1.14341479437944  3.57928164166417
 1 -3.48178323832383  2.25990004750475  3.40069223462346
 1 -3.76575001770177  0.72960764476448  3.66777919071907
 1 -2.14518700360036 -1.43081304170417 -0.15742965216522
 1 -2.17255892839284  0.29971722212221 -0.65034507410741
 1 -0.56115963336334  0.78645325922592  0.92482288138814
 1 -0.29765756775678 -1.04637915311531  1.36109006420642
 1 -5.85141391679168  6.80668931303130  0.58710441964196
 1 -5.61178816821682  6.18537190029003  2.12989928702870
 1 -4.51979593559356  5.55623679007901  1.07558073367337
 1 -9.18755080758076  5.74184033213321 -0.73714394259426
 1 -9.12873408930893  8.04332507140714  0.39261888368837
 1 -7.97780724652465  7.64711111061106  1.64994337983798
 1 -11.82231633673367  3.16340666666667 -2.18050105480548
 1 -13.03515318451845  1.82651654285429 -2.14200539203920
 1 -12.62005373647365  2.98510716541654 -0.63230447444745
 1 -12.02462724112411 -1.95328477357736 -1.06271122602260
 1 -13.33947266616662 -0.50212694949495 -1.34641016851685
 1 -12.87517386998700 -2.00314500070007 -3.42454233873387
 1 -12.53255681988199 -0.35607014461446 -3.59595309100910
 1 -11.21406768606861 -1.76261112821282 -3.38736735673567
 1 -8.95485508850885 -4.85655639853985 -1.84787805190519
 1 -7.80228959375937 -5.84983498769877 -0.43648326132613
 1 -9.39519940484048 -5.11141616291629 -0.10723254585458
 1 -3.33753444934493 -3.52193544424443 -0.40967623912391
 1 -1.99993816031603 -4.51086752645265  3.75973888918892
 1 -3.24062367096710 -5.86936855445545  3.39961280018002
 1 -1.71929004050405 -5.96907618081808  2.84093804670467
 1  2.82168147224723 -1.85924776067607 -1.49600356535654
 1  2.63862133973397 -0.10412613301330 -2.03472662486249
 1  4.16998790439044 -0.73917613281328  0.74936815281528
 1  3.90604956845685  1.27990670107011 -2.59269763946395
 1  5.56727213891389  2.10954121302130 -2.15313178137814
 1  5.47097440504050  0.46694780228023 -3.11748047904790
 1  6.52399446234623  1.49131313131313  0.18807144994500
 1  6.06981110051005 -0.05438347574758  0.63103281998200
 1  7.28119550425042 -0.90140937613761 -1.56329765336534
 1  7.79119155505551  0.59137234533453 -1.87133005660566
 1  9.24387643924392  0.80655854085409  0.16895452765277
 1  8.77023551225123 -0.76874238043804  0.54045190889089
 1  10.47907545894589  0.01023356105611 -1.80414530403040
 1  9.11614660016002 -2.03518149464947 -2.02211813661366
 1  10.89143169886989 -2.29599638353835 -2.03490773467347
 1  9.93027591359136 -2.32917485948595 -0.44057349704971
 1  11.40302798369837  0.66208843904390  0.50895238273827
 1  11.58346139953995 -1.16229219051905  0.81792241384138
 1  12.96434975387539 -1.21005916711671 -1.33313098069807
 1  12.97753150565056  0.31791248224822 -1.52513587488749
 1  13.66764820152015  0.93106566256626  0.66796413941394
 1  14.06020877397740 -0.81886149084908  1.06106262276228
 1  15.34582787128713  0.61989147414742 -1.30691504950495
 1  15.71210865376538 -2.32465275737574 -0.06918837273727
 1  14.94292734343434 -2.12970534613461 -1.51081849694969
 1  16.73249287868787 -1.82101762666267 -1.33661513101310
 1  15.92391759245924  1.28515634933493  0.69113565786579
 1  16.41699614681468 -0.07013618871887  1.43840660186019
 1  18.21760269896990 -0.52040858825883 -0.16092943334333
 1  17.81256832133213  0.97790510941094 -1.04978855465547
 1  18.55229602220222  2.26185034273427  1.16910491579158
 1  18.94532169246925  0.80333451445144  1.63450345064506
 1  20.58878379107911  0.14700084828483 -0.05443837983798
 1  19.91667577417742  2.90676423832383 -1.09052264566457
 1  21.36287053915392  1.99472612541254 -1.49337070037004
 1  19.88652255665567  1.29506131693169 -1.98461543054305
 1  21.28147412261226  1.01489959905991  2.10029964716472
 1  22.37293900020002  1.53774500420042  0.84894986128613
 1  21.27373710361036  2.63851393469347  1.68076851735174

