%nproc=4
%Mem=2GB
# td=(NStates=1) CAM-B3LYP/6-31G(d,p) 

TD

0 1
12 -7.05675624862486  0.61171992009201 -0.05414772737274
 6 -4.83381799979998 -1.98474965336534  0.51341787448745
 6 -4.86323625252525  2.79524797209721  1.13324968986899
 6 -9.46202093759376  3.16638213371337 -0.34190705040504
 6 -9.55231554525453 -1.74868037903790 -0.93330976007601
 7 -5.16279970457046  0.35283510161016  0.66168658695870
 6 -4.33254296039604 -0.69592941494149  0.62584060726073
 6 -2.95493449884988 -0.33173259895990  1.17461781598160
 6 -3.03622706110611  1.17959062736274  1.69712044274427
 6 -4.47045404030403  1.44383513231323  1.18137516741674
 6 -2.94805988808881  1.19659194729473  3.24469587848785
 6 -1.96813027402740 -0.59659492089209  0.05217917621762
 6 -0.49335675827583 -0.23351769896990  0.49664379367937
 6  0.54695583278328 -0.50962447534753 -0.60417579807981
 8  0.30893213331333 -0.91823723132313 -1.76686301800180
 8  1.82043385388539 -0.25782317871787 -0.18266505540554
 7 -7.21678212611261  2.58227381718172  0.22830152565257
 6 -6.14396367536754  3.37703867966797  0.74011754535454
 6 -6.48969622272227  4.77353164256426  0.87559824702470
 6 -7.73948665566557  4.79964059555956  0.28254664596460
 6 -8.15684995659566  3.53417261256126  0.00101264756476
 6 -5.55886384308431  5.86423888978898  1.37524228472847
 6 -8.77306510411041  5.96605763946395  0.21347833323332
 6 -8.64860875217522  7.12259837843784  0.86003225302530
 7 -9.20509278187819  0.69195205630563 -0.51474550825083
 6 -9.90542680238024  1.81510146324632 -0.58642496659666
 6 -11.29423852045204  1.48163650275028 -1.12249396889689
 6 -11.31294369826983  0.09491485558556 -1.28991770577058
 6 -9.93969965066507 -0.41978395269527 -0.90790580668067
 6 -12.32428125182518  2.45276584758476 -1.43345011981198
 6 -12.31573611991199 -0.81419882998300 -1.66872768126813
 6 -12.35243273167317 -1.23927633883388 -3.27012213081308
 7 -7.31178064636464 -1.46193580718072 -0.16196087308731
 6 -8.23305354515452 -2.30837600970097 -0.62032698789879
 6 -7.78611475707571 -3.64583285078508 -0.46762403970397
 6 -6.46836072017202 -3.62624696169617 -0.10962269416942
 6 -6.19644224062406 -2.27360564186419  0.11162396659666
 6 -8.57521498889889 -4.79851269366937 -0.80171865026503
 6 -5.30724519481948 -4.38541242474247  0.16416928952895
 8 -5.15841467936794 -5.56936141954195  0.21069810051005
 6 -4.15678925832583 -3.21249703950395  0.53754361966197
 6 -3.44439507040704 -3.56482170347035  1.92848322122212
 8 -3.65861746234624 -2.90475721192119  2.92836551765176
 8 -2.68228942264226 -4.60754547694769  1.93356193709371
 6 -2.07030761866187 -5.09863409250925  3.04770970647065
 6  2.79339185088509 -0.60144793939394 -1.22330353075308
 6  4.13371546054606 -0.43281145744574 -0.59040918991899
 6  5.19310279467947  0.29882614801480 -1.02955272797280
 6  5.17812623562356  1.15978862816282 -2.19330349564957
 6  6.43582791559156  0.36124797499750 -0.16265275047505
 6  7.66455399329933 -0.22358270517052 -0.80876782728273
 6  8.99565143774377 -0.14998012841284 -0.11889370217022
 6  10.17572819731973 -0.65971304300430 -0.86754772527253
 6  10.06990369056906 -2.11994293039304 -1.16055952095210
 6  11.50445332223222 -0.33532731353135 -0.16777590899090
 6  12.75488039573957 -0.58897294839484 -0.75575559845985
 6  14.03522299069907 -0.18680988378838  0.18671573907391
 6  15.40812693759376 -0.22990671977198 -0.54329256905691
 6  15.80480214911491 -1.70100773457346 -0.87399701740174
 6  16.40561466736674  0.43449780978098  0.38986349354935
 6  17.90273486288629  0.51872327072707 -0.09543535813581
 6  18.88022839233923  1.32614083108311  0.74927536053605
 6  20.25819448864886  1.30634096759676  0.17521228442844
 6  20.35712706650665  2.22928122532253 -1.09636062876288
 6  21.19464039483949  1.81839477577758  1.33790915431543
 1 -4.16807829232923  3.57047256865687  1.53911849874987
 1 -10.22606299899990  3.96444727972797 -0.56638202970297
 1 -10.27405069446945 -2.37018635943594 -1.29086573877388
 1 -2.54633109000900 -0.80715902980298  2.02809350055005
 1 -2.30814441964196  1.81527511011101  1.18570922132213
 1 -1.94167862536254  1.04903535643564  3.66293000650065
 1 -3.21950701070107  2.09663372087209  3.68307047244724
 1 -3.84802824552455  0.41816650065006  3.73361577437744
 1 -2.03796628152815 -1.50825078547855 -0.40818472767277
 1 -2.02277394989499  0.05521277167717 -0.80275031463146
 1 -0.53842736013601  0.76879149304930  1.00260065916592
 1 -0.27921572357236 -0.82476699189919  1.34425838103810
 1 -5.74139291469147  6.99026767086709  0.93321903110311
 1 -5.72422941234123  6.26607997109711  2.46089238633863
 1 -4.65585954195420  5.65466663306331  1.20462363796380
 1 -9.48065011751175  5.81752790089009 -0.55812604080408
 1 -9.39443065896590  7.67073781268127  0.69629925172517
 1 -7.96590605640564  7.09438583808381  1.70918930443044
 1 -12.05854996009601  3.04487481348135 -2.27592059675968
 1 -13.13125279447945  1.88684257545755 -1.66862805430543
 1 -12.52291402250225  3.11380003470347 -0.59420066406641
 1 -12.47313209160916 -1.62139158425843 -1.13670862576258
 1 -13.41661037993799 -0.41268800560056 -1.54799032653265
 1 -13.07134348694869 -1.80218490469047 -3.47935782028203
 1 -12.31385494969497 -0.39799433703370 -3.97016051175118
 1 -11.40674695399540 -1.82333720082008 -3.47010563056306
 1 -9.01667127012701 -4.37115785868587 -1.92568583268327
 1 -8.07670703550355 -5.72608261246125 -0.71751136413641
 1 -9.48280816571657 -4.90951597289729 -0.12121394399440
 1 -3.76215691159116 -3.58776202690269 -0.47803307480748
 1 -1.50482864936494 -4.26012245194520  3.40135305060506
 1 -2.85826543514351 -5.17434905250525  3.90481332023202
 1 -1.72602071357136 -6.18353762696270  2.99809376227623
 1  2.58235753985399 -1.58202003790379 -1.61399536453645
 1  2.57572505010501  0.27793207280728 -1.97958111031103
 1  4.40661156675668 -1.09453166836684  0.32623583958396
 1  4.05496445994600  1.35564427482748 -2.41906027572757
 1  5.53094850655065  2.13922418131813 -2.06812328052805
 1  5.69568687628763  0.85411651915192 -2.99869860086009
 1  6.55133719661966  1.49119311931193  0.04955759855986
 1  6.24368848824883 -0.26989502690269  0.74644436113611
 1  7.40737812251225 -1.28157739293929 -0.96654797839784
 1  7.64083651955196  0.15532874097410 -1.72053497709771
 1  9.20953300490049  0.93097098209821  0.06212384458446
 1  8.87755624432443 -0.57095260146015  0.79673753745375
 1  10.31266881828183 -0.22653011531153 -1.83204809430943
 1  9.24442942844284 -2.58465644214422 -1.68904482928293
 1  11.15641819751975 -2.30828761266127 -1.59292353625362
 1  10.09043192919292 -2.68449039103910 -0.31479091879188
 1  11.51076875777578  0.61440367056706  0.33190467796780
 1  11.53582663606361 -1.02197815911591  0.82659328092809
 1  12.92461578047805 -1.60321848304831 -1.04654232183218
 1  12.93798755125512 -0.07330663966397 -1.66605996729673
 1  13.88431986868687  0.91611416741674  0.57561490449045
 1  14.01486423952395 -0.93295289999000  0.97711422792279
 1  15.37064035253525  0.47920740574057 -1.64310866886689
 1  15.76446388928893 -2.49800009210921  0.01345989208921
 1  15.16998004870487 -2.20166254185419 -1.52681009610961
 1  16.70510013941394 -1.74471999689969 -1.52635410491049
 1  16.12379758045805  1.48885671937194  0.66166271057106
 1  16.64144859205921  0.03238406330633  1.37870063126313
 1  18.38038897759776 -0.59297584498450 -0.21932527292729
 1  17.80357742224222  0.81109842874287 -1.29448302410241
 1  18.40646143874388  2.32854701240124  0.75506351165116
 1  18.86395355565557  0.76587076807681  1.75420542084208
 1  20.55390030273027  0.31428757695770 -0.06375931193119
 1  20.10275438203820  3.27836139803980 -0.93526712011201
 1  21.30202445454546  2.23720037283728 -1.53637500080008
 1  19.49184308870887  1.87106891769177 -1.84755172417242
 1  21.07664363956396  1.32658076717672  2.30205982318232
 1  22.27595930223022  1.75411664136414  0.97700266656666
 1  20.97820755065507  2.81138122142214  1.37444788528853

