%nproc=4
%Mem=2GB
# td=(NStates=1) CAM-B3LYP/6-31G(d,p) 

TD

0 1
<<<<<<< HEAD
12 -7.13206377937794  0.63643239133913  0.07296498389839
 6 -4.76506112411241 -1.90809198759876  0.55258179087909
 6 -4.81243117201720  2.81119956725673  1.13677004190419
 6 -9.46445118061806  3.08222371787179 -0.33750661036104
 6 -9.53671398509851 -1.66920243124312 -0.90098652775278
 7 -5.04033745834583  0.46449626772677  0.73660407870787
 6 -4.29647935403540 -0.69432925492549  0.79004702790279
 6 -2.84322332773277 -0.28667809350935  1.15928628282828
 6 -2.96139957835784  1.05921859015902  1.65443617431743
 6 -4.38834582948295  1.51773252205221  1.13564059395940
 6 -2.88142322442244  1.20301258935894  3.20181159005901
 6 -1.86127958895890 -0.57062232363236  0.11353531183118
 6 -0.39365678827883 -0.33853820102010  0.49334346364636
 6  0.52769390659066 -0.65179869276928 -0.66032141264126
 8  0.17242848294829 -1.02828823642364 -1.78596492819282
 8  1.81824363486349 -0.46949434583458 -0.24817160606061
 7 -7.18195864376438  2.54797038683868  0.40308900440044
 6 -6.05952523152315  3.34910588638864  0.82494602820282
 6 -6.41217847094709  4.77609189858986  0.75511619881988
 6 -7.76611931893189  4.86412704420442  0.23821221252125
 6 -8.14110838243824  3.48797799309931  0.04810735703570
 6 -5.50010796749675  5.90414288018802  1.01746650715072
 6 -8.49564736233623  6.03655468916892  0.01856884228423
 6 -8.46131002230223  7.15379149774977  0.72370862066207
 7 -9.07684995759576  0.72956581768177 -0.50537457115712
 6 -9.82217847754775  1.84585453855386 -0.68640496459646
 6 -11.17659675627563  1.45568390749075 -1.12859457895790
 6 -11.20377278117812  0.10632599669967 -1.18111682568257
 6 -9.87849353005300 -0.37186916121612 -0.78314333043304
 6 -12.35323414711471  2.40296086708671 -1.32364913971397
 6 -12.41769631593159 -0.78582599269927 -1.66445725422542
 6 -12.45118260666067 -1.16316872807281 -3.11252637123712
 7 -7.21453092139214 -1.32394200780078 -0.13540821782178
 6 -8.26019625942594 -2.14732990509051 -0.49263421862186
 6 -7.89257540314031 -3.65393366086609 -0.44456173347335
 6 -6.49361324542454 -3.57622195919592 -0.19779151105110
 6 -6.11893448984898 -2.12820110141014  0.07236004020402
 6 -8.61110857825783 -4.80858370077008 -0.83860233863386
 6 -5.33944841514151 -4.40230411391139  0.24219709230923
 8 -5.16181501940194 -5.53803828722872  0.25290232093209
 6 -4.19608318771877 -3.31366715651565  0.61784164946495
 6 -3.53736436733673 -3.71432665396540  1.94420479337934
 8 -3.73236483708371 -3.20426716291629  2.95798847994799
 8 -2.71837303100310 -4.77916263866387  1.76197477837784
 6 -2.30269085698570 -5.24420864996500  3.08732366786679
 6  2.84789730143014 -0.58985678027803 -1.30609180958096
 6  4.10532262126213 -0.41033921022102 -0.64701485048505
 6  5.17815129952995  0.22635890129013 -1.05039481218122
 6  5.24027245024502  1.13879652895290 -2.38563272857286
 6  6.42369670247025  0.32937478767877 -0.13166965216522
 6  7.73798133603360 -0.12429277617762 -0.92571952245225
 6  9.02033390599060 -0.11254638503850 -0.02695450825082
 6  10.23007363186319 -0.49610668236824 -0.87187815831583
 6  10.09541624182418 -1.95512644874487 -1.42857632263226
 6  11.46825970287029 -0.38557233803380 -0.05207433883388
 6  12.75292019971997 -0.62317636873687 -0.80865088798880
 6  13.90499996839684 -0.26262746554655  0.02291935943594
 6  15.44266039093909 -0.29447317641764 -0.65609384918492
 6  15.64239590849085 -1.71450908470847 -1.08234785248525
 6  16.41747585348535  0.30379473947395  0.40105461266127
 6  17.83712830223022  0.55870726912691 -0.09785560016002
 6  18.72353272277228  1.29657787478748  0.84271470447045
 6  20.18442711191119  1.51897223072307  0.47065182838284
 6  20.22388374217422  2.24794309150915 -0.91579257195720
 6  20.93983491429143  2.14064700100010  1.50125548894889
 1 -4.05766725122512  3.45120064146415  1.49011359825983
 1 -10.17160755345535  3.86838767376738 -0.43253864536454
 1 -10.35594888428843 -2.37629697049705 -0.98371502370237
 1 -2.56482293919392 -1.14812312621262  1.73431412261226
 1 -2.06589019421942  1.87218080068007  1.36100675107511
 1 -1.85956041354135  0.95133558645865  3.56304001750175
 1 -3.20772583258326  2.19439349684969  3.60908307370737
 1 -3.67269071177118  0.62620730473047  3.63230564336434
 1 -1.92341482638264 -1.59354931533153 -0.45556946614661
 1 -1.83265493799380 -0.12187493709371 -0.91016105570557
 1 -0.13270678807881  0.52620723462346  0.85717611671167
 1 -0.18502630463046 -0.85741025622562  1.32960691589159
 1 -5.64339311471147  6.73035167926793  0.22291800100010
 1 -5.55820280968097  6.09921328442844  2.03803010011001
 1 -4.37307126312631  5.59434060046005  0.80746392199220
 1 -9.26851890439044  6.00951709980998 -0.78243847204720
 1 -9.17331854775477  7.96131687058706  0.40954057585759
 1 -7.75973543934393  7.11950835033503  1.74590297579758
 1 -12.41737584268427  3.07502782878288 -2.25609861456146
 1 -13.49595926512651  1.87177106830683 -1.08413960546055
 1 -12.24220595169517  3.05914456915692 -0.45120636463646
 1 -12.44384916331633 -1.67827727282728 -1.10223517841784
 1 -13.25635435433543 -0.26410314711471 -1.31652718021802
 1 -13.37182353495350 -1.91017570377038 -3.06536642114211
 1 -12.42602616681668 -0.35124966256626 -3.67204069976998
 1 -11.51687796709671 -1.78443331043104 -3.37686630663066
 1 -9.30347995099510 -4.54041478437844 -1.77700096419642
 1 -8.26230559535954 -5.72794279847985 -0.95298491149115
 1 -9.49011889678968 -4.88145316661666 -0.15961778437844
 1 -3.51702239813981 -3.48820207090709 -0.24232950445045
 1 -1.64097226372637 -4.49540598029803  3.50778369366937
 1 -3.12676228482848 -5.61673329092909  3.68786162506251
 1 -1.71225933743374 -6.22352162536254  2.76500045294529
 1  2.74658396249625 -1.63098493439344 -1.76967093209321
 1  2.60478795639564  0.25407968756876 -2.03025617781778
 1  4.21814271987199 -0.83154536973697  0.41893510951095
 1  4.18718768226823  1.28639735013501 -2.60289865956596
 1  5.68181359305931  2.12915317421742 -1.93269973817382
 1  5.85621292889289  0.79476058355836 -3.16172490349035
 1  6.61972403530353  1.31208520852085  0.30785342814281
 1  6.35119923932393 -0.54096213361336  0.63541325802580
 1  7.46015340004000 -1.14145338053805 -1.45441676527653
 1  8.05522795869587  0.45817902600260 -1.72818574217422
 1  9.00114216581658  0.87650553555356  0.38903653585358
 1  8.67421591029103 -0.66403190939094  0.79548741244124
 1  10.16477402880288 -0.00856831913191 -1.99989487898790
 1  9.30516550205020 -2.05556353285328 -2.20174609940994
 1  11.10430298599860 -2.35200198409841 -1.93968821272127
 1  10.01503438943895 -2.63185512751275 -0.80275971567157
 1  11.63554123502350  0.64586681688169  0.48694018151815
 1  11.38206125952595 -1.02765872717272  0.72869349094909
 1  12.91711503040304 -1.69748790999100 -1.10700836843684
 1  12.63437719021902 -0.10272958195820 -1.67448080938094
 1  13.88424986168617  0.79142169816982  0.32730007300730
 1  13.94558731183118 -0.76613621832183  0.87052356885689
 1  15.31249453795379  0.49291877687769 -1.47487184518452
 1  15.33488093099310 -2.41428172027203 -0.09737119101910
 1  14.89665271597160 -2.07976035163516 -1.80445786088609
 1  16.70533016241624 -1.88357388228823 -1.21052252175217
 1  15.82746794749475  1.34663249694970  0.81237778207821
 1  16.38011245844584 -0.44973414851485  1.31424418561856
 1  18.19749068776878 -0.46881342874287 -0.19474281468147
 1  17.45988305280528  0.97768508740874 -1.12704628042804
 1  18.32077286988699  2.35060921862186  1.14489249454945
 1  18.80430759105911  0.54684886588659  1.77595759605961
 1  20.63326823952395  0.48220436863686  0.30948801280128
 1  19.70692479907991  3.16017957985799 -0.65606920032003
 1  21.19591384348435  2.48047470027003 -1.18925028832883
 1  19.89791369576958  1.63607541834183 -1.85301227022702
 1  20.85849182438244  1.42292040114011  2.58406802400240
 1  22.19445115141514  2.39323055275528  1.29636460276028
 1  20.28064779467947  3.01982206550655  1.64316475697570
=======
12 -7.14923549654965  0.67010575867587  0.07985567296730
 6 -4.90106472447245 -1.93642482088209  0.48874540724072
 6 -4.90792072097210  2.77452589988999  1.20473683858386
 6 -9.38115285078508  3.18012350785079 -0.41492435213521
 6 -9.54987530123012 -1.72371788278828 -1.00071650075007
 7 -5.09971339593959  0.32876269436944  0.73812423072307
 6 -4.34417412351235 -0.70831065306531  0.70485850905091
 6 -2.91454045944594 -0.42995242094209  1.16089644384438
 6 -3.00814425282528  1.04422709100910  1.60277100780078
 6 -4.37122411731173  1.44229497829783  1.18118514841484
 6 -2.84285936803680  1.13130541864186  3.12864427332733
 6 -1.95715917691769 -0.60375563696370  0.01181513981398
 6 -0.50943836643664 -0.32331667886789  0.53439756905691
 6  0.56283742094209 -0.71651516441644 -0.59241462196220
 8  0.30375161526153 -1.12900830843084 -1.75322165386539
 8  1.81440325082508 -0.52702009840984 -0.23894068296830
 7 -7.10503095099510  2.69418500830083  0.20458915441544
 6 -6.00664994399440  3.33761473727373  0.76254978857886
 6 -6.36208346144614  4.77934222362236  0.79990067726773
 6 -7.67848055505551  4.88820945244524  0.38395678697870
 6 -8.09054332593259  3.56439563486349  0.03865641194119
 6 -5.38764672137214  5.97640010591059  1.09372413291329
 6 -8.47532533013301  6.11308234193419  0.24688167356736
 6 -8.31385527682768  7.19389550815082  0.85381163096310
 7 -9.10617288988899  0.70131299239924 -0.60862489618962
 6 -9.79618587828783  1.83158311141114 -0.73974029812981
 6 -11.14388348494849  1.48609694879488 -1.13630535003500
 6 -11.17145954985499  0.10051541564156 -1.28000671467147
 6 -9.88354403510351 -0.31644361866187 -0.95352036813681
 6 -12.33101192489249  2.43496406740674 -1.30060683548355
 6 -12.40904545084508 -0.68409581968197 -1.78590939943994
 6 -12.02440992939294 -1.33512592379238 -3.24685980458046
 7 -7.22714218251825 -1.38326794039404 -0.10210488748875
 6 -8.30913115291529 -2.23865903800380 -0.50622557775778
 6 -7.87587373297330 -3.57996626412641 -0.52172945024502
 6 -6.54541842594259 -3.62280661766177 -0.16520825272527
 6 -6.23041563796380 -2.14157243854385  0.13364616881688
 6 -8.68230569796980 -4.83567641004100 -0.90684916331633
 6 -5.37663213351335 -4.40347423092309  0.25801867446745
 8 -5.29277811571157 -5.59235371877188  0.39503653435344
 6 -4.16938051745174 -3.33302909270927  0.53009287458746
 6 -3.67281791269127 -3.66220144144414  1.96412678557856
 8 -3.96708830943094 -3.15383211941194  3.01744442554255
 8 -2.83905509920992 -4.71528625102510  1.91228980988099
 6 -2.45731631953195 -5.34196842594259  3.15157009250925
 6  2.86029854155416 -0.74497229182918 -1.17773897429743
 6  4.14677676667667 -0.48381655795580 -0.41457160616062
 6  5.19531301570157  0.25638190359036 -0.91752152485249
 6  5.09622804580458  1.24302695199520 -2.00358452375237
 6  6.43645797859786  0.26539839003900 -0.20039652485249
 6  7.81253879177918 -0.18546889378938 -0.93211016151615
 6  9.01939381198120 -0.14311944234423 -0.08940075287529
 6  10.20205082958296 -0.63757082878288 -0.88738970947095
 6  10.14284098429843 -2.00869180528053 -1.51164462946295
 6  11.43779665656566 -0.45677945874587 -0.00469960136014
 6  12.73205811351135 -0.54912896399640 -0.72626264916492
 6  13.89482895129513 -0.06998820162016  0.15700276777678
 6  15.30313643854385 -0.10679440854085 -0.49718795859586
 6  15.68366003490349 -1.46447408120812 -0.92198181588159
 6  16.41505561146115  0.48454281428143  0.32650715791579
 6  17.76398098749875  0.56427782618262 -0.19622543714371
 6  18.75684605410541  1.32478069506951  0.76551698469847
 6  20.20785945514551  1.41060139363936  0.16760152335234
 6  20.34092544634463  2.38160645784578 -1.04805579827983
 6  21.05926685748575  2.03756669296930  1.20973633703370
 1 -4.24370585508551  3.55307082848285  1.76839142604260
 1 -9.98771916461646  4.10048088308831 -0.79613500500050
 1 -10.34382767216722 -2.27368670947095 -1.58927557975798
 1 -2.77437389428943 -1.24737305120512  1.84180487168717
 1 -2.27443104830483  1.76142972557256  1.16905755615562
 1 -1.67317177467747  0.86004645754575  3.33096681018102
 1 -2.95936099609961  2.19707376487649  3.42286445184518
 1 -3.42498594129413  0.23000768476848  3.63951636443644
 1 -2.00944342924292 -1.67383734413441 -0.16122003120312
 1 -2.33312498499850  0.09945719611961 -0.83881392099210
 1 -0.21988550595060  0.78784339823982  0.80175057415742
 1 -0.24869267126713 -0.87957247244724  1.40021397659766
 1 -5.73980275567557  6.79032767686769  0.44787049624962
 1 -5.29172616201620  6.32137550065006  2.24551084818482
 1 -4.48407236323632  5.54512567896790  0.98387156275628
 1 -9.00424247674768  5.96693284138414 -0.75694592279228
 1 -8.99487070297030  8.13124386328633  0.55977559935994
 1 -7.70653011881188  7.40791719121912  1.73786217171717
 1 -12.05441954705470  3.11682200820082 -2.29308231293129
 1 -13.35879554875488  1.84911880308031 -1.37230842234223
 1 -12.16707843894389  3.17659631433143 -0.28923016701670
 1 -12.50553533193319 -1.42108155325533 -1.08608356325633
 1 -13.34125284418442  0.18745200840084 -1.92785831333133
 1 -12.97778413101310 -1.84447913411341 -3.69330921542154
 1 -11.74019758395840 -0.56095063266327 -3.89631312701270
 1 -11.09818609790979 -1.95282014911491 -3.24097271727173
 1 -8.88230783378338 -4.85157590049005 -1.90924418851885
 1 -8.09455882068207 -5.63872387658766 -0.93613322632263
 1 -9.53522340724072 -4.94821984328433 -0.32318414101410
 1 -3.39562025792579 -3.56670992169217 -0.20151542304230
 1 -1.87629579607961 -4.58972541224122  3.89377229252925
 1 -3.41084069266927 -5.70810242784278  3.73592643154315
 1 -1.62404051555156 -6.08734800800080  2.86902085498550
 1  2.84269357345735 -1.68089992589259 -1.59918388338834
 1  2.86339381698170  0.10154443404340 -2.04999815201520
 1  4.05319622522252 -1.03224543974397  0.53738695469547
 1  3.98202716621662  1.73507221762176 -2.20739910961096
 1  5.64359977167717  2.19644990389039 -1.68206467466747
 1  5.40769807740774  0.79588069556956 -3.00338906990699
 1  6.65769783268327  1.19047304730473  0.42884552735274
 1  6.22711683108311 -0.52849088648865  0.73320303700370
 1  7.53978136283628 -1.23837307250725 -1.17762908650865
 1  7.75799823572357  0.45201840994099 -1.94098702230223
 1  9.29941199279928  0.92512039703970  0.14838247044704
 1  9.08568705740574 -0.69820532673267  0.70690855455545
 1  10.12932048344834  0.14261679937994 -1.73851874137414
 1  9.36503148864887 -2.01654963146315 -2.28658458325833
 1  11.02779533523352 -2.57951473537354 -1.98525276917692
 1  9.70339322532253 -2.70518246024602 -0.60939037873787
 1  11.71835951685168  0.50484271447145  0.41162264976498
 1  11.34767782118212 -1.31321728302830  0.79083970557056
 1  13.14390770967097 -1.54850301150115 -1.06088375597560
 1  12.65247900040004 -0.22876218521852 -1.67524088538854
 1  13.74921635833583  0.93447600360036  0.64225156815682
 1  13.79622237533753 -0.62781238593859  1.28750526702670
 1  15.24724801330133  0.53014249924992 -1.47193155115512
 1  15.71027847074708 -2.05151544364436  0.08896744284428
 1  14.96829988068807 -1.96038841444144 -1.68222563766377
 1  16.75570519991999 -1.35332085698570 -1.46629809930993
 1  16.16276147684768  1.41557939163916  0.72941948624863
 1  16.51198564576458 -0.18340751585158  1.32544530573057
 1  18.10498143684368 -0.60517706510651 -0.23807714811481
 1  17.94781184568457  0.88692601150115 -1.26458003380338
 1  18.30538133073307  2.14434859255926  0.85527353265327
 1  18.83908106840684  0.67963214421442  1.63168316861686
 1  20.55289020172017  0.45569171737174 -0.20541347734773
 1  20.18484259085908  3.41999556145615 -0.77896148954895
 1  21.34220847294729  2.34384103690369 -1.61026238953895
 1  19.72501640604061  2.17144895569557 -1.85806277527753
 1  21.04066004120412  1.72661077017702  2.26157577477748
 1  22.17699940624062  2.00512174187419  1.03110807710771
 1  20.73003273317332  3.04439452275227  1.29381982248225
>>>>>>> 8e03b5b5abfc0030b3aa597dc0de36371bfbd096

