%nproc=4
%Mem=2GB
# td=(NStates=1) CAM-B3LYP/6-31G(d,p) 

TD

0 1
12 -7.14471504450445  0.56405515361536  0.03717140454045
 6 -4.76329094709471 -1.97354853325333  0.45148168086809
 6 -4.83510343924392  2.86951539883988  1.18565493039304
 6 -9.41633636913691  3.05836133163316 -0.43497635733573
 6 -9.59850016371637 -1.72740825182518 -0.93320975007501
 7 -5.05283870847085  0.44488430653065  0.71521193949395
 6 -4.28220792689269 -0.65952577457746  0.81362938613861
 6 -2.93920292569257 -0.33979340504050  1.25987634183418
 6 -3.04103754215422  1.10828349664967  1.72479321002100
 6 -4.43949094399440  1.50757150595059  1.20802783268327
 6 -2.92166724882488  1.23707599569957  3.22812422132213
 6 -1.87533099409941 -0.49691495289529  0.12583654195420
 6 -0.39921734433443 -0.39899424662466  0.56630075937594
 6  0.47853899109911 -0.66048956185619 -0.62213759425943
 8  0.12228346844684 -0.98290369796980 -1.83041937363736
 8  1.73606541704170 -0.40052744914491 -0.17970475937594
 7 -7.04709515741574  2.57848343814381  0.21257995349535
 6 -6.05966524552455  3.35053602940294  0.71707524112411
 6 -6.36511376447645  4.80231452085208  0.75425611281128
 6 -7.78215092209221  4.79444007550755  0.33373176447645
 6 -8.10278455005501  3.44652384768477  0.08704125042504
 6 -5.55049300600060  6.00485295119512  1.07921268176818
 6 -8.70424822242224  6.00378141184118  0.21188817421742
 6 -8.44193808510851  7.14309042764276  0.84190043984398
 7 -9.05294756735674  0.64934779587959 -0.56575060876088
 6 -9.83567982768277  1.74021397449745 -0.55629195329533
 6 -11.25223432003200  1.51865020412041 -1.07153887338734
 6 -11.24077648154815  0.07966333043304 -1.19323803780378
 6 -9.90085576627663 -0.40279225352535 -0.93742875897590
 6 -12.23016183988399  2.41807237823782 -1.40737751255126
 6 -12.45274982128213 -0.77772518261826 -1.57802861136114
 6 -12.25145263366337 -1.21420383158316 -3.06488160676068
 7 -7.16512598089809 -1.37097671127113 -0.20403508050805
 6 -8.21736197599760 -2.27610278237824 -0.63951890709071
 6 -7.79824597019702 -3.58284655215522 -0.60587786508651
 6 -6.46778066216622 -3.54340867786779 -0.07276900880088
 6 -6.13327592399240 -2.17507578887889  0.11549435363536
 6 -8.61031849924992 -4.89141198359836 -0.93809228762876
 6 -5.30685515581558 -4.34669855335533  0.14381725432543
 8 -5.13209204710471 -5.56968145154515 -0.03484645394539
 6 -4.13258683808381 -3.32604839463946  0.53094295959596
 6 -3.46935756665667 -3.52644786608661  1.83455382828283
 8 -3.79956155675568 -3.07769450565057  2.90135281638164
 8 -2.69165035873587 -4.69078380078008  1.83753233413341
 6 -2.27460804870487 -5.14374860396040  3.03901883738374
 6  2.75680819251925 -0.78858665326533 -1.15865706610661
 6  4.13951604060406 -0.50058823512351 -0.51994214321432
 6  5.11099458385839  0.35311157655766 -0.97337711041104
 6  4.99412783578358  1.39887253655366 -2.16055022032203
 6  6.38052238503850  0.32586443664366 -0.18560504570457
 6  7.68208574647465 -0.14106445334533 -0.95637258775878
 6  8.93596546914691  0.00121499109911 -0.05718753155316
 6  10.21370199469947 -0.52187925962596 -0.78437940844084
 6  10.09829652985298 -2.08078901500150 -1.00605407040704
 6  11.46524940184018 -0.22816659745975  0.03484435303530
 6  12.77813272097210 -0.63862791389139 -0.63497352025203
 6  13.99090855925593 -0.08469967276728  0.05492255975598
 6  15.43750987588759 -0.24006773587359 -0.52141038083808
 6  15.59300096899690 -1.71493912771277 -0.93959357705771
 6  16.52193629952995  0.35809016901690  0.38473298049805
 6  17.83688827822782  0.41349274767477 -0.19215503010301
 6  18.78359872937294  1.20215843284328  0.71625205820582
 6  20.14312298149815  1.40953128662866  0.24462922612261
 6  20.32342369616962  2.03739203640364 -1.19107009970997
 6  21.05599653045305  2.11465440174017  1.25434079747975
 1 -4.13633511801180  3.40585610701070  1.62429701660166
 1 -10.25660605330533  3.93491432643264 -0.72957834933493
 1 -10.36177946734673 -2.36626596739674 -1.32922957515752
 1 -2.59034549144914 -0.85859417331733  1.97619831103110
 1 -2.31801540674067  1.79646322892289  1.25465611601160
 1 -1.96068052555255  0.76910736363636  3.59478319181918
 1 -2.96376143614361  2.25853991149115  3.49453161856186
 1 -3.68053149584959  0.44054873887389  3.34921733453345
 1 -2.17785026992699 -1.49872983338334 -0.37760166936694
 1 -2.14374604710471  0.29157640804080 -0.54587462706271
 1 -0.21889540694069  0.65861047494749  0.90056045514551
 1 -0.20085788778878 -1.23342785798580  1.13676763196320
 1 -5.65012378777878  6.83056170027003  0.28811452065207
 1 -5.59189617901790  6.26638000110011  1.96534283138314
 1 -4.53544750075008  5.88014918131813  0.70192336793679
 1 -9.51739379187919  5.87995414351435 -0.63649387758776
 1 -8.92511372727273  8.02185292419242  0.58228785058506
 1 -7.57094656045605  7.24081048054806  1.61743012851285
 1 -12.13451755685569  3.18540886688669 -2.28701170587059
 1 -13.12502217141714  1.89278316951695 -1.42449364086409
 1 -12.43266499759976  3.11498015271527 -0.45372661666167
 1 -12.33510828922892 -1.60802024712471 -0.82959791469147
 1 -13.41232995189519 -0.20900763756376 -1.45560108760876
 1 -12.96131248384838 -1.90623530973097 -3.34800468496850
 1 -12.08717228142814 -0.50494503210321 -3.69959345504550
 1 -11.26127240654066 -1.86743161026103 -3.14805342534253
 1 -8.84401400440044 -4.96473721662166 -1.99140240434043
 1 -7.96839620442044 -5.65507551175117 -0.46712632563256
 1 -9.55565545044504 -5.03736875817582 -0.33163498609861
 1 -3.29478017391739 -3.55965921662166 -0.10253552505250
 1 -1.71572973947395 -4.26986342604260  3.63478639393939
 1 -3.15987559615962 -5.66837845544554  3.59293213211321
 1 -1.55873398489849 -5.77885715891589  2.89827378027803
 1  2.54985428952895 -1.83589542544254 -1.61934589958996
 1  2.50806828442844 -0.05263098349835 -1.81914506670667
 1  4.26196710231023 -1.16528874407441  0.20420363636364
 1  4.08199716321632  1.52818152855286 -2.68384675437544
 1  5.34982039373937  2.33460371927193 -1.64332080028003
 1  5.70720802840284  1.03296440394039 -2.91713044404441
 1  6.57501956485649  1.36420042004200  0.10519316211621
 1  6.32080620002000  0.07111907450745  0.89487920462046
 1  7.41542892759276 -1.13036227142714 -1.44503582718272
 1  8.06227866376638  0.58079128722872 -1.81502442604260
 1  8.95833788538854  1.13477136213621  0.23124075627563
 1  8.66545503420342 -0.59792529872987  0.87826569026903
 1  10.30739829122912 -0.15818328062806 -1.80715560506051
 1  9.07697268276828 -2.48221619811981 -1.46115204000400
 1  10.84692724842484 -2.33519030293029 -1.82940718461846
 1  10.31433431943194 -2.56240818281828 -0.02612205190519
 1  11.52107978887889  0.95679790999100  0.27688917641764
 1  11.43336639003901 -0.76053201450145  0.97204782638264
 1  12.72306562546255 -1.85118327952795 -0.86215388298830
 1  12.70960471297130 -0.26885619461946 -1.59784314561456
 1  13.82813425012501  1.13458601460146  0.23054039703970
 1  14.06678943204320 -0.45304490919092  1.21617813431343
 1  15.36962025052505  0.45791527652765 -1.38568292629263
 1  15.75058250115011 -2.43501379347935  0.01879042514251
 1  14.73989704040404 -2.26512888848885 -1.46271368646865
 1  16.53644327372738 -1.84999052395240 -1.50496196569657
 1  15.85849104980498  1.16477431113111  0.65514205850585
 1  16.41879632683268 -0.17434660976098  1.33920668186819
 1  18.19967090579058 -0.68848539593959 -0.42457579797980
 1  17.98139520402040  0.94032135103510 -1.11556513231323
 1  18.41030182278228  2.19102326002600  1.04047205250525
 1  18.66540370067007  0.65676985798580  1.61897189748975
 1  20.69866477917792  0.31713786198620  0.18178524252425
 1  19.99234334093409  3.11785534743474 -1.21861545494549
 1  21.34928918101810  2.20840749354935 -1.78320968426843
 1  19.70478438283829  1.50857266806681 -1.94768173717372
 1  21.31961793699370  1.57490559965997  2.31008062526253
 1  22.11575328162816  2.23959518921892  0.82593756005601
 1  20.55609533943394  2.88317840114011  1.67335777627763

