%nproc=4
%Mem=3GB
# td=(NStates=1) iop(3/107=0140000000,3/108=0140000000) CAM-B3LYP/6-31G(d,p) 

TD

0 1
12 -7.10208490019002  0.63854223772377  0.02902927292729
 6 -4.97962677917792 -2.03974120472047  0.56058146054605
 6 -4.74855088568857  2.80981969986999  1.23489359455946
 6 -9.34672143664366  3.10819837283728 -0.27858033333333
 6 -9.50187628562856 -1.70627239293929 -0.91659846474647
 7 -5.07601463266327  0.42216830743074  0.78774659865987
 6 -4.34093634093409 -0.77683882708271  0.91673956865687
 6 -2.96613283388339 -0.49733813181318  1.34168983808381
 6 -2.93819704660466  1.03074177577758  1.71992827212721
 6 -4.36021625632563  1.44344899599960  1.26792118601860
 6 -2.86785296609661  1.33369618891889  3.22493780838084
 6 -1.87217294699470 -0.72112810201020  0.11161497179718
 6 -0.52052776197620 -0.36245949394939  0.56466984928493
 6  0.56120804400440 -0.55185180708071 -0.56563635373537
 8  0.15017523432343 -0.86699047674767 -1.65041243434343
 8  1.74467306570657 -0.52822276067607 -0.18442382998300
 7 -7.02032967636764  2.60493370327033  0.36327725182518
 6 -5.98066821062106  3.42249601700170  0.86827270337034
 6 -6.33814872327233  4.76968383198320  0.81348960766077
 6 -7.66613139843984  4.86318812401240  0.34490061646165
 6 -8.07981750925093  3.55967290609061  0.14734273287329
 6 -5.46875890979098  5.91340081378138  0.98909906510651
 6 -8.50153016101610  5.97032730233023  0.01871248374838
 6 -8.45093350335033  7.21720086978698  0.55397945724572
 7 -9.08954799589959  0.71788878327833 -0.53541011491149
 6 -9.75678316461646  1.85003832813281 -0.55808862236224
 6 -11.13506745944595  1.53114255875588 -1.03230809050905
 6 -11.23376286348635  0.17153469926993 -1.29758978727873
 6 -9.93425102870287 -0.33987418081808 -0.90018221952195
 6 -12.28926986468647  2.48253349474947 -1.38965841854185
 6 -12.39196298919892 -0.67913403720372 -1.75844517511751
 6 -12.36763867276728 -1.07234742704270 -3.26381703290329
 7 -7.20484344674467 -1.47306214191419 -0.24883755885589
 6 -8.23801812811281 -2.21082962846285 -0.60142172207221
 6 -7.88260029982998 -3.65476602800280 -0.59077937773777
 6 -6.45398318881888 -3.54632761486149 -0.23039512121212
 6 -6.24719845154515 -2.23608156395640  0.00178201360136
 6 -8.77493983348335 -4.80811691009101 -0.88304168726873
 6 -5.40556601950195 -4.37098066146615  0.24666964106411
 8 -5.29890088238824 -5.59547640464046  0.20899684828483
 6 -4.25686018861886 -3.34018146554655  0.59977829942994
 6 -3.62111628842884 -3.68821676437644  1.95091105960596
 8 -3.74650743414341 -3.15068242614261  3.04823818201820
 8 -2.88776412921292 -4.81188980748075  1.78270730823082
 6 -2.40879983698370 -5.50310551645164  3.02882028242824
 6  2.87009332973297 -0.70741903080308 -1.12146566376638
 6  4.22823370857086 -0.50013528142814 -0.53388595139514
 6  5.12782827412741  0.34365089308931 -1.01303418041804
 6  5.03654738033803  1.19918759405941 -2.17598173317332
 6  6.55001127982798  0.43120373637364 -0.24630515491549
 6  7.68749020162016 -0.24123267126713 -0.95632596129613
 6  8.89527723932393 -0.16730854695470 -0.15318142054205
 6  10.17382284288429 -0.64453611681168 -0.89229494949495
 6  10.18415169176918 -2.04404228412841 -1.38343530953095
 6  11.42563722752275 -0.36131102220222 -0.10622858535854
 6  12.77983571907191 -0.55195522902290 -0.74347185228523
 6  13.91452272407241 -0.00936665096510  0.08046445804580
 6  15.31531752275228 -0.09265834943494 -0.59191484398440
 6  15.62262853385339 -1.47347573587359 -1.07693952025203
 6  16.47112410511051  0.42104862216222  0.36729146384638
 6  17.91343893159316  0.60833456305631 -0.32983951095109
 6  18.75052547114711  1.24824290279028  0.69722297899790
 6  20.24398720312031  1.36443587608761  0.40392709870987
 6  20.55137798359836  2.24486179127913 -0.94915961186119
 6  20.94327939493949  1.91228292819282  1.52185612561256
 1 -3.93405376887689  3.62240549194920  1.28455455125513
 1 -10.00193231653165  3.90396267076708 -0.67090161636164
 1 -10.32243666776678 -2.39147468256826 -1.44537235663566
 1 -2.57587487468747 -1.11809201190119  2.16138262896290
 1 -2.36501996829683  1.66843890499050  1.10825447444744
 1 -1.78030111651165  1.15713481988199  3.68892923032303
 1 -3.02002911201120  2.41308053085309  3.43143116531653
 1 -3.51063386388639  0.81059621392139  3.82101378657866
 1 -1.88216333533353 -1.71964263506351 -0.31319932703270
 1 -2.31645801480148 -0.11860424062406 -0.86814354895490
 1 -0.32401783048305  0.62705229252925  0.91182504550455
 1 -0.31725014531453 -1.12289305590559  1.35314877317732
 1 -5.70143432113211  6.83378089008901  0.42760259155916
 1 -5.38799027032703  6.37490037143714  2.03034504700470
 1 -4.52100694529453  5.72961722972297  0.82142287488749
 1 -9.41107136693669  5.84662804480448 -0.77363871657166
 1 -9.05972503620362  8.01241096209621  0.51049082478248
 1 -7.76866479857986  7.30249708610861  1.27234619491949
 1 -12.03446391939194  3.19064821192119 -2.22254808630863
 1 -13.19277657535753  2.02312105450545 -1.59440516871687
 1 -12.45004603730373  3.34994232833283 -0.63757419691969
 1 -12.35153711861186 -1.65311623442344 -1.23051655255526
 1 -13.35388768786879 -0.14042675317532 -1.51749750415042
 1 -13.25021022022202 -1.69365302740274 -3.40562152025203
 1 -12.45473587928793 -0.16308477977798 -3.89134811321132
 1 -11.39256409580958 -1.49178020522052 -3.64885316351635
 1 -9.26873149174918 -4.72093859465947 -1.83224928792879
 1 -8.13482786798680 -5.81646760006001 -1.25454540964096
 1 -9.54733891289129 -5.13524197259726 -0.13363563226323
 1 -3.49718723722372 -3.51410801640164 -0.25522326042604
 1 -1.91454484208421 -4.73165537893789  3.65115683328333
 1 -3.24873131043104 -5.86840636553656  3.61293233093309
 1 -1.74602512301230 -6.34990577537754  2.75999936103610
 1  2.83701175597560 -1.85436205900590 -1.30855230393039
 1  2.72917935923592 -0.07994991019102 -2.06556761426143
 1  4.62527301400140 -0.93613202700270  0.42989438963896
 1  4.07525283678368  1.29511505420542 -2.55452593829383
 1  5.32575950815081  2.14633505740574 -2.05615305370537
 1  5.55684525302530  0.77996918781878 -3.03846010291029
 1  6.73821200510051  1.39349933053305 -0.15945633173317
 1  6.55817368946895 -0.08787612431243  0.78535473097310
 1  7.42258438123812 -1.37578825182518 -0.94100885808581
 1  8.04488704720472  0.23365246824682 -1.90574139703970
 1  8.88296434073407  0.92073157065707  0.25798822692269
 1  8.76245936673667 -0.61429978267827  0.82098822222222
 1  10.18371300310031 -0.00928478067807 -1.78334349234923
 1  9.26703631273127 -2.19923820732073 -1.92307068896890
 1  11.03875301590159 -2.41834523382338 -1.94456981508151
 1  10.02655485258526 -2.77296141084108 -0.42386978067807
 1  11.63063470507051  0.76473290669067 -0.12373460266027
 1  11.49888748424843 -0.74566586418642  0.84233055315531
 1  13.11383933643364 -1.70214763406341 -0.72932520402040
 1  12.72608843874387 -0.11962702670267 -1.66319065276528
 1  13.49139055935593  0.89232459575958  0.72872770147015
 1  13.98950726132613 -0.53341972087209  1.01398377237724
 1  15.28533893529353  0.57855125212521 -1.47485875467547
 1  15.35794959175918 -2.27609695089509 -0.36009414491449
 1  15.14350599499950 -1.75951047104710 -2.00026139963996
 1  16.74119239883989 -1.35840673767377 -1.33497001030103
 1  16.26494976847685  1.53135146884688  0.71364728102810
 1  16.42479655745575 -0.36156244104410  1.04431292599260
 1  18.30511724942494 -0.32519903390339 -0.64276447204720
 1  17.87236454605461  1.14282317641764 -1.37223296689669
 1  18.27063612051205  2.16732800080008  0.99575152195220
 1  18.82552851535154  0.45560039953995  1.51738498399840
 1  20.78634846714672  0.55838683628363  0.13943983618362
 1  20.15552237073707  3.17987876437644 -0.87123930863086
 1  21.48303210401040  2.23366450855086 -1.50087806900690
 1  20.05356375397540  1.66904719491949 -1.76821520592059
 1  20.90051390489049  1.41545718661866  2.44045771457146
 1  21.94401229402940  1.66792726342634  1.22119877347735
 1  20.89909998849885  3.10376649384938  1.69432656935694

