%nproc=4
%Mem=2GB
# td=(NStates=1) CAM-B3LYP/6-31G(d,p) 

TD

0 1
12 -7.14765533853385  0.67902665076508  0.09882757015702
 6 -4.78137275527553 -1.94221539993999  0.46192272497250
 6 -4.73841377027703  2.83752219951995  1.24359072397240
 6 -9.34672940844084  3.19080457595760 -0.30070292999300
 6 -9.48061837553755 -1.72036754775478 -0.91413784288429
 7 -5.09414283888389  0.41678149624962  0.77390780908091
 6 -4.33079278537854 -0.77339716171617  0.82829085228523
 6 -2.92395140054005 -0.43676310201020  1.21681203540354
 6 -2.94731817021702  1.07737040534053  1.62029275997600
 6 -4.36062305720572  1.50442119091909  1.18922595249525
 6 -2.97407248934894  1.22474476257626  3.13550495939594
 6 -1.95527898889889 -0.65862112351235  0.06677063536354
 6 -0.49924734733473 -0.49433378057806  0.42615674497450
 6  0.39856099329933 -0.70043355625563 -0.72292767326733
 8  0.09623086318632 -1.15228063566357 -1.85678200990099
 8  1.69656146664666 -0.47118451485149 -0.35687247614761
 7 -7.07161760966097  2.58310390019002  0.32003069856986
 6 -5.94094337333733  3.39383035883588  0.67290082368237
 6 -6.27667492059206  4.86044033343334  0.63101378857886
 6 -7.62641534853485  4.85747637913791  0.21382977427743
 6 -8.08884315591559  3.48617781308131  0.07996054235424
 6 -5.30843880058006  5.92280474637464  0.94359912041204
 6 -8.48709650725072  6.09214024772477  0.05809279467947
 6 -8.43015690699070  7.27406352495250  0.67600385018502
 7 -9.05707798039804  0.67898075917592 -0.52457649134914
 6 -9.85500175987599  1.86885683878388 -0.57056338043804
 6 -11.19837893449345  1.49936827592759 -0.97836955645565
 6 -11.20406281018102  0.17236260036004 -1.19772848684869
 6 -9.91131681238124 -0.46961893619362 -0.92536755285529
 6 -12.30755957965797  2.55538610961096 -1.06691346614661
 6 -12.40473501980198 -0.70037744784478 -1.63996480498050
 6 -12.45101258965897 -1.08932134333433 -3.14315943454345
 7 -7.20213968226823 -1.36340595419542 -0.20164484148415
 6 -8.25935617541754 -2.31902707480748 -0.59546450165016
 6 -7.77804394999500 -3.59455772327233 -0.56949422672267
 6 -6.50041392549255 -3.58186252325233 -0.09093082498250
 6 -6.19892248864886 -2.22782106340634  0.03080588478848
 6 -8.71040850825082 -4.74762760516052 -0.78125660406041
 6 -5.35113958425843 -4.34060794429443  0.18148102070207
 8 -5.08417725562556 -5.58206268966897  0.16851388208821
 6 -4.16855043444344 -3.35388117791779  0.47273713901390
 6 -3.57584821572157 -3.75100032133213  1.91230160306031
 8 -3.81611321192119 -3.29625636183618  2.95837851895189
 8 -2.74968616231623 -4.83099782218222  1.74375295619562
 6 -2.09890047794779 -5.27842207130713  2.95444037953795
 6  2.78040055175518 -0.69965776037604 -1.31153235363536
 6  4.01139322832283 -0.57029520582058 -0.67595774477448
 6  5.13483696809681  0.13441970737074 -0.93603337603760
 6  5.08317674067407  1.09480212951295 -2.16183034833483
 6  6.29164349714971  0.27094894509451 -0.09384586978698
 6  7.56632417031703 -0.18587893479348 -0.93530048054805
 6  8.84939681228123 -0.24102923332333 -0.07176898969897
 6  10.13244386888689 -0.60513758545855 -0.78314928542854
 6  10.12812951315131 -1.99712064816482 -1.29460292529253
 6  11.47991086798680 -0.27749152995300  0.09965083368337
 6  12.83001790949095 -0.31322537363736 -0.71979200210021
 6  13.92740220862086 -0.06138734153415  0.22339940744074
 6  15.31156728162816 -0.11738546764676 -0.42305054485449
 6  15.70220188908891 -1.63993162696270 -0.67734735243524
 6  16.32187629352935  0.59073343334333  0.41067557475748
 6  17.74439902930293  0.73691508990899 -0.11846766136614
 6  18.74258462796280  1.38845706270627  0.70236066906691
 6  20.24358302750275  1.35517585108511  0.18898366156616
 6  20.40664201800180  2.13401169836984 -1.13282427512751
 6  21.17392832363236  2.00614355065507  1.32381774517452
 1 -3.83571505600560  3.52843836523652  1.59843443034303
 1 -9.84777517021702  4.19874070907091 -0.27378276977698
 1 -10.17601089048905 -2.30117945874587 -1.31057770997100
 1 -2.59410586748675 -1.05883419731973  2.15045573677368
 1 -2.07096070127013  1.78086166876688  1.17918856925693
 1 -1.89566402390239  1.12251270417042  3.57933164666467
 1 -3.09166422642264  2.36309036653665  3.51892405780578
 1 -3.55478892159216  0.57095177917792  3.67218963176318
 1 -1.81972445734573 -1.76580654105411 -0.39421333053305
 1 -2.29038071057106 -0.08297104670467 -0.66407644724472
 1 -0.33453697109711  0.37133174707471  1.09755015411541
 1 -0.20931873387339 -1.39431394659466  1.23138709390939
 1 -5.49264804020402  6.92858150225022  0.47001271047105
 1 -5.25934292369237  6.09463282638264  1.98337463456346
 1 -4.34608856485649  5.59617078347835  0.63544672027203
 1 -9.16877893039304  5.90052620072007 -0.84137436563656
 1 -9.30577179307931  8.06552729162916  0.34648427022702
 1 -7.62919238503850  7.48553495299530  1.31763014851485
 1 -11.98364246934694  3.29479980598060 -1.85138814351435
 1 -13.33699336853685  2.00429432063206 -1.13777496899690
 1 -12.45566729782978  2.96860551525153 -0.11209245324533
 1 -12.30509528792879 -1.56250569566957 -1.01980693559356
 1 -13.33461218011801 -0.30929766656666 -1.38305383288329
 1 -13.52551890449045 -1.36575126132613 -3.40566045054505
 1 -12.19774333853385 -0.05976051365137 -3.69996349204921
 1 -11.64262054135414 -1.87770263736374 -3.20134875487549
 1 -9.20894049704970 -4.78362910581058 -1.93969723382338
 1 -8.04049341414141 -5.60316032023202 -0.60030964396440
 1 -9.64742462736274 -4.89569459075908 -0.09282110471047
 1 -3.43300399629963 -3.53637688838884 -0.27217248874887
 1 -1.48550671717172 -4.39072551225123  3.39182209750975
 1 -2.84834444304430 -5.63689530713071  3.62371521042104
 1 -1.61896000750075 -6.26936620982098  2.74293824672467
 1  2.69142844694470 -1.73144498039804 -1.44485845084508
 1  2.75457293489349 -0.13711943234323 -2.32046519871987
 1  4.16162706830683 -1.30896311151115  0.12121533753375
 1  3.93999296279628  1.08724743514351 -2.50417878757876
 1  5.42847825952595  2.24282454135414 -1.80818728692869
 1  5.77172448004800  0.77697880538054 -2.97009574057406
 1  6.34530659355936  1.31278527852785  0.43390603340334
 1  6.40679479887989 -0.51411944934493  0.86255597229723
 1  7.44070145484548 -1.31429066426643 -1.23886521012101
 1  7.54750718661866  0.57573078117812 -1.76642956655666
 1  8.71906395799580  0.78422630763076  0.45827345954595
 1  8.63942243094309 -0.88648415461546  0.73840170387039
 1  10.07121467286729  0.23777631533153 -1.65272016151615
 1  9.14717970347035 -2.07238521502150 -1.69239516431643
 1  11.10976353205321 -2.12969975387539 -2.07863210711071
 1  10.30820370637064 -2.78530047204720 -0.57696713641364
 1  11.19587726862686  0.80023225342534  0.51291277877788
 1  11.28673172657266 -1.00822678397840  0.87054767636764
 1  12.91329464836484 -1.40247840904090 -1.18343601120112
 1  12.61179493199320  0.43306399739974 -1.60425378667867
 1  13.93251468816882  1.08682123812381  0.60768811181118
 1  13.89965271837184 -0.64615422012201  1.10123664016402
 1  15.20386367486748  0.10655014001400 -1.62206656465647
 1  15.94490193309331 -2.13507379947995  0.35692423852385
 1  15.02948599929993 -2.29272164776478 -1.12258967406741
 1  16.61751138053805 -1.76030155505551 -1.34275574507451
 1  15.82521772247225  1.53788162186219  0.59366591089109
 1  16.32938738593859  0.23122394729473  1.39436219741974
 1  18.20269120782078 -0.19777632503250 -0.33654699509951
 1  17.72672973747375  1.28247556645665 -1.21297487328733
 1  18.55485627822782  2.48981313901390  0.72544054935494
 1  18.69961712201220  1.02936711771177  1.83311331163116
 1  20.75545045774577  0.48080422862286  0.09010607460746
 1  20.11288539513951  3.14701826372637 -1.05696929032903
 1  21.46499075117512  1.77061371417142 -1.43320468376838
 1  19.89783368776878  1.77632944374437 -2.01291826082608
 1  21.13622959815982  1.38218632773277  2.33217283448345
 1  22.36538824512451  2.00681191089109  1.02070703700370
 1  20.80796052595259  3.10604068736874  1.57567800830083

