%nproc=4
%Mem=2GB
# td=(NStates=1) CAM-B3LYP/6-31G(d,p) 

TD

0 1
<<<<<<< HEAD
12 -7.19960053305330  0.63549229732973  0.12597028442844
 6 -4.86411102910291 -1.97519869826983  0.53311984468447
 6 -4.76895682458246  2.83773222052205  1.08049441434143
 6 -9.41513624912491  3.21052654815482 -0.45679853955396
 6 -9.53473378707871 -1.71980749174917 -0.82793922302230
 7 -5.14349777437744  0.37923774187419  0.82955337363736
 6 -4.36521622772277 -0.68048787078708  0.82908093129313
 6 -2.88504751015101 -0.42173159885989  1.25559591379138
 6 -2.94401784018402  1.06941961026103  1.61244197489749
 6 -4.37540453535354  1.49703045184518  1.19281631153115
 6 -2.70868595069507  1.33072536063606  3.08481989088909
 6 -1.91883534453445 -0.60186544794479  0.06768072637264
 6 -0.48474589718972 -0.45292964016402  0.46884101340134
 6  0.48723986118612 -0.70994450735074 -0.65144052455246
 8  0.19701094119412 -1.08120352795280 -1.74861119281928
 8  1.74763657415742 -0.58340573697370 -0.22253904280428
 7 -7.06505695359536  2.60430602040204  0.20513920942094
 6 -6.02092137113711  3.38081905770577  0.73797733133313
 6 -6.40871812491249  4.82750704010401  0.71597228442844
 6 -7.63955666266627  4.92218284978498  0.32120051135114
 6 -8.08059233083308  3.49825902120212 -0.07037449114911
 6 -5.46888484518452  5.96442890879088  1.30355511601160
 6 -8.53806160376037  6.03465449914991 -0.00400341494149
 6 -8.41056494779478  7.20452657125713  0.72936918671867
 7 -9.13176544914491  0.66188905000500 -0.44982901660166
 6 -9.91913817351735  1.79950990409041 -0.63992031613161
 6 -11.20391948854885  1.44848318741874 -1.00634235373537
 6 -11.23766617051705  0.03467883198320 -1.21880059405941
 6 -9.89920560126013 -0.42975494979498 -0.81152616871687
 6 -12.38180700440044  2.39709028002800 -1.31141791659166
 6 -12.37350189648965 -0.67260467056706 -1.71229203770377
 6 -12.35881336973697 -1.08215062626263 -3.16969208780878
 7 -7.20594006230623 -1.39098871247125 -0.01773645064507
 6 -8.29857009680968 -2.15806097819782 -0.43811876707671
 6 -7.72489863546355 -3.58607687518752 -0.48809608690869
 6 -6.46650053415342 -3.52980731773177 -0.07655938783878
 6 -6.17197979437944 -2.18790707200720  0.13832663686369
 6 -8.62751021842184 -4.74670751315132 -0.87784626302630
 6 -5.29382385268527 -4.43836772027203  0.19362223482348
 8 -5.22941177907791 -5.59101358475848  0.21562859355936
 6 -4.12868644804480 -3.29202499229923  0.54739460476048
 6 -3.55720635153515 -3.71640686198620  1.90631100400040
 8 -3.77748934953495 -3.18895563176318  2.98330101120112
 8 -2.73165435913591 -4.75105982838284  1.72728130903090
 6 -2.13041362926293 -5.26393062216222  2.95632056755676
 6  2.79088159985999 -0.65876367096710 -1.21784298469847
 6  4.18122021102110 -0.42868104440444 -0.61952210121012
 6  5.15146863126313  0.34149041444144 -1.01314108680868
 6  5.07441586458646  1.13114576387639 -2.34296846214621
 6  6.45784011681168  0.31735358555856 -0.28801528672867
 6  7.55734327222722 -0.39183953085309 -1.03913086358636
 6  8.86488836143614 -0.24084921532153 -0.30767258005801
 6  10.18544916941694 -0.63550062176218 -0.99139010951095
 6  10.16705340554055 -2.09056999309931 -1.37751121612161
 6  11.37532040894089 -0.21509529032903 -0.03375250665067
 6  12.79555446314632 -0.57203125422542 -0.71035105800580
 6  13.94049351775177 -0.21798300110011  0.25207227472747
 6  15.37074319921992 -0.09530325942594 -0.46263450325032
 6  15.88588025692569 -1.50839847364736 -1.03731334903490
 6  16.34978908480848  0.58770313031303  0.53433794099410
 6  17.68564315371537  0.68612001040104 -0.02260807540754
 6  18.71696206570657  1.33494171117112  0.87044747774777
 6  20.09059772897290  1.47811814531453  0.39206396959696
 6  20.19783113691369  2.09793809100910 -0.96328732143214
 6  21.23098402920292  1.94708764506451  1.29764512791279
 1 -4.05880736523652  3.74099962136214  1.28344293119312
 1 -10.38223861656166  3.95143597859786 -0.55369076057606
 1 -10.30629391879188 -2.56048538933893 -1.18225487768777
 1 -2.54285074197420 -1.08306662056206  2.10986167736774
 1 -2.31848545374537  1.83742732533253  0.92894354475448
 1 -1.59303376087609  1.51390184308431  3.64618833233323
 1 -3.09947500750075  2.49562361986199  3.19872203760376
 1 -3.43513695639564  0.51942662666267  3.55620803360336
 1 -1.93416590149015 -1.55671563196320 -0.41991590079008
 1 -2.10922259475948  0.17537478787879 -0.71513155275528
 1 -0.30411392879288  0.50676529042904  0.85427582668267
 1 -0.22947074907491 -1.22865738093809  1.24024797999800
 1 -5.61366014141414  6.77884652875287  0.63414912411241
 1 -5.70129711911191  6.21916527962796  2.51889818691869
 1 -4.36197015301530  5.67721888828883  1.24540771637164
 1 -9.25734778727873  6.25271141924192 -0.75797602580258
 1 -8.99223043894389  7.96969770867087  0.68009763156316
 1 -7.70718018381838  7.37101350085009  1.52868125362536
 1 -12.08977308240824  3.14340466646665 -2.11320432513251
 1 -13.23346301550155  1.92868675987599 -1.91085227672767
 1 -12.60258198929893  2.96356501120112 -0.44157540154015
 1 -12.40391516991699 -1.60967041214121 -0.93388834373437
 1 -13.47881660056006 -0.11141787858786 -1.72800832833283
 1 -13.04991134373437 -1.69712439863986 -3.57297718221822
 1 -12.39262282648265 -0.20472501010101 -3.82245574127413
 1 -11.39234551385139 -1.61175604270427 -3.29753837383738
 1 -8.91121072407241 -4.68425916881688 -1.99342260636064
 1 -8.03457282208221 -5.95073507770777 -0.84282389538954
 1 -9.47582746764676 -4.69320434173417 -0.35590741334133
 1 -3.33617431333133 -3.47706095679568 -0.27160243174317
 1 -1.27985615211521 -4.66473291299130  3.31582449774978
 1 -3.09410901950195 -5.39362097969797  3.75218805770577
 1 -1.67282539403940 -6.43665293849385  2.67361131403140
 1  2.90445975007501 -1.62260409630963 -1.61134509950995
 1  2.68712619021902  0.06395067466747 -2.00080323252325
 1  4.34039494509451 -1.10411262646265  0.27922113811381
 1  4.06955591909191  1.25911462186219 -2.41950031973197
 1  5.56527193889389  1.97563782268227 -2.19546601480148
 1  5.68278558615862  0.68961006850685 -3.35445417641764
 1  6.77418948184818  1.47164116411641 -0.16978433563356
 1  6.35155927532753 -0.09736777417742  0.77169688638864
 1  7.42026941164116 -1.50393962916292 -1.29548087168717
 1  7.58782121802180  0.37641084918492 -1.89164208780878
 1  8.88295034663466  0.80294817981798  0.28706633883388
 1  8.76626511521152 -0.93815932213221  0.77836570027003
 1  10.24113166456646  0.00235277297730 -1.98521341084108
 1  9.35321030653065 -2.36210418691869 -2.10714663946395
 1  11.17624017971797 -2.34007079097910 -1.61371561546155
 1  9.94048693469347 -2.59951189318932 -0.57854729442944
 1  11.08204588548855  0.96553878407841 -0.13405191769177
 1  11.36224927832783 -0.48623458475848  1.16521714331433
 1  12.97079039793979 -1.74854301550155 -1.08093576117612
 1  12.59483323582358  0.05085577657766 -1.73328668996900
 1  13.56461789848985  0.93252580858086  0.67674501750175
 1  14.30293304640464 -0.87162676737674  1.02839935643564
 1  15.39651293979398  0.61463094809481 -1.30817517551755
 1  15.93698114101410 -2.31705199729973 -0.15727718161816
 1  15.16368941964197 -2.03975635123512 -1.74330174527453
 1  16.94245387478748 -1.47090261516152 -1.45883735323532
 1  15.88495369606961  1.51372920662066  0.84863140744074
 1  16.18366281348135 -0.23096227132713  1.43294605580558
 1  18.08940987968797 -0.28569511691169 -0.24054739513951
 1  17.67061412591259  1.36543386228623 -0.99649322512251
 1  18.35978677127713  2.43400755845585  1.17100510581058
 1  18.75329248954896  0.83359754075407  1.82817281758176
 1  20.32177709040904  0.33527967616762  0.26991405540554
 1  19.97882198879888  3.16587014891489 -1.12970656405641
 1  21.20846509860986  2.13923057585759 -1.20236159945995
 1  19.51412531693169  1.77751956275628 -1.78985595459546
 1  21.16361233643364  1.57810591969197  2.22747236443644
 1  22.33096480278028  1.59029025872587  0.99133409970997
 1  21.37843757365737  3.08898898219822  1.38028846934693
=======
12 -7.08015858885889  0.63357210531053  0.00125781318132
 6 -4.83610822882288 -1.93942512091209  0.50076660936094
 6 -4.72680260916092  2.81035948324832  1.12403876877688
 6 -9.40831556705671  3.08449394489449 -0.36518937863786
 6 -9.51882219591959 -1.65403091409141 -0.94105053415342
 7 -5.14074749934993  0.45168498659866  0.57892831113111
 6 -4.35913561966197 -0.73183300530053  0.75479350255026
 6 -2.96201520692069 -0.32292171787179  1.23802415661566
 6 -3.04412785118512  1.06563923222322  1.62362309300930
 6 -4.35951294619462  1.55055580438044  1.02708973887389
 6 -3.04858994109411  1.15289757785779  3.15847725662566
 6 -1.85394885588559 -0.61632689408941  0.05130908920892
 6 -0.45551297389739 -0.51794614181418  0.60310443974397
 6  0.56270740794079 -0.84704821772177 -0.54297967846785
 8  0.24413565366537 -1.16010141774177 -1.73821015271527
 8  1.83656546704670 -0.71901929832983 -0.06108289718972
 7 -7.13434388228823  2.67869345914591  0.30211890739074
 6 -6.04520379937994  3.32690366616662  0.72319585318532
 6 -6.45927318041804  4.78512280168017  0.75828651585159
 6 -7.78552125912591  4.87763839533953  0.32752114341434
 6 -8.10043431503150  3.55608480378038  0.06002854915492
 6 -5.57188514521452  5.87902036793679  1.30040480098010
 6 -8.50055785338534  6.04856589028903  0.19710669606961
 6 -8.52070596189619  7.18791491009101  0.81283753355336
 7 -9.06065833843384  0.74989785088509 -0.56456048974897
 6 -9.85497175687569  1.87003695679568 -0.71678800290029
 6 -11.19450854745475  1.43852219131913 -1.21569328882888
 6 -11.18613101700170  0.09455481958196 -1.28838755275528
 6 -9.89451513221322 -0.33935590989099 -0.95530054615462
 6 -12.28379720342034  2.45456602760276 -1.28739551435144
 6 -12.36250079637964 -0.75936334643464 -1.82625343384338
 6 -12.26448393679368 -1.09452186338634 -3.37835295389539
 7 -7.21165063336334 -1.31909152275228 -0.28299297629763
 6 -8.25191543134313 -2.17381255335534 -0.64022897809781
 6 -7.84796094169417 -3.57401566906691 -0.43604088138814
 6 -6.47575145924592 -3.50887522452245 -0.12746447834783
 6 -6.29175177157716 -2.10808909020902  0.07594039823982
 6 -8.55120258765877 -4.83881672407241 -0.58112659105911
 6 -5.39255372567257 -4.39599348284828  0.18296116871687
 8 -5.34004284218422 -5.58426290969097  0.10221725242524
 6 -4.15454903430343 -3.34367015681568  0.55795566086609
 6 -3.59813044394439 -3.71127634893489  1.89253962686269
 8 -3.86405800640064 -3.05174191039104  2.98889157025703
 8 -2.74586578027803 -4.75867058945895  1.85223380428043
 6 -2.44832542044204 -5.39208343744374  3.03240817631763
 6  2.75970848254825 -0.81916971157116 -1.17592879327933
 6  4.12774486348635 -0.73198137443744 -0.59582973197320
 6  5.09799328372837  0.22499876527653 -0.88161793449345
 6  4.97677610061006  1.22097474677468 -1.98617278257826
 6  6.38021235403540  0.31297314751475 -0.12013849904991
 6  7.62311984988499 -0.12071241814181 -0.81080803130313
 6  8.90510238283828 -0.05768089848985  0.00433862106211
 6  10.24744536903690 -0.49410648234823 -0.69266023652365
 6  10.16248294849485 -1.82005294139414 -1.29867333233323
 6  11.40217309420942 -0.22197597839784  0.08219908850885
 6  12.85739064676468 -0.39032308340834 -0.63842386528653
 6  14.05065453385338 -0.08598980178018  0.25302236973697
 6  15.35015114001400 -0.13695742484248 -0.43580181998200
 6  15.67473914281428 -1.63901153495350 -0.66575619331933
 6  16.46249035493549  0.49379373937394  0.34326883408341
 6  17.80701529092909  0.59316071447145 -0.31093690829083
 6  18.96607697719772  1.26632484948495  0.62749318231823
 6  20.41444011321132  1.40858119161916  0.03680844404440
 6  20.37361871567157  2.16420471767177 -1.23160415311531
 6  21.33288421922192  1.95728866516652  1.00113547694769
 1 -3.96288777327733  3.47735325672567  1.38265285218522
 1 -10.01622201490149  3.94289512451245 -0.52754814631463
 1 -10.24374766416642 -2.46425576637664 -1.09172582478248
 1 -2.77116357325733 -0.90277859175918  2.05513620482048
 1 -2.35245885108511  1.79022260486049  1.19647029742974
 1 -2.13331778927893  0.94262471537154  3.55763947744774
 1 -3.33773883388339  2.16680073757376  3.52434459985999
 1 -3.75068851155116  0.37758244224422  3.53196560936094
 1 -2.17201968686869 -1.54109406980698 -0.50259416861686
 1 -2.20508218071807  0.34689193959396 -0.58125816541654
 1 -0.20831434883488  0.51116573047305  0.94923532263226
 1 -0.40216801880188 -1.18734324952495  1.27340129532953
 1 -5.85759453485349  6.76068471257126  0.79552526172617
 1 -5.63392038143814  6.16986034913491  2.29428572567257
 1 -4.29324328032803  5.75566673307331  1.11341451705170
 1 -9.39032108460846  6.04467061516152 -0.48528875707571
 1 -9.23600481638164  8.08929966886689  0.58106772857286
 1 -7.98313777957796  7.60987738723872  1.55173355885589
 1 -12.35161926702670  2.99187951395139 -2.21103410811081
 1 -13.48064773397340  2.08448233943394 -1.36702789428943
 1 -12.31816354745475  3.04654330903090 -0.37248849284929
 1 -12.37651242964296 -1.88262770787079 -1.41247620252025
 1 -13.35883460236024 -0.27004374117412 -1.55134066156616
 1 -13.11394774737474 -1.60972565876588 -3.84368425292529
 1 -12.14035759996000 -0.23178771637164 -3.70759425512551
 1 -11.29606588588859 -1.71068593569357 -3.67518613861386
 1 -9.12785238823882 -4.66194693759376 -1.78148141224122
 1 -7.86867623242324 -5.82866287048705 -0.63131274427443
 1 -9.40748063296330 -5.00117513881388  0.20122830023002
 1 -3.39486018191819 -3.48990224092409 -0.18648391989199
 1 -2.03971213771377 -4.62684912461246  3.65653856915692
 1 -3.34246385498550 -5.61585320292029  3.64625746464646
 1 -1.62735084658466 -6.02730200340034  2.65913986688669
 1  2.78613791789179 -1.78282011791179 -1.72644660966097
 1  2.37822530013001  0.05251953155316 -2.00973412561256
 1  4.33097400300030 -1.26028824402440  0.24282749874988
 1  4.02533149664966  1.32452116251625 -2.33272164186419
 1  5.17101251295129  2.37620787968797 -1.59829629782978
 1  5.71040834843484  1.23315442294229 -2.87368609960996
 1  6.52921498439844  1.31577557755776  0.28154079687969
 1  6.15205932533253 -0.17263530093009  0.98189790649065
 1  7.56913429812981 -1.10962019721972 -1.20361168476848
 1  7.78084051995199  0.30199340744074 -1.74261718531853
 1  9.08648069966997  0.80842872787279  0.41565919811981
 1  8.84818330703070 -0.73346885308531  0.87129499319932
 1  10.22168972037204  0.05939847754775 -1.60810570007001
 1  9.49644462996300 -1.84661263776378 -2.09900582538254
 1  11.11566412211221 -1.97824460836084 -1.74292853675368
 1  9.99349223522352 -2.62831477347735 -0.50051949164916
 1  11.35600328122812  0.89844207440744  0.54604609210921
 1  11.46899995339534 -0.90725668696870  0.91649227082708
 1  12.78667198609861 -1.47047520872087 -1.03332099969997
 1  12.63955770827083  0.44156484748475 -1.38431179247925
 1  13.79248068476848  0.64728728472847  0.69591693469347
 1  14.18547130023002 -0.78840844554455  1.02820933743374
 1  15.22729601810181  0.29193867886789 -1.43032739073907
 1  15.74006144904491 -2.36576686878688  0.12281082718272
 1  14.83745679637964 -2.15867824342434 -1.16600401550155
 1  16.68291792119212 -1.59652517741774 -1.22510397989799
 1  15.93778897959796  1.46708454215422  0.71689823412341
 1  16.45304975217521  0.07180800570057  1.40728348954895
 1  18.22566350505051 -0.43651019841984 -0.71330467086709
 1  17.83304036853686  1.23183050195020 -1.27687126292629
 1  18.60502129472947  2.13721787948795  0.70645865116512
 1  18.94616177647765  0.69661384238424  1.43674367466747
 1  20.80854576727673  0.39773592179218 -0.19531246724672
 1  19.89081318791879  3.26596015791579 -1.05669926332633
 1  21.39639389148915  2.46123277607761 -1.57666903020302
 1  19.98743264766477  1.60186199699970 -2.06008297729773
 1  21.69797577277728  1.35816392549255  1.86027564476448
 1  22.23928563486349  2.02113334303430  0.48077304360436
 1  20.94237396729673  2.97674775807581  1.51734217471747
>>>>>>> 8e03b5b5abfc0030b3aa597dc0de36371bfbd096

