%nproc=4
%Mem=3GB
# td=(NStates=1) iop(3/107=0140000000,3/108=0140000000) CAM-B3LYP/6-31G(d,p) 

TD

0 1
12 -7.15741043274327  0.62678106160616  0.17904427442744
 6 -4.88408722522252 -1.95553278387839  0.61972737513751
 6 -4.74514054465447  2.83280199809981  1.24808491369137
 6 -9.38347511201120  3.10078763176318 -0.32336481178118
 6 -9.61958805680568 -1.72886465216522 -0.77640444534453
 7 -5.15515254645465  0.43214930553055  0.83811163516352
 6 -4.40253250055006 -0.68868001120112  0.87117501220122
 6 -2.93404962556256 -0.52064046204620  1.19376504560456
 6 -2.89148237513751  1.03927262886289  1.63530981028103
 6 -4.31013124782478  1.45491014211421  1.18087248114811
 6 -2.78487466826683  1.14993781308131  3.16704201880188
 6 -1.98995472517252 -0.71403739293929  0.01438524882488
 6 -0.50235594479448 -0.56111935993599  0.45214859715972
 6  0.46500842404240 -0.70062668456846 -0.73161295139514
 8  0.26427664446445 -0.99032280998100 -1.89279667276728
 8  1.70725932433243 -0.43789372777278 -0.24901028862886
 7 -7.06843448684868  2.64572778267827  0.27236816091609
 6 -5.98418856265627  3.38817258465847  0.78526440254025
 6 -6.27135204360436  4.78590545414541  0.83195145384538
 6 -7.62381716701670  4.86093789898990  0.27555368176818
 6 -8.04346387388739  3.50366730553055  0.07928592719272
 6 -5.39213124702470  5.98443791749175  1.19607976317632
 6 -8.51429143714371  5.96914718431843  0.18449906240624
 6 -8.31252966296630  7.17547669736974  0.73258731803180
 7 -9.16363540464046  0.73371036543654 -0.54850142404240
 6 -9.81390887718772  1.87242056635664 -0.70858367186719
 6 -11.19121307400740  1.54861430593059 -1.19414427412741
 6 -11.24532401960196  0.13315086088609 -1.25458548684868
 6 -9.93453105670567 -0.30549074247425 -0.88555075637564
 6 -12.19957089478948  2.58209345074507 -1.49367882058206
 6 -12.37236102900290 -0.64727085088509 -1.74895422602260
 6 -12.19454136303630 -0.95718591089109 -3.24092474367437
 7 -7.30752371477148 -1.42817765346535 -0.05907858295830
 6 -8.39166349264926 -2.28045659115912 -0.45752733263326
 6 -7.96846888668867 -3.59388994039404 -0.41363166296630
 6 -6.61657944844484 -3.60117309940994  0.00718863716372
 6 -6.20458419011901 -2.19520747654765  0.19865170057006
 6 -8.85500784028403 -4.76119221762176 -0.80124350745075
 6 -5.46710217311731 -4.42013557695770  0.26612158625863
 8 -5.34239523182318 -5.62947980498050  0.19764571317132
 6 -4.24734923752375 -3.40670811821182  0.56470479207921
 6 -3.49420359715972 -3.79742768546855  1.89301527002700
 8 -3.58272105550555 -3.06284364226423  2.92318567676768
 8 -2.86046139893989 -4.88397701620162  1.69615865336534
 6 -2.17128608560856 -5.25102030793079  3.05659305970597
 6  2.74824114451445 -0.61839012791279 -1.21616513371337
 6  4.10107099229923 -0.39962523042304 -0.57594015681568
 6  5.18041353265327  0.31091761976198 -0.94022689968997
 6  5.07843156875688  0.93761143644364 -2.40819495449545
 6  6.46186246494649  0.47394801080108 -0.29842036643664
 6  7.65599705230523 -0.07617616561656 -1.07308763746375
 6  8.93507121872187 -0.14695651175118 -0.29331543394339
 6  10.23262872347235 -0.62843450665067 -0.98279399939994
 6  10.23851712831283 -2.13069094899490 -1.37655462146215
 6  11.43918858265826 -0.37879277037704 -0.08426638913891
 6  12.79918765426543 -0.44618465196520 -0.74902240734073
 6  13.92171344314431 -0.08991470577058  0.10527693929393
 6  15.37056304730473 -0.15938502210221 -0.52408806130613
 6  15.83210948194820 -1.60484887318732 -0.88424025032503
 6  16.44199119181918  0.39294581188119  0.51079581428143
 6  17.79870745844585  0.55703943354335 -0.04531105810581
 6  18.73070348894889  1.33117119561956  0.88521177787779
 6  20.11801460586059  1.47193662616262  0.34101080708071
 6  20.26552939873988  2.28353565866587 -0.87494219011901
 6  21.11547661466146  2.01491319121912  1.39580352035204
 1 -3.86780714421442  3.46187943934393  1.38690478627863
 1 -9.97947007030703  3.92704497899790 -0.57826235243524
 1 -10.30125454955496 -2.29028456355636 -1.19609742914292
 1 -2.71267855505551 -1.29218942164216  1.99531602230223
 1 -2.21222468876888  1.62445450655066  1.14870851985199
 1 -1.77359044544454  0.80877998439844  3.53916425382538
 1 -3.12886999609961  2.18535775857586  3.42168019021902
 1 -3.58903170367037  0.68677383168317  3.71472315751575
 1 -2.14575969496950 -1.83317398819882 -0.35765377247725
 1 -2.19687605660566  0.26407402720272 -0.67042377697770
 1 -0.12890831953195  0.24399398669867  1.07926178917892
 1 -0.09777819811981 -1.45184595119512  1.05611907020702
 1 -5.67855203290329  6.91716922892289  0.56887671897190
 1 -5.34990646194619  6.19855273667367  2.29840185268527
 1 -4.31087593219322  5.80585485348535  0.82980371297130
 1 -9.31568182798280  5.71373475547555 -0.46957831053105
 1 -9.14138320202020  7.88117783878388  0.64771454715472
 1 -7.47709564166417  7.43703053945395  1.30589955025503
 1 -11.82579305230523  3.07821696879688 -2.45525135663566
 1 -13.18171546924692  1.98127687008701 -1.76677240544054
 1 -12.19969100180018  3.29722705680568 -0.78133857335734
 1 -12.23925589048905 -1.41029195199520 -0.98857235813581
 1 -13.33839613871387 -0.06258896939694 -1.74068982338234
 1 -13.25694089328933 -1.42052571467147 -3.50489144724472
 1 -12.02034243994399  0.00934246294629 -3.61686066446645
 1 -11.34256909630963 -1.81079210641064 -3.30766904510451
 1 -9.08108272687269 -4.80602710351035 -1.87134319731973
 1 -8.22929731493149 -5.65899185248525 -0.74346430153015
 1 -9.75175935493549 -4.66226467486749 -0.25605787448745
 1 -3.57851537003700 -3.57531413701370 -0.20854859295930
 1 -1.46802018961896 -4.33989620302030  3.24593631123112
 1 -2.88200463776378 -5.35974549944995  3.78178921662166
 1 -1.66899742024202 -6.18162894769477  2.81745510661066
 1  2.37806586138614 -1.64038066086609 -1.66266771547155
 1  2.65161160246025 -0.16060797599760 -2.07702876037604
 1  4.18291877857786 -1.01214962876288  0.40170157035704
 1  4.18669398089809  0.95388093079308 -2.91768225392539
 1  5.67603453565357  1.99133955785578 -2.19605704410441
 1  5.96601617011701  0.40872206310631 -2.95487174407441
 1  6.54942312621262  1.46011599219922 -0.19544993109311
 1  6.22949082118212  0.02461512481248  0.66965316081608
 1  7.31178330113011 -0.97021769476948 -1.63085784298430
 1  7.81758431693169  0.60514961796180 -2.05853667656766
 1  8.87559360366037  1.03758325582558 -0.08832640454045
 1  9.03962708350835 -0.66907526022602  0.64449057245725
 1  10.28660329212921 -0.01491534373437 -1.87158231623162
 1  9.36734634373437 -2.20179846334634 -1.99361774367437
 1  11.37050619121912 -2.71051445074507 -1.68544390249025
 1  9.85380757785779 -2.54470858555856 -0.46821421512151
 1  11.33129477107711  0.63291972537254  0.11385915671567
 1  11.29788738423843 -0.94455575317532  0.87892421252125
 1  12.69600755325533 -1.46640405970597 -1.27414968646865
 1  12.76679250915091  0.08058299429943 -1.71168550225023
 1  13.73769518981898  0.98527389068907  0.41437626632663
 1  13.74421273187319 -0.92832921182118  0.83632600660066
 1  15.56584698609861  0.36348974597460 -1.50230149894990
 1  15.79315311211121 -2.18584792599260  0.12179404390439
 1  15.04308595299530 -2.10048456845685 -1.72890426392639
 1  16.77755603520352 -1.49036993399340 -1.39115562886289
 1  15.92545581908191  1.27779611331133  0.97215313161316
 1  16.40398447624763 -0.37586387118712  1.24209270397040
 1  18.26363310101010 -0.36379289328933 -0.26161635723572
 1  17.99143645324532  1.22749164326433 -0.92237798139814
 1  18.11660071697170  2.24476574457446  0.81301324812481
 1  18.76905286778678  0.91864670417042  1.83511675717572
 1  20.43217304960496  0.47107810541054 -0.06155026282628
 1  19.95551236973698  3.46585736223622 -0.72722490719072
 1  21.23792759355936  2.48694983708371 -1.04685266646665
 1  19.71453985158516  1.94503479367937 -1.70815920032003
 1  21.12143599709971  1.27181282218222  2.39758342714271
 1  22.00144803760376  2.08271874257426  0.97424407800780
 1  20.71873195169517  2.95926204340434  1.84262139883988

