%nproc=4
%Mem=2GB
# td=(NStates=1) CAM-B3LYP/6-31G(d,p) 

TD

0 1
12 -7.09502007500750  0.58753750185019  0.01210889828983
 6 -4.86735135313531 -1.96392757115712  0.47070360306031
 6 -4.79126905580558  2.78536698399840  1.13119948484848
 6 -9.36838157365736  3.07646314181418 -0.28194105380538
 6 -9.53538385208521 -1.73446895789579 -0.81203763286329
 7 -5.13498692329233  0.45658547664766  0.73486390469047
 6 -4.39537924402440 -0.75210503250325  0.86845486868687
 6 -2.93107211261126 -0.44995442114211  1.32845319951995
 6 -2.99545298369837  1.01944461276128  1.61382211291129
 6 -4.36067306220622  1.48878962776278  1.17635466536654
 6 -2.80009509160916  1.21012330043004  3.10704211311131
 6 -1.85923938493849 -0.67349261066107  0.13117707600760
 6 -0.46475389798980 -0.57801214841484  0.59693382268227
 6  0.50882201940194 -0.86295980888089 -0.63330871137114
 8  0.19067030713071 -1.32985839343934 -1.66432276397640
 8  1.74669648014801 -0.51235863226323 -0.18000478937894
 7 -7.09846029392939  2.61642723252325  0.28873756925693
 6 -6.02723200220022  3.34236521232123  0.71958549214922
 6 -6.35750300340034  4.81977626702670  0.67884857205721
 6 -7.71493420042004  4.83367399889989  0.37734612591259
 6 -8.18198246984699  3.55896509180918  0.00215276157616
 6 -5.48850680738074  5.87625009090909  1.18087284778478
 6 -8.53729152675267  6.06763779747975  0.28355534093409
 6 -8.33685757705771  7.13756987558756  0.94386063586359
 7 -9.11813408600860  0.61019388048805 -0.42439647334733
 6 -9.84181044074407  1.76382633573357 -0.63874019811981
 6 -11.17879697629763  1.54490282938294 -1.23642536203620
 6 -11.24229663356336  0.17156252035204 -1.25992470647065
 6 -9.90863654435443 -0.46306828112811 -0.90570558665867
 6 -12.23904272797280  2.52834340534053 -1.66763353815382
 6 -12.39895444174418 -0.58347575767577 -1.86764757325733
 6 -12.21250873927393 -0.96171858305831 -3.31654677327733
 7 -7.20940040834083 -1.29430904450445 -0.16727140414041
 6 -8.25583582338234 -2.15378055015502 -0.45106006120612
 6 -7.88917506310631 -3.53465173267327 -0.40103738103810
 6 -6.54235811991199 -3.55941027802780 -0.02324405630563
 6 -6.25124772117212 -2.16657493879388  0.10925372957296
 6 -8.66015348274827 -4.74718756115612 -0.79328780718072
 6 -5.31771624192419 -4.37622150565057  0.29591246384638
 8 -5.25321415931593 -5.59975445884588  0.38739577027703
 6 -4.19388296769677 -3.30851664146415  0.52518238353835
 6 -3.42595322622262 -3.62975819711971  1.77341771467147
 8 -3.80425202580258 -3.12853959015902  2.90764344544454
 8 -2.55628682238224 -4.57564228662866  1.65424400530053
 6 -2.03466405430543 -5.06632086118612  2.86645158065807
 6  2.73014552625262 -0.86353414801480 -1.30914211461146
 6  4.08229031803180 -0.58572674897490 -0.68156830583058
 6  5.12166565096510  0.19026529192919 -1.02666243894389
 6  5.02203062606261  1.17958060736074 -2.17723188848885
 6  6.34726905970597  0.40034188438844 -0.25002148734873
 6  7.58942648054806 -0.05576592349235 -0.97028397889789
 6  8.90186205880588 -0.07147227762776 -0.10657247004700
 6  10.20910153465347 -0.60570764246425 -0.82518348884889
 6  10.06198289848985 -2.00176111221122 -1.12175564056406
 6  11.47365024192419 -0.35285906670667  0.10307117571757
 6  12.74927983568357 -0.54515856695670 -0.55813583648365
 6  13.98709817821782 -0.04198540134013  0.21509857735774
 6  15.36660278517852 -0.28762249134913 -0.46198443824382
 6  15.74658632753275 -1.74972260606061 -0.80599021672167
 6  16.39262336823682  0.39869422942294  0.44021852905291
 6  17.76217080648065  0.60440183858386 -0.28320413501350
 6  18.70548091759176  1.33253147014701  0.67049748274828
 6  20.17824649384938  1.47067740124012  0.10918568176818
 6  20.21075242904291  2.52356065326533 -1.07908890159016
 6  21.14187511831183  1.96970990729073  1.22835819921992
 1 -4.17112859735974  3.35412093349335  1.69212379927993
 1 -10.08427882058206  4.03115395039504 -0.41895728722872
 1 -10.08293158255826 -2.80367970877088 -1.21549820202020
 1 -2.65728218511851 -0.99336765066507  2.13885457665767
 1 -2.29550315551555  1.80889447204721  1.13757440784078
 1 -1.77440189768977  0.84929538243824  3.44125783928393
 1 -2.88858391839184  2.29777383488349  3.24872703810381
 1 -3.58270171287129  0.86300098409841  3.88533094589459
 1 -2.00436292119212 -1.63809376977698 -0.25595950515052
 1 -2.02719439193919 -0.04786753635364 -0.74333437303730
 1 -0.39028254565457  0.39884449834983  1.07756815591559
 1 -0.46678448044805 -1.25140965616562  1.39674362956296
 1 -5.82049082448245  6.85401404550455  0.65132084128413
 1 -5.74310129952995  6.05112847594759  2.14931122822282
 1 -4.34810876687669  5.62344351075107  1.07008018361836
 1 -9.62040409290929  6.12982913101310 -0.28619884808481
 1 -9.14136535243524  7.93533427232723  0.81308092989299
 1 -7.68448791459146  7.37756415591559  1.78164655015502
 1 -11.88863296839684  3.04066439243924 -2.52274527922792
 1 -12.98995866506651  2.01588547974797 -1.87324851635164
 1 -12.46908863996400  3.11836049074907 -0.69774101810181
 1 -12.49043382178218 -1.39347879297930 -1.32746770167017
 1 -13.45670438933893 -0.14855159195920 -1.87410293779378
 1 -12.99607596019602 -1.52051673787379 -3.74384426892689
 1 -11.96824038823882  0.01189665206521 -4.03725722142214
 1 -11.30251653095310 -1.44865973307331 -3.46525514551455
 1 -9.03978358135814 -4.79041978487849 -1.85029829392939
 1 -8.13447281208121 -5.78520852505251 -0.65196480948095
 1 -9.48977886278628 -5.10470549184919 -0.25424724732473
 1 -3.55968666456646 -3.51425467616762 -0.35785105660566
 1 -1.63198136463646 -4.29071551125112  3.78761167646765
 1 -2.75005461406141 -5.41669328692869  3.36688952785279
 1 -1.40794890639064 -5.94473374657466  2.66552050495050
 1  2.69854915901590 -1.80317215311531 -1.59678364336434
 1  2.40117759535954 -0.25224094449445 -2.05478863106311
 1  4.10168107370737 -1.13388560376038  0.18395161116112
 1  4.03605256875688  1.19159787018702 -2.60104847454746
 1  5.57569298099810  2.06425668456846 -1.85326179437944
 1  5.61971927952795  0.71403251075107 -3.00399913091309
 1  6.52041410431043  1.34655865586559  0.31528417121712
 1  6.20239435883588 -0.19566760416042  0.71768148484848
 1  7.56483386808681 -1.12214144934493 -1.24714603820382
 1  7.78583101900190  0.53468667676768 -1.88642156575658
 1  9.07831988358836  0.89313719871987  0.21359899209921
 1  8.59503799249925 -0.70170567676768  0.83865172887289
 1  10.13049060046005  0.04322686038604 -1.73941883138314
 1  9.20219520502050 -2.18901687818782 -1.91344726952695
 1  10.86915947164717 -2.50444722862286 -1.56057030093009
 1  9.90685357135714 -2.57869981198120 -0.24389382908291
 1  11.36216389728973  0.72404463466347  0.41114260176018
 1  11.32180523392339 -0.97603356465647  0.98001862346235
 1  12.82858617751775 -1.74287244844484 -0.86559422702270
 1  12.76965071757176 -0.07758706770677 -1.54877823912391
 1  13.78479991669167  0.86727928392839  0.53379072207221
 1  14.12982573567357 -0.51688129282928  1.24320083658366
 1  15.30463375187519  0.21991147614761 -1.42418677667767
 1  16.01533897679768 -2.52701299339934 -0.13540499439944
 1  15.08387143784378 -2.33573594919492 -1.41475889098910
 1  16.67611724112411 -1.59731525642564 -1.39929139863986
 1  15.94235943664366  1.32777061076108  0.68700524482448
 1  16.53492793999400 -0.20915009010901  1.20525328652865
 1  18.06170710941094 -0.37657420482048 -0.53914725512551
 1  17.65610267476748  1.08287560646065 -1.24497807360736
 1  18.38596938953895  2.32986714441444  1.03400140544054
 1  18.70817797809781  0.73030721172117  1.54056405670567
 1  20.71192610531053  0.51865801400140 -0.22969590559056
 1  19.63722782938294  3.49779334123412 -0.71903549694969
 1  21.08343259535954  2.93709036183618 -1.48576994029403
 1  19.78923282768277  2.05099691049105 -1.99708667766777
 1  21.25968194339434  1.19871798089809  1.93286290349035
 1  22.18886059235923  2.30513174287429  0.79386435273527
 1  20.80937066696670  2.98104818811881  1.41500194069407

