%nproc=4
%Mem=2GB
# td=(NStates=1) CAM-B3LYP/6-31G(d,p) 

TD

0 1
12 -7.17397797079708  0.63505225332533  0.05921360876088
 6 -4.88023264126413 -1.90374155255526  0.43879041174117
 6 -4.85811574047405  2.81786023332333  1.16276264116412
 6 -9.33075781128113  3.06596209170917 -0.34645750545054
 6 -9.54378469216922 -1.71049656065607 -0.94582101120112
 7 -5.15136856145615  0.47150696879688  0.73562398069807
 6 -4.34977468356836 -0.67715753775378  0.78059608280828
 6 -2.93060206560656 -0.36921634733473  1.24551490569057
 6 -2.98236167456746  1.07877054535454  1.68882961366137
 6 -4.37770476537654  1.54628537733773  1.10895792569257
 6 -2.71942702480248  1.32749503760376  3.16068747764777
 6 -1.93265672667267 -0.63486874827483  0.18701265956596
 6 -0.36651407400740 -0.43974832203220  0.56881101040104
 6  0.53706484368437 -0.74819833273327 -0.58112349284928
 8  0.15550679077908 -1.03984939253925 -1.65652198389839
 8  1.82779458995900 -0.32889028542854 -0.23877066596660
 7 -7.12865331323132  2.60798638843884  0.42312100760076
 6 -6.18240751975198  3.32410338613861  0.83201673527353
 6 -6.43659091219122  4.78050233963396  0.82033272047205
 6 -7.71340404740474  4.81969260076008  0.33658204950495
 6 -8.16123039463947  3.51336053135314  0.10355290159016
 6 -5.51175913261326  5.83200566646665  1.17454221472147
 6 -8.55799359695970  6.07842887658766  0.04165115051505
 6 -8.40577446874688  7.27018313691369  0.62742899269927
 7 -9.13375564816482  0.59832269336934 -0.55645967966797
 6 -9.87080334003400  1.74704465756576 -0.61917824192419
 6 -11.24254335093509  1.49547788688869 -0.99694141364136
 6 -11.25885828972897  0.07941330543054 -1.21527024102410
 6 -9.97471315201520 -0.36748872317232 -0.72990800690069
 6 -12.21329015271527  2.49811038203820 -1.50024679947995
 6 -12.29943448974898 -0.70776818691869 -1.63730453895390
 6 -12.42011950035003 -1.06593900510051 -3.06733185178518
 7 -7.30870033833383 -1.42806241984198 -0.32228690569057
 6 -8.33697393719372 -2.25321049314931 -0.63081803700370
 6 -7.88021416701670 -3.64657292479248 -0.47809508680868
 6 -6.57221110521052 -3.61773611061106 -0.09735146704670
 6 -6.24990758715872 -2.21118940024002  0.05659846404640
 6 -8.74593206060606 -4.92844568696870 -0.86154463286329
 6 -5.36944141444144 -4.45016890039004  0.23411628422842
 8 -5.27998683658366 -5.64040852425243  0.14026105680568
 6 -4.20192377177718 -3.28066385618562  0.62644250955096
 6 -3.53748437933793 -3.62946816811681  1.88700907380738
 8 -3.83604520512051 -3.16798353455346  2.97791047214721
 8 -2.72951414511451 -4.70920564296430  1.72405098599860
 6 -2.15669625752575 -5.34726895599560  2.92684762026203
 6  2.87439995169517 -0.71275907050705 -1.20476167656766
 6  4.11840392939294 -0.38954713101310 -0.60367051605161
 6  5.18393187758776  0.34021028642864 -1.08828860156016
 6  5.17850627362736  1.15427807710771 -2.35895006030603
 6  6.38798313111311  0.45332718291829 -0.36489297449745
 6  7.58915645354535 -0.21401174807481 -1.04943189368937
 6  8.96835870847085 -0.08136326672667 -0.22841465426543
 6  10.24099472397240 -0.60027709940994 -0.85499647014701
 6  9.99414611481148 -2.16767770387039 -1.05517898289829
 6  11.53560643754376 -0.30400418121812 -0.09830896229623
 6  12.84668957665767 -0.47827187828783 -0.79815983888389
 6  14.04062353075308 -0.08220942374237  0.14702176967697
 6  15.49445557045705 -0.24169789888989 -0.41296953675368
 6  15.75109677857786 -1.68468610241024 -0.93134275197520
 6  16.50238434433443  0.29341370137014  0.55144965216522
 6  17.92455704510451  0.36175757415742 -0.02517833243324
 6  18.82489285878588  1.25364358135814  0.75849628262826
 6  20.20313898309831  1.40445077857786  0.25646040924092
 6  20.22232358615862  2.36141443864386 -0.99939093179318
 6  21.10822175297530  2.18324126042604  1.27111247464746
 1 -4.25576706120612  3.68397391879188  1.58420300720072
 1 -10.05685607830783  3.83621445644564 -0.74419981148115
 1 -10.19132242164216 -2.62851219201920 -1.16693334553455
 1 -2.85167162406241 -0.91253956785679  2.23464415561556
 1 -2.16935054025403  1.58284186678668  1.23087373777378
 1 -1.85945040254025  0.65554600750075  3.56795050855085
 1 -2.61956701670167  2.48291234873487  3.34582674807481
 1 -3.52266570927093  0.83751843584358  3.84327674047405
 1 -2.12010449534954 -1.69765972637264 -0.30273418261826
 1 -2.14049572207221  0.19093634403440 -0.53629366896690
 1 -0.10713423082308  0.47917253115312  1.13739413851385
 1 -0.01042884488449 -1.13767828302830  1.35155911111111
 1 -5.57697647304730  6.81223986808681  0.62882859205921
 1 -5.62772976237624  6.02963632673267  2.17140343744374
 1 -4.55475943194319  5.56616778317832  0.96312948854885
 1 -9.33860591309131  6.03527967606761 -0.88494872307231
 1 -8.84888610451045  8.51165190409041  0.34242386418642
 1 -7.75094456025603  7.27424382388239  1.53061144664466
 1 -11.91378548364836  3.11787211321132 -2.34380738543854
 1 -13.10599026822682  2.02395628682868 -1.81920311181118
 1 -12.40375210631063  3.24878353305331 -0.76696794079408
 1 -12.07097187558756 -1.59809925502550 -1.09588454335433
 1 -13.16947566646665 -0.26898363516352 -1.39368489598960
 1 -13.04768112071207 -2.11592627882788 -3.34656454095410
 1 -12.71446501070107 -0.25787032463246 -3.71974547024702
 1 -11.44574085338534 -1.11811667876788 -3.64453307330733
 1 -8.95853545654566 -4.78227897079708 -1.88893215731573
 1 -8.10468983378338 -5.88737874207421 -0.61169078207821
 1 -9.59593947884788 -4.92212723402340 -0.30297211981198
 1 -3.56218691459146 -3.52104535523552 -0.42338761026103
 1 -1.52229039553955 -4.61983842354235  3.66342925822582
 1 -2.86111572017202 -5.75569718731873  3.71520435933593
 1 -1.23989210071007 -6.05385465866587  2.67367132003200
 1  2.80472977707771 -1.54581641754175 -1.45244920992099
 1  2.66920439803980 -0.13065878627863 -2.13822697489749
 1  4.23771467706771 -0.96223843904390  0.40992420842084
 1  4.11948091159116  0.95900461086109 -2.83745211491149
 1  5.38742415411541  2.33028328722872 -2.23007947614762
 1  5.83685099269927  0.93320442794279 -3.35216394739474
 1  6.75172723562356  1.43205720572057 -0.22383974117412
 1  6.17114123352335  0.06299826242624  0.70787050375037
 1  7.42402978767877 -1.15373460866087 -1.22352367596760
 1  7.60616305220522  0.36996020412041 -2.08093101670167
 1  9.06730878247825  1.07400528552855 -0.06774914271427
 1  9.02405089378938 -0.63617912411241  0.72374023772377
 1  10.43251080248025 -0.04876233853385 -1.87642253175317
 1  9.28518350385039 -2.20020799729973 -1.89343526832683
 1  10.95949850555056 -2.44081086498650 -1.53610785468547
 1  9.97367025302530 -2.82735467746775 -0.07922736243624
 1  11.47101478237824  0.69603183338334  0.33423491099110
 1  11.44711776517652 -0.86050201150115  0.83149377097710
 1  13.01797511641164 -1.48950711191119 -1.18138580618062
 1  13.03488724122412 -0.01307061606161 -1.77959132043204
 1  13.96722815951595  1.01757431343134  0.37450479347935
 1  13.94504725782578 -0.78345795049505  1.00287680418042
 1  15.44878816731673  0.48405789078908 -1.13305766376638
 1  15.31729917281728 -2.41079137123712 -0.06644809870987
 1  14.94718776947695 -1.96278865446545 -1.54628204330433
 1  16.76729635903590 -1.64916044094409 -1.17783925342534
 1  16.21453665436544  1.31395922962296  0.85612215651565
 1  16.83460790799080 -0.42065124022402  1.33470623182318
 1  18.35129606830683 -0.59925647304730 -0.25377871827183
 1  17.80056712121212  0.80869818871887 -1.16716029182918
 1  18.39580037263726  2.16466062376238  1.02773077837784
 1  18.92561972227223  0.74896907790779  1.80208020832083
 1  20.49996490919092  0.55470161836184 -0.01321425742574
 1  19.78029213581358  3.39002256415642 -0.79006259965997
 1  21.26738099019902  2.43314996779678 -1.35814717801780
 1  19.53735764016402  2.05752756355636 -1.90489745874588
 1  21.42812878807881  1.31002911201120  2.20801041824182
 1  22.23488519481948  2.46109733943394  0.95985095139514
 1  20.76851658155816  3.05321540484048  1.58550899139914

