%nproc=4
%Mem=2GB
# td=(NStates=1) CAM-B3LYP/6-31G(d,p) 

TD

0 1
12 -7.14774534753475  0.52184093219322  0.14623231063106
 6 -4.93237785578558 -1.94392557095710  0.41998853155316
 6 -4.73977390629063  2.75910435773577  1.19138550345034
 6 -9.36842157765776  3.07682317781778 -0.38931179087909
 6 -9.65994630833083 -1.78033354435444 -0.74226065516552
 7 -5.10664408900890  0.48321813991399  0.63035345364536
 6 -4.36378608470847 -0.72426224822482  0.76774479767977
 6 -2.81314031943194 -0.38457788348835  1.17839819401940
 6 -2.96423986238624  1.10667333563356  1.63363409410941
 6 -4.36550354525453  1.45330607940794  1.06200323022302
 6 -2.97649273137314  1.16300858895890  3.20592200110011
 6 -1.88373183418342 -0.63396865826583  0.00726468476848
 6 -0.45530295289529 -0.38186253345335  0.45664979427943
 6  0.54167530473047 -0.54646815971597 -0.69230461096110
 8  0.25247648774877 -0.93819922752275 -1.78980531223122
 8  1.73646545704570 -0.37391478787879 -0.28640542944294
 7 -7.11352180008001  2.64903049284929  0.33620231573157
 6 -6.05295457445745  3.29058003380338  0.78370190379038
 6 -6.47757501060106  4.84636892629263  0.84247493469347
 6 -7.69276198319832  4.88080871237124  0.36025441674167
 6 -8.11279555115512  3.43550274557456  0.09281182748275
 6 -5.44682263896390  5.92574504040404  1.16990175067507
 6 -8.52817061466147  6.06490752445245  0.03924090949095
 6 -8.59231312261226  7.15590170877088  0.90445669546955
 7 -9.03522579517952  0.65851871297130 -0.62189622332233
 6 -9.85762202190219  1.79010896399640 -0.70278660276028
 6 -11.20027912451245  1.53242158125813 -1.24781650115011
 6 -11.19450185408541  0.07969333343334 -1.23066178017802
 6 -9.97554323502350 -0.41895386968697 -0.87391240734073
 6 -12.34298312201220  2.43566413741374 -1.39502627742774
 6 -12.26936148244824 -0.74632204230423 -1.70997180568057
 6 -12.39258674707471 -1.28019043024302 -3.13776889548955
 7 -7.30019948824883 -1.42122173577358 -0.15102977997800
 6 -8.33445368516852 -2.21198637073707 -0.50781573677368
 6 -7.91266741234123 -3.63302156965697 -0.32559983728373
 6 -6.56083996809681 -3.59681401840184 -0.03413514541454
 6 -6.22136473287329 -2.23116139743974  0.12212501670167
 6 -8.54176164356435 -4.91953479587959 -0.78611709010901
 6 -5.42300677097710 -4.40886476997700  0.26096896949695
 8 -5.24624346224623 -5.52508699209921  0.24726175687569
 6 -4.26402998239824 -3.33915970577058  0.53236310161016
 6 -3.59544017491749 -3.64747996929693  1.91918229112911
 8 -3.78011961256126 -2.99683641984198  2.91509419051905
 8 -2.76391758545855 -4.69035375777578  1.81079966086609
 6 -2.09363995189519 -5.15985021412141  2.99446438193819
 6  2.76434894659466 -0.53657145174517 -1.29956115651565
 6  4.11957404640464 -0.38177635393539 -0.60586073507351
 6  5.21841532593259  0.40200646604660 -1.01948172087209
 6  5.09488791179118  1.14770742004200 -2.37630179547955
 6  6.50398473127313  0.35707755795580 -0.30838732393239
 6  7.67945548344835 -0.20188053495350 -1.07963491399140
 6  8.97879975257526 -0.06921205160516 -0.24941675447545
 6  10.26753737823782 -0.53821089278928 -0.87695866636664
 6  10.11629833003300 -2.01475241134113 -1.23688715371537
 6  11.46097897479748 -0.18815259605961 -0.00787991939194
 6  12.72907781548155 -0.38741279237924 -0.72532255515552
 6  13.90176964536454 -0.12533373617362  0.25465253275328
 6  15.33725985088509 -0.15972970207021 -0.38197643744374
 6  15.65835750465046 -1.57334496829683 -0.89851946964696
 6  16.48957306320632  0.40544490449045  0.50936544374437
 6  17.85548013741374  0.52317371577158 -0.16623243784378
 6  18.86151652115212  1.23592180918092  0.80703113611361
 6  20.29050771997199  1.21489182268227  0.28343310651065
 6  20.42364371817182  2.13436173337334 -1.00117110981098
 6  21.18566949774977  1.79158209450945  1.33779914331433
 1 -4.12039352385239  3.53744926632663  1.66877146404640
 1 -10.22845323802380  3.91950278527853 -0.33074846634664
 1 -10.33145643504350 -2.58079742054205 -1.09809646184618
 1 -2.51767822472247 -1.04691300520052  2.07162785398540
 1 -2.32378598379838  1.86530011261126  1.26158680908091
 1 -2.03418787628763  0.67106755965597  3.96273998749875
 1 -2.58883394339434  2.19754381188119  3.59446161156116
 1 -4.13486692939294  0.77850253425342  3.42992540534053
 1 -2.08048053295329 -1.61374133453345 -0.59522343154315
 1 -1.90411208370837  0.24586183658366 -0.72354239383938
 1 -0.31199471687169  0.64371898579858  0.86568696779678
 1 -0.37575537753775 -1.10248476367637  1.24005796099610
 1 -5.76631540694069  7.02257090119012  0.98465417461746
 1 -5.21071806120612  6.10158352145215  2.26335263236324
 1 -4.37117107310731  5.89199036543654  0.81968514411441
 1 -9.05835788828883  5.86194234233423 -0.96900712891289
 1 -9.21172238813881  7.95203594249425  0.81643126492649
 1 -8.01295076087609  7.14586098559856  1.81495988148815
 1 -12.00929503460346  2.97836816281628 -2.30531353605361
 1 -13.21294096329633  1.63956784798480 -1.33705489698970
 1 -12.37278901000100  3.25975463016302 -0.69544078807881
 1 -12.37120189858986 -1.80513995909591 -1.28468342324232
 1 -13.25655437433743 -0.23937067386739 -1.66119164666467
 1 -13.17907426002600 -2.25848053425343 -3.16964684918492
 1 -12.45894945914591 -0.54716925452545 -3.90035353105311
 1 -11.65386166546655 -1.73965883298330 -3.38115673567357
 1 -8.76818642164216 -4.83469421232123 -1.85266853095310
 1 -7.97107647244724 -5.80854085828583 -0.57931754475448
 1 -9.54846473137314 -4.97325234653465 -0.11632345494549
 1 -3.53040373627363 -3.57935118581858 -0.18928419991999
 1 -1.59589775627563 -4.43339977967797  3.47007992329233
 1 -2.96845645424542 -5.46531814941494  3.55451829072907
 1 -1.53285139663966 -6.15171444464446  2.46973092599260
 1  2.48379768386839 -1.44853668956896 -1.79812377737774
 1  2.39392687028703  0.37669194879488 -2.13004615681568
 1  4.22497340294029 -1.12871508670867  0.15586880288029
 1  4.04955391889189  1.51976068646865 -2.75958432813281
 1  5.62967837953795  2.00907116601660 -2.23639010721072
 1  5.60087739533953  0.55033614111411 -3.17835656665667
 1  6.65439750265026  1.40815481548155 -0.03656101330133
 1  6.34660878027803 -0.31875991339134  0.61105082178218
 1  7.52153953865387 -1.29635887108711 -1.37218854245425
 1  7.85091752765276  0.38198140624062 -1.95811873547355
 1  8.93079513111311  1.07222510751075 -0.12426479427943
 1  8.62758124682468 -0.43051855805581  0.70240810451045
 1  10.25896344774477  0.10083262096210 -1.71579646914692
 1  9.11014600010001 -2.16290426692669 -1.81689761456146
 1  11.05868842454245 -2.24230101400140 -1.98510275417542
 1  10.13560644664467 -2.69156109810981 -0.28425786548655
 1  11.54667234813481  0.81879410961096  0.30267175467547
 1  11.21521457485749 -0.98170413171317  0.83625424702470
 1  12.80914423332333 -1.38329649084909 -1.31024869246925
 1  12.67526127862786  0.30163085408541 -1.59693305460546
 1  13.94392582928293  0.99031158715872  0.56458380138014
 1  13.95124787788779 -0.86248585328533  1.13420993749375
 1  15.33807709620962  0.50012949794979 -1.38010236823682
 1  15.74945238813881 -2.19693998609861  0.02973151925193
 1  14.92990604130413 -2.01479385498550 -1.58643605870587
 1  16.73746337573758 -1.70512603750375 -1.32254372387239
 1  16.10633583428343  1.50179801350135  0.98240478477848
 1  16.70198464566456 -0.29142831793179  1.36855961716172
 1  18.30161109980998 -0.50577712511251 -0.13377671807181
 1  17.81026809130913  1.14741206010601 -0.97570114591459
 1  18.44840563316331  2.21369552725273  0.99987799309931
 1  18.61676883718372  0.70302448344834  1.74402440274027
 1  20.57498241094109  0.18307445564556  0.01517858185819
 1  19.66950105670567  3.01624518641864 -0.88263185658566
 1  21.55045929802980  2.34646129892989 -1.45914727802780
 1  19.85111901630163  1.63354516531653 -1.77457442644264
 1  21.35027100230023  1.32485059415942  2.29847946514651
 1  22.37492919921992  1.92837406710671  0.97498246454645
 1  20.91613134303430  2.87898798209821  1.72946338683868

