%nproc=4
%Mem=2GB
# td=(NStates=1) CAM-B3LYP/6-31G(d,p) 

TD

0 1
<<<<<<< HEAD
12 -7.18494906790679  0.60712946104610  0.11896958435844
 6 -4.83414803280328 -1.99211038943894  0.48598513121312
 6 -4.85858578747875  2.91484993229323  1.04739110401040
 6 -9.51038577407741  3.00553604910491 -0.25374823452345
 6 -9.45902621632163 -1.77853336433643 -0.91074750385039
 7 -5.10376380098010  0.53714353245325  0.67917833613361
 6 -4.37331703780378 -0.68859868186819  0.78602662586259
 6 -2.97674668006801 -0.34912433813381  1.21542189638964
 6 -3.03893733213321  1.18638130643064  1.60323105380538
 6 -4.45552254715472  1.57263801260126  1.16882391229123
 6 -2.75810089218922  1.51265355345535  3.12877428632863
 6 -1.90929439043904 -0.57046230763076  0.15031899019902
 6 -0.49990741334133 -0.39398374557456  0.58296242554255
 6  0.50984212141214 -0.64935844874487 -0.50677605810581
 8  0.32309354945495 -1.06468187578758 -1.66554288598860
 8  1.84334614511451 -0.38238563496350 -0.03872066096610
 7 -7.23935438333833  2.61689727952795  0.37929662516252
 6 -6.18976825582558  3.43351432723272  0.77523105670567
 6 -6.55700295339534  4.85478976837684  0.86759744694469
 6 -7.85967867486749  4.79305993749375  0.39623801510151
 6 -8.28545281688169  3.45912510781078  0.15749829612961
 6 -5.67614557125713  6.05116758265827  1.11644640514051
 6 -8.69910770837084  6.01754278797880  0.21802878827883
 6 -8.67219111041104  7.25629174777478  0.78666491629163
 7 -9.07774004660466  0.60282314341434 -0.61685571927193
 6 -9.85062132183218  1.63455340844084 -0.65358168226823
 6 -11.21690078667867  1.31839017811781 -1.14415613511351
 6 -11.23735613951395 -0.05162979887989 -1.28753746774677
 6 -9.95351103180318 -0.49041101540154 -0.91449646574657
 6 -12.30416924062406  2.33217378837884 -1.45648242304230
 6 -12.49609415571557 -0.82480989108911 -1.59301010951095
 6 -12.54628211661166 -1.04971738293829 -3.17426254485449
 7 -7.12053152145215 -1.38846846044604 -0.35051972897290
 6 -8.19615985578558 -2.31083625572557 -0.68116307150715
 6 -7.72322846844684 -3.68725699319932 -0.45667294459446
 6 -6.40235411951195 -3.54631896889689 -0.19675140704070
 6 -6.12957555395540 -2.13413169446945 -0.03782097789779
 6 -8.47707517491749 -4.95059790219022 -0.72973145154515
 6 -5.20390486078608 -4.35858974247425  0.18643151575157
 8 -5.03459229712971 -5.48830331373137  0.11199823052305
 6 -4.10841442084208 -3.31450724052405  0.50771063636364
 6 -3.46685731663166 -3.62585780708071  1.82920329322932
 8 -3.70063166376638 -2.98863559975998  2.77266994809481
 8 -2.58805999969997 -4.61012573497350  1.67049563046305
 6 -2.00501108900890 -5.05886011511151  2.90750568606861
 6  2.92050456215622 -0.70079787438744 -0.93714491489149
 6  4.21787387638764 -0.36723489978998 -0.36793694269427
 6  5.17990147454745  0.47321358675868 -0.79770954365437
 6  5.05748417141714  1.23791644094409 -2.11017518281828
 6  6.46103043584358  0.57867971817182 -0.18614509970997
 6  7.62906044394439 -0.27635798269827 -1.00439739023902
 6  8.99380125272527 -0.18462359275928 -0.19924173697370
 6  10.13632425692569 -0.52817988968897 -1.05172614311431
 6  10.08959565976598 -2.04370530663066 -1.42444590959096
 6  11.41448432533253 -0.21987576837684 -0.11224035543554
 6  12.77856276397640 -0.61119517061706 -0.78170819371937
 6  13.99975944434443 -0.16453765656566  0.09401646914691
 6  15.38066419131913 -0.30385411451145 -0.43014125392539
 6  15.69243091199120 -1.82775040884088 -0.73048266596660
 6  16.45762986888689  0.35157951795180  0.43270777797780
 6  17.85296988638864  0.44550594899490 -0.06356217081708
 6  18.78169853935394  1.19016723372337  0.85044547754775
 6  20.19182785198520  1.32016234973497  0.20973573677368
 6  20.20345169896990  2.03977227442744 -1.15598659135914
 6  21.17086801760176  1.88256119241924  1.26974233763376
 1 -4.32490397489749  3.76890241164116  1.44649923682368
 1 -10.31498189088909  3.91448228322832 -0.49759515101510
 1 -10.24469775917592 -2.82369170997100 -1.01389804200420
 1 -2.60866732363236 -1.05824413831383  2.00570126132613
 1 -2.37582118731873  1.84842842544254  0.93557420782078
 1 -1.81095555305530  1.12225267816782  3.40624433793379
 1 -2.87731279127913  2.63655771327133  3.16776894229423
 1 -3.66410985368537  1.01535621962196  3.66818923172317
 1 -2.21062354725473 -1.63690365076508 -0.07086099529953
 1 -2.03779545204520  0.01335858625863 -0.63719375897590
 1 -0.21087460486049  0.46364097799780  1.16102650175017
 1 -0.42366016801680 -1.26843135833583  1.34173812901290
 1 -6.09284806020602  6.79894853895390  0.37724343354335
 1 -5.40215720512051  6.27237060016002  2.24872116921692
 1 -4.60258421442144  5.93588475487549  0.69967314291429
 1 -9.46617867036704  5.87192334043404 -0.61462169036904
 1 -9.59065028092809  7.95884662356236  0.63146276807681
 1 -8.09034850065007  7.34437083658366  1.58665705120512
 1 -12.10957506260626  3.10659098509851 -2.26387939263926
 1 -13.25932560176017  1.91946583778378 -1.49738092959296
 1 -12.16713844494450  3.21839049374938 -0.53638488248825
 1 -12.51487626602660 -1.68583802890289 -0.95672062696270
 1 -13.28533725262526 -0.11831856865687 -1.21395692319232
 1 -13.42862921552155 -1.94468915511551 -3.43830371487149
 1 -12.48751231543154  0.04496995939594 -3.54595809150915
 1 -11.55271155045505 -1.42047691479148 -3.49635825582558
 1 -9.04065366836684 -4.76158690159016 -1.60014327842784
 1 -7.91384074887489 -5.85217522172217 -0.90319993299330
 1 -9.41146103100310 -5.03767878917892  0.13434161156116
 1 -3.37486818271827 -3.69886313701370 -0.33067833933393
 1 -1.49425759225923 -4.32606904660466  3.36479939523952
 1 -2.96943655225523 -5.27824944254426  3.49803264216422
 1 -1.38597670917092 -5.89847912111211  2.48650260316032
 1  2.88142744684468 -1.78251008690869 -1.14238820382038
 1  2.81613909150915 -0.00601632203220 -1.90183333553355
 1  4.45122602820282 -0.98454066926693  0.68365158115812
 1  3.92623158665867  1.33912262266227 -2.45450382008201
 1  5.46032144384438  2.23973423232323 -1.99902637083708
 1  5.71028833643364  0.80715182268227 -2.90149888088809
 1  6.77991005390539  1.76680068006801 -0.09493685088509
 1  6.40813493289329  0.12648461106111  0.86834655135514
 1  7.30261764646465 -1.12698193339334 -1.25015633923392
 1  7.71938437433743  0.14478768686869 -1.88670159375938
 1  9.22386443804380  0.93836172117212  0.12845047724772
 1  8.94109259795980 -0.74398990519052  0.66876474017402
 1  10.20384793619362  0.12255479317932 -2.01941683118312
 1  9.16025101060106 -2.13166114261426 -1.96715264006401
 1  10.81197375307531 -2.42776956085609 -2.07477172107211
 1  9.90045293129313 -2.74285622762276 -0.55839527922792
 1  11.40943862476248  0.75518774897490  0.10188167566757
 1  11.19253230663066 -0.70536649794980  0.86087670927093
 1  12.58650196909691 -1.67557571877188 -1.05655332293229
 1  12.79068282078208 -0.14891420042004 -1.84033739503950
 1  13.91963340004000  1.05618817481748  0.19067641064106
 1  13.89346209930993 -0.83811341604160  1.03003952045205
 1  15.53541683018302  0.20150963596360 -1.48129248724872
 1  15.60582802570257 -2.52107239933993  0.17990653675368
 1  14.95654870557056 -2.38913128872887 -1.54301171627163
 1  16.79732936233624 -2.02684820972097 -1.14056552605260
 1  15.93526872757276  1.34033186688669  0.73600014431443
 1  16.43352779997999 -0.18345752085209  1.45391815301530
 1  18.31736267496750 -0.59353590099010 -0.15389873027303
 1  18.01574863936394  0.74932225112511 -1.21773534933493
 1  18.41888268086809  2.15472963066307  1.35877388268827
 1  18.96582374267427  0.54075825682568  1.77356735703570
 1  20.61833674637464  0.32049819801980 -0.11533446944695
 1  19.92013612021202  3.27621118301830 -0.88592218561856
 1  21.27878213031303  2.08073472627263 -1.48581994529453
 1  19.47595149954996  1.51702351315131 -2.00854782378238
 1  21.01226720192019  1.38475658475848  2.23890350755075
 1  22.08846055235523  1.78625985568557  0.87324229052905
 1  20.96771650155016  2.94552463576358  1.42970341084108
=======
12 -7.03360393339334  0.57005575367537  0.07041472887289
 6 -4.84273889188919 -1.95998717711771  0.55080161286129
 6 -4.84002393129313  2.85940438773877  1.16317268216822
 6 -9.38014274977498  3.04305980148015 -0.44102696239624
 6 -9.46464677837784 -1.73303881488149 -0.88967539663966
 7 -5.08519194379438  0.43221303940394  0.50383080138014
 6 -4.36141584768477 -0.73607342934293  0.72554057725773
 6 -2.88755776117612 -0.48151757745775  1.23497385158516
 6 -3.09427286568657  0.98778144644464  1.67595832653265
 6 -4.38053504840484  1.45960670947095  1.08712574247425
 6 -3.02293737583758  1.24855714381438  3.20484189308931
 6 -1.87493095409541 -0.68650391179118  0.05894985328533
 6 -0.44376179877988 -0.47947229442944  0.58156228552855
 6  0.55748688588859 -0.70345385828583 -0.48640402090209
 8  0.27115835593559 -1.03790919851985 -1.72622895459546
 8  1.78318012851285 -0.36862425882588 -0.18084487338734
 7 -7.11958240614061  2.66627221702170  0.38901759725973
 6 -6.04674395339534  3.39471044684468  0.83605713931393
 6 -6.42507976107611  4.87580186958696  0.76208689588959
 6 -7.77267997499750  4.90285091659166  0.35079347064706
 6 -8.16725099669967  3.52687188248825  0.10016256255626
 6 -5.46709466616662  5.87587005290529  1.19394415491549
 6 -8.57355515311531  6.11907294099410  0.09393637903790
 6 -8.60736462776278  7.22430854945495  0.82974922472247
 7 -9.06303857645764  0.67549041014101 -0.49446348004800
 6 -9.88369462916292  1.82009196229623 -0.63951027512751
 6 -11.19914901150115  1.46906524562456 -1.22589430893089
 6 -11.20778318221822  0.14787015111511 -1.30486920092009
 6 -9.88988466916692 -0.39005097939794 -0.95742075817582
 6 -12.30525934963496  2.47177774877488 -1.54561133593359
 6 -12.35291983828383 -0.71705911601160 -1.79005981448145
 6 -12.06879436783678 -1.09114152535254 -3.24169928852885
 7 -7.12948241654165 -1.40920053365337 -0.22206688368837
 6 -8.20306054585459 -2.20634580668067 -0.57924287948795
 6 -7.86426257185719 -3.65297356485649 -0.46084336163616
 6 -6.51098498259826 -3.60336467346735 -0.05530726262626
 6 -6.13881647804780 -2.19082736403640  0.21147395159516
 6 -8.77111457885789 -4.82480532293229 -0.72288076647665
 6 -5.40639510981098 -4.38353223672367  0.25770864346435
 8 -5.16523536143614 -5.58654313771377  0.14013104380438
 6 -4.27095067446745 -3.40947673747375  0.63456332163216
 6 -3.51594222512251 -3.78061328262826  1.97120749364937
 8 -3.86052765336534 -3.27102383858386  3.07205988708871
 8 -2.70560175387539 -4.83443816621662  1.71669024992499
 6 -2.23162375027503 -5.40425465456546  2.91998693419342
 6  2.85270778247825 -0.45983377797780 -1.21642284268427
 6  4.12409449844985 -0.23317149344935 -0.48669881888189
 6  5.09834331873187  0.54925119051905 -0.93236300900090
 6  5.09336775977598  1.32357500680068 -2.23915808110811
 6  6.45860019281928  0.55029687988799 -0.21704819001900
 6  7.55982352025203 -0.13874422132213 -1.00471742224222
 6  8.92836470907091 -0.15873100350035 -0.18919073187319
 6  10.12048267276728 -0.69500657235724 -0.79907087758776
 6  9.95837253745374 -2.22327326342634 -1.11378484348435
 6  11.41987486438644 -0.27153093389339 -0.10145927732773
 6  12.78417332503250 -0.52581663276328 -0.67207723062306
 6  13.92095156355636 -0.19865106790679  0.30975804330433
 6  15.28690481538154 -0.25371910101010 -0.41815005480548
 6  15.72939460836083 -1.71247888168817 -0.85340495819582
 6  16.46960106600660  0.39985434543454  0.43356786398640
 6  17.79578416781678  0.65121652005201 -0.24374018861886
 6  18.86782715221522  1.37188540554055  0.75523595659566
 6  20.25150381958196  1.31186151965197  0.18299306250625
 6  20.23018437223723  2.08802709990999 -1.17797879057906
 6  21.21072200300030  2.07167010331033  1.09248461186119
 1 -3.91140262476248  3.38682420382038  1.48469305620562
 1 -9.96301669436944  3.86869770477048 -0.73147853935394
 1 -10.17527081648165 -2.41270061086109 -1.11070772297230
 1 -2.63185964286429 -1.29777809170917  2.07833852505250
 1 -2.47516112131213  1.79675325792579  1.21105175557556
 1 -1.91807626512651  1.14021447434743  3.59736344984498
 1 -3.24063912391239  2.27161121862186  3.31329349474947
 1 -3.79763320602060  0.87832251625163  3.88707111991199
 1 -2.17263974887489 -1.65416537693769 -0.21588549774977
 1 -1.99063073557356 -0.03082583218322 -0.81239127872787
 1 -0.17045056245625  0.48602321622162  1.12014241334133
 1 -0.33436123812381 -1.20633514871487  1.39448340354035
 1 -5.83854262966297  6.86231487558756  0.94159986918692
 1 -5.13227021642164  5.72540590369037  2.38384468156816
 1 -4.33223717971797  5.74842600900090  0.57629080468047
 1 -9.01870392289229  5.89417556565657 -0.91049127732773
 1 -9.27860907680768  8.11902264116412  0.30112973477348
 1 -8.08607807360736  7.59395579507951  1.77896628212821
 1 -11.93320742584259  3.16859718571857 -2.39556256095610
 1 -13.25961563076308  1.92319621082108 -1.75205639713971
 1 -12.49185091619162  3.21498015271527 -0.63240448444844
 1 -12.36685146354636 -1.61105055015502 -1.22161711661166
 1 -13.28078679757976 -0.02821955875588 -1.50660618811881
 1 -12.98705505810581 -1.80895558175818 -3.38648853335334
 1 -12.00741430563056 -0.21273581118112 -3.97138063376338
 1 -11.08327460676068 -1.36841170827083 -3.35620424042404
 1 -8.82939254225423 -4.90540128302830 -1.87818108220822
 1 -8.30046941174117 -5.92000200440044 -0.20755036803680
 1 -9.73878376327633 -4.52674769606961 -0.28515033763376
 1 -3.27482817871787 -3.47000025072507 -0.17353262476248
 1 -1.88516668316832 -4.63136957665767  3.87055997129713
 1 -2.93288289688969 -6.07512913051305  3.39179201810181
 1 -1.32416052755276 -6.05164443764376  2.58990294319432
 1  2.79745905000500 -1.61110294619462 -1.46737070207021
 1  2.55964344194420  0.36853113271327 -1.92015516771677
 1  4.18921982758276 -0.74351656685668  0.39759297529753
 1  4.19130809430943  1.25854456485649 -2.86903527322732
 1  5.26307171887189  2.31053131203120 -2.01386785498550
 1  5.84888219581958  0.95941704920492 -3.00159889088909
 1  7.04734679757976  1.54652865286529  0.09131177397740
 1  6.25795991539154 -0.07872590999100  0.53884360106011
 1  7.15803318801880 -0.99330856605661 -1.23046437003700
 1  8.06274871077108  0.41421462956296 -1.87425034863486
 1  9.23260531213121  1.01467935293529 -0.20111247904790
 1  8.80278876757676 -0.69258476467647  0.72144000770077
 1  10.20584813621362 -0.01010847314731 -1.81598648814881
 1  9.04962994849485 -2.46518449494949 -1.77224314911491
 1  10.74764732043204 -2.58168495239524 -1.72401664556456
 1  9.89062194819482 -2.74520646264626 -0.26922636233623
 1  11.42440012091209  0.75147737793779  0.16323781128113
 1  11.33961701510151 -0.89448540984098  0.96140676227623
 1  12.83618693759376 -1.57665582678268 -0.83625129272927
 1  12.77902165466547  0.15467615861586 -1.65136849814981
 1  13.75186662336234  0.86114867086709  0.78337568056806
 1  13.85282803590359 -0.63349295399540  1.32862937943794
 1  15.01399468796880  0.31762124712471 -1.29563392139214
 1  15.87676511941194 -2.46287657975798 -0.05010646454645
 1  15.03577662836284 -2.15632800840084 -1.50837825292529
 1  16.62024165356536 -1.65463098799880 -1.55153662316232
 1  15.98685388608861  1.23119095279528  0.87841438573857
 1  16.57210165736574 -0.15389456455646  1.40655341654165
 1  18.07207814651465 -0.43713026042604 -0.40620396079608
 1  17.86058312281228  1.32873019191919 -1.14229780558056
 1  18.45303609620962  2.55292945064506  0.80589859515952
 1  18.93950111041104  0.87980216121612  1.81758175847585
 1  20.65958087078708  0.26057220542054 -0.03776671267127
 1  19.62620672727272  3.10214377627763 -1.26600019341934
 1  21.40378463056306  2.32576922972297 -1.36995835913591
 1  19.73664756915692  1.35069688048805 -1.93387035603560
 1  20.99047502270227  1.59586769586959  2.12925254245425
 1  22.30497220352035  1.88387961766177  0.76188115441544
 1  21.13330306020602  3.27376746004600  0.91922236273627
>>>>>>> 8e03b5b5abfc0030b3aa597dc0de36371bfbd096

