%nproc=4
%Mem=2GB
# td=(NStates=1) CAM-B3LYP/6-31G(d,p) 

TD

0 1
12 -7.15208578157816  0.60840958905891 -0.00253256585659
 6 -4.89481409940994 -1.93199437783778  0.44776130883088
 6 -4.72559248814882  2.90658910621062  1.19008537343734
 6 -9.26761149664966  3.11086658215822 -0.46651951165116
 6 -9.55209552325233 -1.75327083808381 -0.78664509360936
 7 -5.16344976957696  0.46610642874287  0.73209362766277
 6 -4.31215092119212 -0.71818164016402  0.84309233243324
 6 -2.97482648804880 -0.46976640234023  1.24915526972697
 6 -3.09592303070307  1.03839650795080  1.68601933263326
 6 -4.44688168306831  1.51458220702070  1.22210924082408
 6 -2.95825090719072  1.18314060216022  3.25082649154916
 6 -1.91716517751775 -0.62576783818382  0.12680663896390
 6 -0.50337776037604 -0.46244059125913  0.56220034933493
 6  0.50628176537654 -0.72017553045305 -0.49905528602860
 8  0.32725396549655 -1.08819422702270 -1.64767109880988
 8  1.67280909140914 -0.30749814621462 -0.09939672857286
 7 -7.03025347324732  2.69465505530553  0.24324301980198
 6 -5.94036331533153  3.42068304410441  0.77950148374837
 6 -6.35811306440644  4.83821811121112  0.82926361356136
 6 -7.63922662966297  4.82099273077308  0.37422581388139
 6 -8.07168143974398  3.49393858915892  0.04682722902290
 6 -5.50057801450145  5.92836530243024  1.15660042054205
 6 -8.41643944154415  6.00915194889489  0.10967795319532
 6 -8.39370326162616  7.15541165976598  0.72052830263026
 7 -9.02588486108611  0.77879074017402 -0.57042107580758
 6 -9.76845310501050  1.85593554665467 -0.77148347244724
 6 -11.15780487708771  1.41938027712771 -1.16323804330433
 6 -11.20682308620862  0.05298066216622 -1.23101181518152
 6 -9.83784946564656 -0.39591156545655 -0.81937695379538
 6 -12.30295911961196  2.40285085608561 -1.48044481928193
 6 -12.30737528382838 -0.77140455055506 -1.73158396689669
 6 -12.18938642704270 -1.22615502670267 -3.22620773937394
 7 -7.18171764006401 -1.38329794339434 -0.26390106710671
 6 -8.30325056485649 -2.27862303440344 -0.53525848104810
 6 -7.80497664326433 -3.57732600010001 -0.54939221652165
 6 -6.49391327542754 -3.56536087308731 -0.13246497839784
 6 -6.18720131653165 -2.16835511681168  0.00132293649365
 6 -8.71872934033403 -4.80232307470747 -0.84077255565557
 6 -5.36489095939594 -4.32274615811581  0.12558543114311
 8 -5.25844468236824 -5.59413389678968  0.15546257695770
 6 -4.23253683308331 -3.32211800160016  0.60896076137614
 6 -3.63162379327933 -3.66498171947195  1.95118549144915
 8 -3.87412901350135 -3.22975971217122  3.02764544564456
 8 -2.86098729242924 -4.75818054045405  1.74927350825083
 6 -2.28646923482348 -5.48138236733673  2.94759969546955
 6  2.70394290599060 -0.55834362896290 -1.16467766816682
 6  3.95711780078008 -0.32214039033903 -0.54437458645865
 6  5.17451093549355  0.33566983238324 -0.94375414811481
 6  5.03452187518752  1.19396204550455 -2.29196336163616
 6  6.44371870467047  0.50097194739474 -0.19602608780878
 6  7.72527006490649 -0.10005035193519 -0.86628357885789
 6  9.07107898049805  0.03534840444044 -0.09421123392339
 6  10.32137276177618 -0.52713978567857 -0.78149912041204
 6  10.11425812601260 -2.01309224532453 -1.14788825382538
 6  11.42959583648365 -0.28002178297830  0.08562943154315
 6  12.74879978767877 -0.51758580968097 -0.68365838873887
 6  14.00477994639464 -0.32086328912891  0.28745581308131
 6  15.33657978287829 -0.29543327242724 -0.47839607940794
 6  15.67356902580258 -1.68063569736974 -0.96679629732973
 6  16.40393449934994  0.29117347734773  0.41395590279028
 6  17.84296888628863  0.53311470987099 -0.18757457205721
 6  18.73952432193219  1.40831904890489  0.66786721972197
 6  20.20690936013601  1.46783711721172  0.11072583578358
 6  20.18111946574658  2.16371466866687 -1.24191518421842
 6  21.18064899569957  2.14149708600860  1.18031339473947
 1 -3.99342082658266  3.44470999239924  1.69136372327233
 1 -9.90376076877688  3.93209404440444 -0.57713310481048
 1 -10.45156844624463 -2.33391273207321 -1.01696834903490
 1 -2.73835029192919 -1.07453576747675  2.25224591579158
 1 -2.13880748594860  1.65341892449245  1.20297094749475
 1 -2.07860231773177  0.78320877377738  3.64836855035504
 1 -2.98177323732373  2.21382544004400  3.53526569196920
 1 -3.83888733143314  0.55218990299030  3.71846425922592
 1 -1.98163064796480 -1.50557051745174 -0.19454336353635
 1 -2.04202587508751 -0.02627537713771 -0.73892393199320
 1 -0.33211672907291  0.65931054495450  0.75266566566657
 1 -0.31299910191019 -1.16058057325733  1.46636059125913
 1 -5.63389216461646  6.86232487658766  0.58063377257726
 1 -5.61110810021002  6.12748611171117  2.28261455855586
 1 -4.43329728572857  5.61297246364636  0.91487466306631
 1 -9.32265431793179  5.79421556965697 -0.50514074227423
 1 -8.86905812171217  8.11719245814581  0.62179180098010
 1 -7.61537100290029  6.90769716921692  1.62293067856786
 1 -12.09753385848585  3.25719604560456 -2.24219722442244
 1 -13.37842751195119  1.95986987818782 -1.86660785228523
 1 -12.51605333643364  2.91154980968097 -0.68041928592859
 1 -12.78387316571657 -1.81577102220222 -1.06553150805080
 1 -13.27123584248425 -0.18129486628663 -1.63203873137314
 1 -12.98614496709671 -1.89089377557756 -3.63437332183218
 1 -11.92991655585559 -0.50131466906691 -3.77933142884289
 1 -11.23243952325233 -1.94855972307231 -3.20718933893389
 1 -8.99286888988899 -4.69935067796780 -1.94139740384038
 1 -8.38714807960796 -5.78795880008001 -0.80797041004100
 1 -9.53131301620162 -4.68262328362836 -0.04789661226123
 1 -3.43862455835584 -3.40807405810581 -0.23360863236324
 1 -1.80603877037704 -4.89656609630963  3.57099001430143
 1 -3.15113472207221 -5.90487210481048  3.64749758865887
 1 -1.78033614511451 -6.58195746894689  2.53210716361636
 1  2.49436874097410 -1.63181501740174 -1.42813677867787
 1  2.45108258585859  0.12274655425543 -1.99570272247225
 1  4.13738464406441 -0.78585080028003  0.34359757575758
 1  4.10650961446145  1.09512822322232 -2.81083945364536
 1  5.55878128982898  2.27789804870487 -2.19916638483848
 1  5.54705201280128  0.83073418091809 -2.83766249724972
 1  6.79768183108311  1.37786178617862  0.13945658845885
 1  6.46712083148315 -0.01990002740274  0.73112282898290
 1  7.53123050775077 -1.15477471267127 -0.84611593519352
 1  7.84951738763876  0.19404261236124 -1.84000692429243
 1  9.15508756035604  0.91497938293829  0.22626025822582
 1  8.92340082878288 -0.63917942414241  0.90074793849385
 1  10.49918747014701 -0.06241370367037 -1.79752464196420
 1  9.32644763026303 -2.13427140364036 -1.93172909770977
 1  11.04548710441044 -2.52250903480348 -1.89115335923592
 1  9.78647153315332 -2.74091603360336 -0.27321676137614
 1  11.37361504240424  0.83369559975998  0.61616310381038
 1  11.46350940434044 -0.89181514281428  0.88069869146915
 1  12.55088840774077 -1.50551871307131 -1.12987065466547
 1  12.81712546504650  0.16444713571357 -1.56396975827583
 1  13.85151658835884  0.73675623162316  0.72606994999500
 1  13.95919867296730 -0.96296590129013  1.26402291879188
 1  15.51552484098410  0.29095858085809 -1.32766712471247
 1  15.57854529742974 -2.38760905300530 -0.19513096699670
 1  15.11413446414642 -1.77430980658066 -2.03558097319732
 1  16.78330796019602 -1.85274079897990 -1.24330580008001
 1  15.95690089078908  1.30730856455646  0.48931547584759
 1  16.30979542674267 -0.23771294639464  1.46956971817182
 1  18.22062300100010 -0.54664121152115 -0.23182652305231
 1  17.52854991949195  0.94517183608361 -1.37181075687569
 1  18.34806559915992  2.36501065876588  0.86029403470347
 1  18.66190335063506  0.93210739173917  1.76050605090509
 1  20.45329024172417  0.47564371257126 -0.37810074607461
 1  19.70386449304930  3.14378794069407 -1.07252084548455
 1  21.11711596369637  2.16700335313531 -1.70246160946095
 1  19.59544344874488  1.56811862266227 -2.03056002500250
 1  21.25179115431543  1.61162927202720  2.04577419461946
 1  22.31816352265226  2.18818004770477  0.73111807810781
 1  20.91635136503650  3.16090617391739  1.44921536203620

