%nproc=4
%Mem=2GB
# td=(NStates=1) CAM-B3LYP/6-31G(d,p) 

TD

0 1
12 -7.19927050005000  0.61810055815582  0.00431811921192
 6 -4.85378999699970 -1.97381856025603  0.61789832253225
 6 -4.81129105800580  2.76306475377538  1.20653701860186
 6 -9.48477321282128  3.10086558205821 -0.41601446114611
 6 -9.52305261896190 -1.79293480448045 -0.90370679977998
 7 -5.15277870247025  0.45922574067407  0.62844326262626
 6 -4.41113081918192 -0.63753357535754  0.79268729192919
 6 -2.97815682108211 -0.33718314401440  1.16202655685569
 6 -3.02732617101710  1.14923759205921  1.71446217691769
 6 -4.45947294219422  1.48855960476048  1.13523055295530
 6 -2.99104418651865  1.26885917401740  3.23094450335034
 6 -1.95447890889089 -0.61470673207321  0.09625358365837
 6 -0.45788321092109 -0.49354370157016  0.52910704000400
 6  0.47099823702370 -0.65394890779078 -0.65769114961496
 8  0.12637387748775 -0.98330373797380 -1.74958128982898
 8  1.71962377287729 -0.42991038743874 -0.20144693359336
 7 -7.13788423632363  2.62463805360536  0.37626632213221
 6 -6.11518079707971  3.38359933573357  0.80160369396940
 6 -6.43570082318232  4.77066135553555  0.85316600380038
 6 -7.79007171417142  4.86658729022902  0.40142853415342
 6 -8.18005227682768  3.45699489478948  0.11998454475448
 6 -5.47738569526953  5.87012947884789  1.06472123262326
 6 -8.56075387298730  6.02683371707171  0.17624460986099
 6 -8.53373726502650  7.14502062066207  0.88969521932193
 7 -9.15483775637564  0.69308216931693 -0.59848388208821
 6 -9.98572483218322  1.88829878297830 -0.68380470457046
 6 -11.25911500810081  1.53185152425243 -1.06195791529153
 6 -11.22972537643764  0.15058042214221 -1.39088780278028
 6 -9.95344102480248 -0.35615759005901 -0.96322133823382
 6 -12.24623344704470  2.44596516751675 -1.49634640944094
 6 -12.30206475277528 -0.79953736383638 -1.77759856835684
 6 -12.17626511491149 -1.22582499369937 -3.29114423302330
 7 -7.26651611991199 -1.43195280888089 -0.25355003200320
 6 -8.27021726152615 -2.31890706280628 -0.48320327552755
 6 -7.86813295889589 -3.65361362886289 -0.41111838913891
 6 -6.56029991409141 -3.54002833983398 -0.02588432033203
 6 -6.15850844724472 -2.19506778807881  0.17872067626763
 6 -8.69263673107311 -4.86367921032103 -0.76915539393939
 6 -5.38915338563856 -4.41066494999500  0.18352122472247
 8 -5.18771760966097 -5.54688917231723  0.08979601030103
 6 -4.14784836423642 -3.32909869966997  0.65702556785679
 6 -3.52833346424642 -3.71896711801180  1.96723709660966
 8 -3.66227782838284 -3.10165690189019  3.01118379947995
 8 -2.77615880958096 -4.84381910431043  1.82458103900390
 6 -2.20700128802880 -5.35279950905090  3.05191012651265
 6  2.73637614931493 -0.56651444604460 -1.23193439383938
 6  4.15947803680368 -0.42319049534953 -0.61468161716172
 6  5.13172665706571  0.39555582098210 -0.96655642834283
 6  5.16614503750375  1.22894554385439 -2.17009117441744
 6  6.42281661446145  0.39342119231923 -0.28846533173317
 6  7.64748228612861 -0.20227057395740 -1.04854180468047
 6  8.97106897949795 -0.05053018341834 -0.19601141394139
 6  10.33790441494149 -0.45486255795580 -0.88634960546055
 6  10.22472917311731 -1.96873780988099 -1.12089555455546
 6  11.52338521542154 -0.08619240004000 -0.04586371777178
 6  12.94544945264526 -0.38034208530853 -0.67849787268727
 6  13.99755922432243 -0.08458966176618  0.25187225472547
 6  15.41969809470947 -0.24522825192519 -0.33163140294029
 6  15.74594626352635 -1.70876851065107 -0.77091670937094
 6  16.50017412331233  0.50934529452945  0.42839734693469
 6  17.78563315271527  0.65572697109711 -0.33125894049405
 6  18.85009537903790  1.31221943894389  0.71140157315732
 6  20.29517818701870  1.25565589908991  0.20311507470747
 6  20.46192754655466  1.95016331353135 -1.16187718041804
 6  21.31073200400040  1.75906884318432  1.24449981338134
 1 -4.26982846734674  3.59552507390739  1.54667925482548
 1 -10.10341073377338  3.88660949594959 -0.52409780128013
 1 -10.16273956335634 -2.67458679947995 -1.28520517271727
 1 -2.50891734863486 -1.06114442834283  1.92744343554355
 1 -2.19521312651265  1.61770535313531  1.19721037143714
 1 -2.09068352585258  0.69385983888389  3.59647336083608
 1 -3.33734879487949  2.42178623612361  3.51579374477448
 1 -3.85059850255026  0.52571725572557  3.56684909770977
 1 -2.10075256015602 -1.68785874627463 -0.37211112031203
 1 -2.21655332783278 -0.01580433003300 -0.90380041964196
 1 -0.24949846724673  0.57435204910491  1.05515591469147
 1 -0.36354415641564 -1.24645916111611  1.34396835203520
 1 -5.83087186258626  6.87958660276028  0.69716542574257
 1 -5.49819680908091  6.03035639873987  2.07182347944795
 1 -4.51817577357736  5.54482564896490  0.77757093269327
 1 -9.46439849234924  6.04058020612061 -0.80515074327433
 1 -8.95672688858886  8.22762350125012  0.69962958475848
 1 -7.73451291709171  7.21315771527153  1.65719410491049
 1 -11.99802390749075  3.18652897889789 -2.31914491919192
 1 -13.25452512171217  2.12800669186919 -1.74888608010801
 1 -12.21430316141614  3.19103775847585 -0.60038128212821
 1 -12.41119589798980 -1.69177862296230 -1.14430938583858
 1 -13.23464218311831 -0.32501923872387 -1.62003753125313
 1 -13.24148050065006 -1.86844153035304 -3.58979886438644
 1 -12.30390395459546 -0.29535407300730 -3.90805430113011
 1 -11.25955223452345 -1.77573244034403 -3.53758237823782
 1 -9.00608021102110 -4.95779652255226 -1.76190945504551
 1 -8.26975634043404 -5.93677368156816 -0.56590620362036
 1 -9.44784466936694 -4.95830085138514 -0.16464828742874
 1 -3.45409610551055 -3.44727797849785 -0.19462473397340
 1 -1.60549871637164 -4.67394383408341  3.35041795709571
 1 -2.89509911851185 -5.50922253985399  3.99962280118012
 1 -1.68938705020502 -6.16726599979998  2.63515746864686
 1  2.46865616971697 -1.68343017891789 -1.64577854285429
 1  2.52143962156216  0.18336261586159 -1.95205835803580
 1  4.24396530213021 -1.10792300750075  0.22166538253825
 1  4.15219418291829  1.40713942434243 -2.62988135783578
 1  5.40198561026103  2.33825408430843 -2.11352782098210
 1  5.74845215281528  0.81042214971497 -2.96326505750575
 1  6.63030509340934  1.38012201220122  0.12695533833383
 1  6.29616373577358 -0.31733977137714  0.53736345304530
 1  7.35287267196720 -1.17369660486049 -1.18434975857586
 1  7.82378481438144  0.26149935803580 -1.92424534813481
 1  9.04219627122712  1.08947683268327 -0.06963933173317
 1  8.82024051275128 -0.34048955515552  0.78737660136014
 1  10.20928848024802  0.00546308400840 -1.91296618611861
 1  9.36897188268827 -2.25210318681868 -1.66594251905191
 1  11.01807436313631 -2.30687747164716 -2.06369061296130
 1  10.30934382038204 -2.50810275227523 -0.27952739243924
 1  11.26480416131613  0.96952918311831  0.10578206570657
 1  11.30127318071807 -0.39146510781078  0.92280290189019
 1  13.03572689158916 -1.52068022922292 -1.01561922952295
 1  13.04250800330033  0.21091178217822 -1.65696905820582
 1  13.81734317101710  0.93167572357236  0.52732007500750
 1  14.12706545964597 -0.58643824852485  1.28064458095810
 1  15.45742903140314  0.33592307730773 -1.25326968496850
 1  15.67959540244024 -2.43848414051405  0.03991253735374
 1  14.97164021472147 -2.15529790539054 -1.37112452755276
 1  16.61377100650065 -1.75238076297630 -1.03600507000700
 1  15.97729292999300  1.38999683338334  0.80453699799980
 1  16.78360280748075 -0.18788796389639  1.39389215041504
 1  18.30502144084408 -0.18980552795280 -0.74876821722172
 1  17.55785284978498  1.19475679457946 -0.98860243604360
 1  18.58694948754875  2.31691584928493  0.79116712201220
 1  18.73306046634664  0.76454063506351  1.57229723002300
 1  20.61274618731873  0.10430657885789  0.10741780578058
 1  20.22495660226022  3.13317687958796 -1.08761235463546
 1  21.48825307740774  1.91320797359736 -1.49548091139114
 1  19.61096500090009  1.50594240504050 -1.90281725072507
 1  21.38556453165317  1.38267637673767  2.27229684688469
 1  22.20269197549755  1.48351958165817  0.80919588588859
 1  21.13436316621662  2.88108819211921  1.33674411491149

