%nproc=4
%Mem=2GB
# td=(NStates=1) CAM-B3LYP/6-31G(d,p) 

TD

0 1
<<<<<<< HEAD
12 -7.10598117111711  0.58947769586959 -0.02644495709571
 6 -4.87605222322232 -1.96091727012701  0.58528506120612
 6 -4.91539146804680  2.82226067336734  1.31892825772577
 6 -9.44975971147115  3.12167766326633 -0.50513337303730
 6 -9.59476979067907 -1.69396490749075 -0.83535996509651
 7 -5.10251367596760  0.45490530863086  0.76029644794479
 6 -4.37837754385439 -0.70229005100510  0.80749877307731
 6 -2.92340134553455 -0.39764919061906  1.34313466766677
 6 -3.07729116751675  1.07987065536554  1.77753848454846
 6 -4.41970896579658  1.50430117891789  1.22425945584558
 6 -2.95703078517852  1.19878216631663  3.33857526642664
 6 -1.91786524752475 -0.57985324672467  0.15270922922292
 6 -0.52220964356436 -0.40902524972497  0.60731486078608
 6  0.57527866506651 -0.61590510341034 -0.40233561406141
 8  0.28158939903990 -1.00481588918892 -1.53705003670367
 8  1.86755856635664 -0.34823221962196 -0.04663145204520
 7 -7.11282173007301  2.64848043784378  0.21578027352735
 6 -6.08728800780078  3.40326130193019  0.86817035063506
 6 -6.50596784988499  4.77708199759976  0.91302198939894
 6 -7.80817352435244  4.84435506700670  0.33329172047205
 6 -8.19450372197220  3.48702789808981 -0.02119957365737
 6 -5.65919387608761  5.92987545344534  1.21275603610361
 6 -8.65873367096710  6.05574660836084  0.03243022842284
 6 -8.68425231653165  7.12840895949595  0.86657290709071
 7 -9.11395366796680  0.66887974907491 -0.52886692039204
 6 -9.87116337603760  1.79837979107911 -0.80682700680068
 6 -11.14121321792179  1.48879721882188 -1.27855957545755
 6 -11.22132453635363  0.07554291839184 -1.31291000500050
 6 -9.94877055775578 -0.43672564686469 -0.84845986208621
 6 -12.21506032973297  2.43287385838584 -1.52918969376938
 6 -12.36642118841884 -0.78288569866987 -1.71977278577858
 6 -12.16233372177218 -1.13516592779278 -3.28964408300830
 7 -7.25558502680268 -1.48364797839784 -0.22305698269827
 6 -8.31500173997400 -2.29360453255326 -0.54964992019202
 6 -7.79080522612261 -3.61189945744574 -0.54916219351935
 6 -6.53954783888389 -3.52964730173017 -0.03923565546555
 6 -6.18087068346835 -2.18621690299030  0.16037884208421
 6 -8.55907337473747 -4.93323616601660 -0.90803928232823
 6 -5.36325079537954 -4.37739162266227  0.25509838243824
 8 -5.22171100900090 -5.60791527492749  0.16503353405341
 6 -4.25835941534153 -3.40450624042404  0.61459132443244
 6 -3.60905153605361 -3.69570479177918  1.85157553045305
 8 -3.72258385898590 -3.05604234043404  2.91581426252625
 8 -2.84904609830983 -4.78568329072907  1.82512109300930
 6 -2.19906049394939 -5.22999722882288  2.96428136363636
 6  2.70281279297930 -0.50795859045905 -1.09736093649365
 6  4.14101619061906 -0.34030220652065 -0.46116626562656
 6  5.11631511591159  0.29352561796180 -1.11123089578958
 6  5.12476089908991  1.16747939723972 -2.39269343464346
 6  6.51760609340934  0.46119796999700 -0.39117560276028
 6  7.71162870077008 -0.12132247914792 -1.12653960446045
 6  8.90530240284028  0.18337320692069 -0.24085589838984
 6  10.17210783528353 -0.39972704440444 -0.98561953245325
 6  10.12319902010201 -1.87253818991899 -1.34973843884388
 6  11.38792166906691 -0.21170495129513  0.02020288888889
 6  12.75699060676068 -0.42314636573657 -0.67674769766977
 6  13.99837930633063 -0.20459166196620  0.20375744324432
 6  15.42536866176618 -0.28651238033803 -0.37243548334833
 6  15.82215388428843 -1.68175580938094 -0.69233885158516
 6  16.52048615451545  0.26285064506451  0.54388889608961
 6  17.89845443484348  0.41473287168717 -0.12294810941094
 6  18.86953732323232  1.11493971097110  0.76811724472447
 6  20.38548721792179  1.28046838033803  0.09531429462946
 6  20.32263361716172  2.14557285448545 -1.20671166386639
 6  21.33943487428743  1.81102403870387  1.03267863126313
 1 -4.33482496699670  3.76153167456746  1.76599118601860
 1 -10.17504789748975  3.92226306130613 -0.75457084858486
 1 -10.26018930833083 -2.33385272607261 -1.42121877407741
 1 -2.64111056795680 -1.03667198109811  2.16963765496550
 1 -2.19538314351435  1.80770435303530  1.31227187758776
 1 -1.77005146264626  0.92000245314531  3.79596330983098
 1 -3.21389644964496  2.24398845634563  3.61046321172117
 1 -3.63399684238424  0.24741942594259  3.71229364216422
 1 -2.12147463236324 -1.55580554095410 -0.28535244444444
 1 -2.26172784528453  0.26132338273827 -0.62600263986399
 1 -0.27216073347335  0.54240885478548  1.10381078017802
 1 -0.28694649664967 -1.13348786398640  1.37741169636964
 1 -6.22597137253725  6.70273891799180  0.55952166136614
 1 -5.58047503690369  6.06263962706271  2.22786908400840
 1 -4.69382333833383  5.82360352675267  0.86424960056006
 1 -9.24176622912291  6.03820996909691 -0.80522075027503
 1 -9.36142735863586  8.08011875077508  0.66120574237424
 1 -8.02286175197520  7.18395479497950  1.57585597109711
 1 -11.95837994309431  3.05193551955196 -2.42904590929093
 1 -13.14513418261826  2.06808069926993 -1.67513870537054
 1 -12.16720845194519  3.11210986568657 -0.66635787978798
 1 -12.43518829722972 -1.69050849594960 -1.18449340424042
 1 -13.17591631053105 -0.29353609040904 -1.59768529602960
 1 -12.90404675727573 -1.92998768496850 -3.53614349884989
 1 -12.03002656685669 -0.12277681528153 -3.92527602330233
 1 -11.19422570187019 -1.73533840094009 -3.45716433643364
 1 -8.73155275827583 -5.00405114801480 -2.03990725482548
 1 -7.91556092089209 -5.90193019721972 -0.78031764476448
 1 -9.51674155905591 -4.90655567686769 -0.44892671527153
 1 -3.39383007890789 -3.47219046974697 -0.24438971047105
 1 -1.81842000850085 -4.51397783748375  3.44444736003600
 1 -2.91817142574257 -5.56557817541754  3.70517335623562
 1 -1.38942705420542 -6.03115238843884  2.51591554445445
 1  2.65033433753375 -1.59057089298930 -1.45684964996500
 1  2.54533201080108  0.07127140674067 -1.95822897509751
 1  4.32894379998000 -0.85624783998400  0.36709992599260
 1  4.10093905740574  1.43205191559156 -2.72617098679868
 1  5.66113152485249  2.04059431833183 -2.24832130033003
 1  5.47827513511351  0.57583869136914 -3.23218194919492
 1  6.72413447634763  1.59033303330333 -0.23604096129613
 1  6.47768188758876  0.09100106270627  0.78554827152715
 1  7.46402378707871 -1.15164439963996 -1.48962028562856
 1  7.91414385028503  0.45002821092109 -2.00461338493849
 1  9.13924597619762  1.04284216921692  0.01346897909791
 1  8.77808629732973 -0.40471597779778  0.74132199589959
 1  10.48657620902090  0.18166070377038 -1.96747163666367
 1  9.43736872237224 -2.16361433793379 -2.24578050285029
 1  11.03789634533453 -2.32876966086609 -1.65378962286229
 1  9.82981586758676 -2.47017895989599 -0.39550899059906
 1  11.49135681658166  0.79717194739474  0.50424191169117
 1  11.37375042844285 -0.80142610391039  0.83830445204520
 1  12.87803112201220 -1.40942910411041 -0.95282294989499
 1  12.92933668616862  0.28015870687069 -1.58350171147115
 1  13.74591602830283  1.11933448944894  0.50140748374837
 1  13.93220597369737 -0.94667427212721  1.07968448494849
 1  15.55765905440544  0.03644312931293 -1.20767512551255
 1  15.84988243114312 -2.22713300540054  0.15817436353635
 1  15.21332438313831 -2.34936731233123 -1.18635605070507
 1  16.76166579597960 -1.82917844274427 -1.14976644614461
 1  16.01188638933893  1.21157899159916  1.00368691299130
 1  16.54058850605060 -0.19440861596160  1.49723248444844
 1  18.23262420112011 -0.65559210661066 -0.48856219661966
 1  17.84886195069507  1.18966628552855 -1.02171574737474
 1  18.64802559515952  2.13889804750475  0.96276428172817
 1  18.69275643594360  0.61689587058706  1.77668766906691
 1  20.71705661836184  0.37715386358636 -0.35061799779978
 1  19.82069617621762  3.17932149404940 -0.98351194459446
 1  21.19475372747275  2.38999565236524 -1.58951031433143
 1  19.79352325672567  1.67873968476848 -2.06541351035104
 1  21.38804477967797  1.21207931703170  1.76115573277328
 1  22.39556126242624  2.03897512721272  0.63381834813481
 1  21.15821555145515  2.95137522082208  1.43931437193719
=======
12 -7.09589016201620  0.60918966706671  0.12067975537554
 6 -4.81754637263726 -2.01713289168917  0.50715724842484
 6 -4.79360928982898  2.75848429572957  1.10119648454845
 6 -9.27333206870687  3.14242973847385 -0.53679653935394
 6 -9.52578289198920 -1.69710522152215 -0.85347177627763
 7 -5.11302472707271  0.42622244034403  0.75678609690969
 6 -4.30792049814981 -0.72145196719672  0.85773379657966
 6 -2.88111711711171 -0.45598502420242  1.16123647784778
 6 -2.97440087848785  1.03619628792879  1.57969870057006
 6 -4.35665266016602  1.42830357915792  1.10478750865087
 6 -2.89240432253225  1.18452074017402  3.15032644154415
 6 -1.97714117511751 -0.65328058945895 -0.02670871257126
 6 -0.51486890949095 -0.56076042324232  0.48549267856786
 6  0.50183132033203 -0.84845835873587 -0.56288166866687
 8  0.23129436953695 -1.23142855045505 -1.69214554625463
 8  1.81278308880888 -0.48600599699970 -0.16823361226123
 7 -7.08195864376438  2.59201479127913  0.28409710521052
 6 -6.03635291429143  3.34954593039304  0.74481801540154
 6 -6.33328058115811  4.81238552795280  0.76054674187419
 6 -7.54101680868087  4.79513014451445  0.30121851315132
 6 -8.06827109870987  3.47114630993099  0.02542508880888
 6 -5.33361131783178  5.89400186608661  1.05905066556656
 6 -8.41728952655265  6.13683471717172 -0.04309732433243
 6 -8.30792468376838  7.15405152375238  0.76906315611561
 7 -9.08035030763076  0.71277413851385 -0.51892592629263
 6 -9.81298755845584  1.84073402650265 -0.71276760086009
 6 -11.24484358095810  1.51491983108311 -1.13344506400640
 6 -11.30272267616762  0.16009137323732 -1.14231294529453
 6 -9.91452713341334 -0.41028300260026 -0.89232424852485
 6 -12.30583940764076  2.50300087108711 -1.19817659245925
 6 -12.47034158045805 -0.72349976007601 -1.59372018051805
 6 -12.40409789818982 -0.95387779897990 -3.17268238683868
 7 -7.23198266656666 -1.37763737733773 -0.20117479447945
 6 -8.28387862766277 -2.22510768286829 -0.58439339453945
 6 -7.84664080968097 -3.61493976147615 -0.54893217051705
 6 -6.47483136723672 -3.61819615661566 -0.12119385128513
 6 -6.18020061646165 -2.20180846214621  0.21418422262226
 6 -8.61255872327233 -4.82097493989399 -0.73233171157116
 6 -5.36452092239224 -4.36756063956396  0.20447331993199
 8 -5.19888872677268 -5.59229371277128  0.15651268196820
 6 -4.23531711111111 -3.34317010681068  0.60243010831083
 6 -3.59142977387739 -3.68160338163816  1.87277765066507
 8 -3.78620022062206 -3.19410614681468  2.96643932503250
 8 -2.72250344404440 -4.74985970837084  1.83110169106911
 6 -2.15550613851385 -5.26906113521352  3.02904784028403
 6  2.75085759745975 -0.66736453105311 -1.15821702210221
 6  4.10275236423642 -0.54163233953395 -0.55271542054205
 6  5.08587207160716  0.23428969436944 -0.96252602530253
 6  4.99219764276428  1.04985763506351 -2.23239740504050
 6  6.44228856165617  0.42172402260226 -0.21504798999900
 6  7.58415595349535 -0.17352769966997 -1.02798974947495
 6  8.90716258885889 -0.02193732413241 -0.30704251705171
 6  10.20995161966197 -0.35626269796980 -0.99212018251825
 6  10.22520922112211 -1.83640457655766 -1.58628209320932
 6  11.47032990989099 -0.04097787858786 -0.18281741314131
 6  12.73835874357436 -0.26712076317632 -0.86792681558156
 6  13.90037950635064 -0.12382358515852  0.08646571407141
 6  15.29599572447245 -0.22523625272527 -0.48264650445045
 6  15.64563623252325 -1.78990662446245 -0.62938255595560
 6  16.26794089999000  0.51147550755075  0.37231173837384
 6  17.79631422082208  0.62584398279828 -0.02304811941194
 6  18.76899726922692  1.25460367736774  0.85127556055606
 6  20.12974164336434  1.32598293179318  0.35146991019102
 6  20.34091544534454  2.12592088928893 -0.93065405810581
 6  21.04091502230223  1.94803774007401  1.38980434383438
 1 -4.19298078257826  3.50801632303230  1.72716730363036
 1 -9.86804719741974  3.96082691769177 -0.75006039753975
 1 -10.38881217061706 -2.33215255605561 -0.77269392159216
 1 -2.71739819671967 -1.08834714861486  2.09702039323932
 1 -2.39083268846885  1.77640122272227  1.08315896629663
 1 -1.91728618611861  0.96519697259726  3.67195090859086
 1 -3.03736879687969  2.18723278077808  3.66798896429643
 1 -3.60297374007401  0.51019570357036  3.55080749354936
 1 -2.31645413031303 -1.46247620802080 -0.54299820902090
 1 -2.27283895639564  0.21904915531553 -0.78263830343034
 1 -0.21935545294529  0.50070468436844  0.77924832393239
 1 -0.33351115311531 -1.20340485568557  1.36799075427543
 1 -5.62392116751675  6.95508415251525  0.76033174237424
 1 -5.22665965536554  5.95867923102310  2.17017331443144
 1 -4.31567552355236  5.52111327772777  0.63706688228823
 1 -9.09229128162816  6.31331747984798 -1.06804703290329
 1 -8.96216743264326  8.06861760066007  0.70104972677268
 1 -7.90886035183518  7.15049144864486  2.04463284878488
 1 -12.28883298839884  2.97455778177818 -2.25028803350335
 1 -13.23464313351335  2.01642553375338 -1.05647683918392
 1 -12.03728545964597  3.06933558825883 -0.34739598359836
 1 -12.44944972337234 -1.73916336143614 -0.98856381128113
 1 -13.48722744164416 -0.27439417621762 -1.22396792429243
 1 -13.08130448304830 -1.84693938013801 -3.48197808230823
 1 -12.57763132733273  0.10985644804480 -3.70868436413641
 1 -11.23669994929493 -1.29869473657366 -3.10183880388039
 1 -9.08384798779878 -4.97950869376938 -1.76995025912591
 1 -7.93205257005700 -5.67789779397940 -0.38529814281428
 1 -9.45763564846485 -4.69019404070407 -0.31757357995800
 1 -3.25861655755576 -3.40757400810081 -0.22654792629263
 1 -1.32839100560056 -4.48094453415341  3.47549046434643
 1 -2.79558916751675 -5.77603922152215  3.53648648754875
 1 -1.42578068956896 -5.94531380458046  2.55441939483948
 1  2.43338264236424 -1.71061289718972 -1.70287425242524
 1  2.67193467106711  0.12434671427143 -2.03125627782778
 1  4.24797570317032 -0.97346956215622  0.42912612861286
 1  3.98172713621362  0.85569427982798 -2.68119648934894
 1  5.05273068476848  2.24690494939494 -1.99225569376938
 1  5.77336464406441  0.80063117061706 -3.12426115711571
 1  6.68510057295730  1.50077407740774  0.04959760256026
 1  6.45229934933493  0.02122408500850  0.74566428312831
 1  7.29169655435544 -1.21320055525553 -1.35162648624863
 1  7.62840527642764  0.24968817691769 -2.13178610221022
 1  8.78085013661366  1.16302418741874 -0.14114648244825
 1  8.86310479917992 -0.45328083428343  0.68222608630863
 1  10.27756530793079  0.26732927062706 -1.90927581708171
 1  9.60970595609561 -2.03120109660966 -2.23966989178918
 1  11.17041959765977 -2.19416620052005 -1.94997924182418
 1  9.89555244124413 -2.55969791179118 -0.82019145884588
 1  11.41996967786779  0.89972220242024  0.06927841534153
 1  11.27085013841384 -0.77316327762776  0.54414503610361
 1  12.66586990589059 -1.27659582078208 -1.35962362996300
 1  12.82848660116012  0.41625231623162 -1.82745610691069
 1  13.93589502620262  1.00988354435444  0.43091043404340
 1  13.66719947304730 -0.65065467016702  0.96646316281628
 1  15.38902219071907  0.37892737773777 -1.36268062606261
 1  15.89926736963696 -2.21862215431543  0.47186573267327
 1  14.74660771147115 -2.45936831243124 -1.08153556865687
 1  16.66026565596560 -1.95764128902890 -1.22565403490349
 1  16.23701890259026  1.67082491619162  0.70958750305031
 1  15.98351279847985  0.20172099699970  1.39054181538154
 1  18.20810174887489 -0.34084063146315 -0.41175451585158
 1  17.74395145964597  1.35917323622362 -0.73964754055406
 1  18.31295208780878  2.32840699839984  0.99086709200920
 1  18.82139930023002  0.62851703270327  1.80488048834883
 1  20.43744865756576  0.34160030823082  0.05439250325033
 1  20.25924003060306  3.27063062496250 -0.51669526292629
 1  21.44094834693469  2.02362901570157 -1.22758412171217
 1  19.62455636003601  1.73690550135013 -1.65898286728673
 1  20.84413038823882  1.70674878397840  2.41174079127913
 1  22.20324203050305  1.70252148184818  1.18486345264526
 1  20.93507323722372  3.06895697899790  1.45443588408841
>>>>>>> 8e03b5b5abfc0030b3aa597dc0de36371bfbd096

