%nproc=4
%Mem=2GB
# td=(NStates=1) CAM-B3LYP/6-31G(d,p) 

TD

0 1
<<<<<<< HEAD
12 -7.10150072307231  0.58576732483248  0.10151783918392
 6 -4.82260687868787 -1.96404758315832  0.56681321402140
 6 -4.86449637853785  2.84100254755476  1.26457282218222
 6 -9.46662139763976  3.07929342484248 -0.48950180988099
 6 -9.45418573227323 -1.77134264526453 -0.97965439453945
 7 -5.01698512311231  0.43029284738474  0.72318273657366
 6 -4.27441714781478 -0.67093691569157  0.85831385458546
 6 -2.92424142954295 -0.34660408610861  1.34121447564756
 6 -2.97707114551455  1.16668933723372  1.80311104180418
 6 -4.27723471837184  1.55261601040104  1.28103513341334
 6 -2.82958804090409  1.33292558065807  3.29827123602360
 6 -1.81738519951995 -0.49947520892089  0.14732869116912
 6 -0.48471589418942 -0.43403775097510  0.66461059035904
 6  0.50716185338534 -0.58833234613461 -0.50067544804480
 8  0.23498473857386 -0.95604101170117 -1.62078841054105
 8  1.74049586008601 -0.48344574097410 -0.10262705160516
 7 -7.13553400130013  2.65565115491549  0.39939863536354
 6 -6.03015229422942  3.37612858865887  0.71004453805381
 6 -6.37447470057006  4.81176546594659  0.75905659285929
 6 -7.71311401840184  4.86722735423542  0.36849524082408
 6 -8.16850112171217  3.55316451175118  0.02542508880888
 6 -5.48502645934594  5.98132059795980  1.22025678617862
 6 -8.48182598019802  6.08920995469547  0.12629961536154
 6 -8.48505239653965  7.20430654925492  0.81040729052905
 7 -9.03827610021002  0.66147900900090 -0.63491752545255
 6 -9.77037329702970  1.75031498459846 -0.73883020712071
 6 -11.12157125372537  1.44119245834583 -1.18799051855186
 6 -11.15717812171217  0.02637800190019 -1.33086180018002
 6 -9.84043972467247 -0.47317929222922 -0.89472448854885
 6 -12.33278210191019  2.44653522452245 -1.49880665546555
 6 -12.27221176747675 -0.75402281238124 -1.71602241074107
 6 -12.23142063046305 -1.25644805600560 -3.25630074867487
 7 -7.15696516481648 -1.37531714531453 -0.24826950395040
 6 -8.09377961776178 -2.23679885198520 -0.59683463866387
 6 -7.72588873447345 -3.66407467496750 -0.65227250455045
 6 -6.47373125722572 -3.52406674367437 -0.20519225112511
 6 -6.09076167256726 -2.24174245554555 -0.01366856265627
 6 -8.45368283568357 -4.97879072147215 -0.83150162856286
 6 -5.24948941924192 -4.40196407990799  0.10848372097210
 8 -4.98767760566057 -5.59641412481248  0.12477950865087
 6 -4.06514009340934 -3.31616740654065  0.55869573487349
 6 -3.56965759665967 -3.53020824212421  1.93730410331033
 8 -3.73163476407641 -3.00659739593959  3.00139282038204
 8 -2.85831702540254 -4.74621934433443  1.98367694859486
 6 -2.47449803770377 -5.38987321642164  3.08496343184318
 6  2.71831434313431 -0.53713150775078 -1.14506570697070
 6  4.09533162216222 -0.28098627492749 -0.54475462446245
 6  5.01052453685368  0.55584184958496 -0.85930570327033
 6  5.02094051705170  1.31863451275128 -2.19121328662866
 6  6.42193652645265  0.46253810401040 -0.25886237143714
 6  7.52741027892789 -0.21290163706371 -1.03066001650165
 6  8.90370224282428 -0.34729986038604 -0.19324113691369
 6  10.15789641414141 -0.62095916761676 -0.94376534703470
 6  10.08360506070607 -2.06481741784178 -1.43796726172617
 6  11.37910078697870 -0.33692747354735  0.01531239983998
 6  12.68740364806481 -0.45497954905491 -0.75416543944394
 6  13.90928039643964 -0.06494769756976  0.21487855535554
 6  15.24465058995900 -0.38127185628563 -0.51041928172817
 6  15.61514318321832 -1.81820945474547 -0.73911352905291
 6  16.38221232713271  0.30277463746375  0.31603611081108
 6  17.68318290769077  0.48267966636664 -0.32571838643864
 6  18.61536190569057  1.21177939493949  0.66332676567657
 6  20.11902057125712  1.33935426892689  0.23783854705471
 6  20.09647100090009  2.35499379657966 -1.02904389708971
 6  21.14049498029803  1.92047498379838  1.23756912031203
 1 -4.13225470997100  3.56042156355636  1.90477506440644
 1 -10.40527091979198  3.86437727272727 -0.87006239773977
 1 -10.23305659505951 -2.58463780458046 -1.16786343854385
 1 -2.69078553545355 -1.10021833573357  2.06705739693969
 1 -2.34452805800580  1.69988357095710  1.22545319571957
 1 -1.97154161166117  0.75742619551955  3.71808552205221
 1 -2.87244230423042  2.40143420092009  3.70671283668367
 1 -3.49797324002400  0.61076576057606  3.83168558135814
 1 -1.79416190109011 -1.55675563596360 -0.27574148334833
 1 -2.10002167466747  0.18762601300130 -0.61589162876288
 1 -0.20238375577558  0.53650826472647  1.01854225332533
 1 -0.32489029102910 -1.30381489668967  1.37172112731273
 1 -5.70379915531553  7.02370101420142  0.76516222542254
 1 -5.57148413781378  6.17656101920192  2.21949824692469
 1 -4.31514547054705  5.63247441384138  1.09456263186319
 1 -9.31328338083808  5.89213536163616 -0.70200042824282
 1 -9.32110332623262  7.95376611551155  0.70681030283028
 1 -7.84570403620362  7.57892429192919  1.62092047754775
 1 -12.06171027612761  3.15487581358136 -2.31350435513551
 1 -13.21573124232423  1.81830572177218 -1.93720491199120
 1 -12.44917664876488  3.22847150185018 -0.76192743674367
 1 -12.29274405280528 -1.63148259335934 -1.22481743664366
 1 -13.28897761666166 -0.45376211301130 -1.73299882738274
 1 -13.13865021762176 -2.02090677687769 -3.54744462896290
 1 -12.59533309750975 -0.44366890449045 -4.02021551725173
 1 -11.39380565986599 -1.89963483058306 -3.60062868286829
 1 -8.96561616461646 -5.05174591749175 -1.80897416151615
 1 -7.82764212901290 -5.77054705890589 -0.87434704770477
 1 -9.12708259315932 -5.18721374267427 -0.20565238783878
 1 -3.38356905280528 -3.31273452415242 -0.29887515901590
 1 -1.62659082558256 -4.71850829052905  3.74248716401640
 1 -3.26150575917592 -5.46735835343534  4.00656349524952
 1 -1.90305841734173 -6.23480275347535  2.77305125802580
 1  2.60004930903090 -1.58376021192119 -1.67642160716072
 1  2.77596507410741  0.30039431903190 -1.87742089428943
 1  4.46421732733273 -0.90718293349335  0.34940815681568
 1  3.98748771227123  1.10705941634163 -2.71516988668867
 1  5.13116852855285  2.45980623952395 -2.14803127132713
 1  5.77492480008001  0.96019712721272 -3.07331606260626
 1  6.80165222812281  1.47582158215822 -0.03908126532653
 1  6.02854697409741 -0.01603964136414  0.90261997869787
 1  7.25850323502350 -1.19291852705271 -1.32416373997400
 1  7.61144358025803  0.42171537963796 -1.99699262286229
 1  9.04511656325633  0.65179306430643  0.28769640184018
 1  8.74935342404240 -1.32523803000300  0.67426529022902
 1  10.43900145154515  0.06225876357636 -1.88169305880588
 1  9.33259824532453 -2.22845082158216 -2.26292221702170
 1  11.16749930563056 -2.10420720462046 -1.78653289718972
 1  9.87579046504650 -2.87229917191719 -0.57258669836984
 1  11.25608328922892  0.72439466966697  0.49597108460846
 1  11.26227928132813 -1.19182514381438  0.83149377097710
 1  12.90611393029303 -1.71019918111811 -1.01126879447945
 1  12.75534928742874  0.02350304130413 -1.80508386968697
 1  13.71597303400340  1.00885344134413  0.33646098909891
 1  13.76517927102710 -0.60175978067807  1.26361287778778
 1  15.37766105460546  0.12009149414941 -1.63436779477948
 1  15.91598904180418 -2.34868516061606  0.16781532763276
 1  14.78766181688169 -2.05237761336134 -1.61497891299130
 1  16.57880751015102 -1.83779930483048 -1.26081755125513
 1  15.91837703840384  1.25545337903790  0.62961950625062
 1  16.42083653085308 -0.35159433453345  1.16036879807981
 1  18.13849478817882 -0.34224077147715 -0.79647298769877
 1  17.78264532903291  1.31177849674967 -1.10202377817782
 1  18.44531532413241  2.29359351705171  0.89430743604360
 1  18.82701986228623  0.82393657465747  1.67232723302330
 1  20.59123403610361  0.34678082628263 -0.10779371537154
 1  19.46571067766777  3.29350291219122 -0.85287888128813
 1  21.09167341944195  2.72340899369937 -1.45877724102410
 1  19.60869477387739  1.76699851065106 -1.93731070007001
 1  21.29302527772777  1.28942705180518  2.03502311951195
 1  22.11725343164316  2.21835306500650  0.73659862616262
 1  20.72596232613261  2.90004008730873  1.72734317481748
=======
12 -7.13584415741574  0.70304905300530  0.04742242964296
 6 -4.93913853185319 -1.96386756515652  0.44592112481248
 6 -4.87101703060306  2.77525597289729  1.20905727062706
 6 -9.45718045354535  3.05480097559756 -0.43635649534953
 6 -9.49909022272227 -1.83797930893089 -0.95191162026203
 7 -5.15530895549555  0.38266808490849  0.73045346364636
 6 -4.38108781488149 -0.70430025202520  0.71595961916192
 6 -2.90705971137114 -0.35003442914291  1.20205055925593
 6 -3.13801724012401  1.08406107440744  1.66279701040104
 6 -4.47340433533353  1.50592134093409  1.06353338323832
 6 -2.90759584168417  1.15347763586359  3.23174458335834
 6 -1.87533099409941 -0.55689095049505  0.15389934823482
 6 -0.48915633823382 -0.38810315751575  0.56345047434743
 6  0.60769190639064 -0.55781929482948 -0.54515989648965
 8  0.24207544764476 -0.80474588218822 -1.70593692539254
 8  1.84815662616262 -0.36707410381038 -0.17367415631563
 7 -7.11208165606561  2.70071566136614  0.36930562606261
 6 -6.11513079207921  3.38967994379438  0.81502503610361
 6 -6.38513576667667  4.75566985638564  0.81870255745575
 6 -7.78150085708571  4.84622525402540  0.22345073637364
 6 -8.14258853045305  3.48334753005301 -0.00255770947095
 6 -5.60111806850685  5.92665513141314  1.31691645214521
 6 -8.62556035363536  5.93714474817482  0.06683366876688
 6 -8.72456634793479  7.15428154675468  0.77156340614061
 7 -9.13294556715672  0.69593245434543 -0.46863089678968
 6 -9.89563582328233  1.77593754685469 -0.73026935103510
 6 -11.20732982958296  1.37335567466747 -1.13563528302830
 6 -11.17886028992899  0.05015037913791 -1.22260097409741
 6 -9.81913759445944 -0.49093106740674 -0.83898891499150
 6 -12.37778660236023  2.30440101110111 -1.38151492629263
 6 -12.45560010631063 -0.82733014311431 -1.64578538703870
 6 -12.30746823522352 -1.36878929012901 -3.14402952155216
 7 -7.23416288458846 -1.36982659625963 -0.27006168316832
 6 -8.26367660746075 -2.22059723182318 -0.56672162736274
 6 -7.76998314391439 -3.60067833533353 -0.63530080738074
 6 -6.42842672677268 -3.55194953195320 -0.23563529542954
 6 -6.19059165556556 -2.15890417171717  0.12210501470147
 6 -8.68410587798780 -4.77449029142914 -0.84606308470847
 6 -5.34371884218422 -4.35695957945795  0.20678355095510
 8 -5.21857069496950 -5.53070755415542  0.10328735943594
 6 -4.27509108850885 -3.30522631243124  0.57325719101910
 6 -3.61469210011001 -3.65064028532853  1.92122249514951
 8 -3.81817341794179 -3.02411914811481  3.01690437153715
 8 -2.81581277497750 -4.75995071747175  1.90194877577758
 6 -2.18282887078708 -5.04065829492949  3.13928886438644
 6  2.90332284398440 -0.57879567416742 -1.19917111751175
 6  4.22386447544755 -0.42158033433343 -0.55688583758376
 6  5.20380386478648  0.43645991139114 -0.96363613631363
 6  5.14865328832883  1.36510916021602 -2.11354551985199
 6  6.55028936173617  0.44229607980798 -0.22427891309131
 6  7.61187872577258 -0.05874622152215 -1.06134308480848
 6  8.95967784038404 -0.19568469886989 -0.24268608140814
 6  10.22730335483548 -0.79721679337934 -0.96690766126613
 6  10.17991469166917 -2.19629056515652 -1.20924438943894
 6  11.48735161206121 -0.32092587338734 -0.06373550495050
 6  12.87440234793479 -0.58305235633563 -0.69186920982098
 6  13.99025849424942 -0.15387659045905  0.10349741724172
 6  15.36312243714371 -0.03672740184018 -0.56335457525753
 6  15.79874154305431 -1.54103173697370 -1.02518213591359
 6  16.40943504940494  0.42752711271127  0.46537104430443
 6  17.83083767316732  0.52350374877488 -0.11344715931593
 6  18.91700206970697  1.27912612961296  0.85403583658366
 6  20.26543521272127  1.30968130163016  0.28595335853585
 6  20.28655000880088  1.92127042424242 -1.07930892359236
 6  21.32541347214721  1.87429036533653  1.28654401780178
 1 -4.21822330683068  3.56601212261226  1.61673626052605
 1 -10.07241763446345  3.96198703370337 -0.72908830033003
 1 -10.31292458185819 -2.58946828762876 -1.17236388858886
 1 -2.83141959885989 -1.07723603750375  1.98397908910891
 1 -2.28797240244024  1.64439802240224  1.34536518691869
 1 -1.85039949744974  1.10369082198220  3.41154486798680
 1 -3.10140520052005  2.31014507200720  3.51093325872587
 1 -3.74902834553455  0.75125980998100  3.82362477527753
 1 -2.03902638753875 -1.70411037143714 -0.03326723592359
 1 -2.01636330883088  0.14272152255226 -0.79290933053305
 1 -0.17426094349435  0.42331694559456  0.86551695079508
 1 -0.10510831283128 -1.11111562676268  1.29341329652965
 1 -5.74788356375637  6.75190383448345  0.89016472567257
 1 -5.59707669706971  6.11673503660366  2.28150444754475
 1 -4.47368132413241  5.70655182158216  1.18458163376338
 1 -9.45955800830083  6.03521967006701 -0.67763799199920
 1 -9.54946616251625  7.83867460636064  0.36819644144414
 1 -8.10025949174918  7.65415181468147  1.63521190669067
 1 -11.96944104920492  3.12540286628663 -2.07759076377638
 1 -13.30161983118312  1.76507039823982 -1.67170836233623
 1 -12.50405213631363  2.71553020772077 -0.37091833583358
 1 -12.51539631803180 -1.65342478757876 -0.97626258115812
 1 -13.22661138003800 -0.07995473227323 -1.72489801730173
 1 -13.21672802540254 -2.00621530773077 -3.35029491399140
 1 -12.24602816701670 -0.38800333793379 -3.83087658335834
 1 -11.25998227752775 -1.95269013611361 -3.38663728372837
 1 -8.93873347634764 -5.03753449634964 -1.98134139823982
 1 -8.19890925572557 -5.62457246144614 -0.46230584358436
 1 -9.70766065096510 -4.65290031133113 -0.37817964056406
 1 -3.40435113101310 -3.42067531823182 -0.20732600410041
 1 -1.84547271377138 -4.21522796249625  3.57884079937994
 1 -2.97099670827083 -5.31422303990399  3.80173301220122
 1 -1.24191230273027 -5.76919619281928  3.04109806270627
 1  2.67455675977598 -1.60681251715171 -1.72752671767177
 1  2.55206268386839  0.07691197079708 -1.91227437963796
 1  4.52863376897690 -1.15390760596060  0.06975019101910
 1  4.18728769226923  1.41195990639064 -2.69357772747275
 1  5.56779219091909  2.37838809770977 -1.65060152835284
 1  5.87338464606461  0.98452956045605 -2.69665839683968
 1  6.59022108500850  1.62474647464746  0.17791043384338
 1  6.38454257365736 -0.20218825622562  0.74591430813081
 1  7.51218860356036 -1.12012124732473 -1.32385370897090
 1  7.65454789068907  0.56091930003000 -2.05421834543454
 1  9.11920397199720  0.75392327732773  0.15713334553455
 1  8.85100358905891 -0.96161166736674  0.72191005470547
 1  10.16695424682468 -0.11142860516052 -1.84063895339534
 1  9.12529751525152 -2.58751672817282 -1.62973889868987
 1  10.94547710341034 -2.36200298419842 -2.01292553645365
 1  10.47972085808581 -2.81273321532153 -0.29118855855586
 1  11.28606628752875  0.81933416361636  0.18382987048705
 1  11.35960901430143 -0.84175013631363  1.01376199779978
 1  13.19076239513951 -1.53405156635664 -0.78396606420642
 1  12.86765051755175 -0.11817112611261 -1.60999436073607
 1  13.62233367006701  0.87576013201320  0.58905624862486
 1  14.31465421852185 -0.72587219191919  0.88609512601260
 1  15.43431672017202  0.68660814581458 -1.54624898289829
 1  15.66089353225323 -2.12660295239524 -0.13219467336734
 1  15.06626967766777 -1.75511788738874 -1.61513892899290
 1  16.83496312571257 -1.47603312821282 -1.54825629512951
 1  15.86072127282728  1.43098093179318  0.67461400570057
 1  16.40567501470147 -0.29688886398640  1.25014777597760
 1  18.14253519221922 -0.48225477287729 -0.41970531093109
 1  17.82235930043004  1.16348366726673 -1.02503607940794
 1  18.64851564416442  2.34305846354635  0.91923992929293
 1  18.80624778507851  0.68094227522752  1.73922392269227
 1  20.44615952865287  0.22698884708471  0.07982504650465
 1  20.13643775037504  2.99971353325333 -1.02023561696170
 1  21.13588784088409  1.84973162596260 -1.60133149644964
 1  19.61024492889289  1.39856166696670 -1.91883885288529
 1  21.44056003120312  0.99384749384938  2.04413403060306
 1  22.36689839613961  1.79497072677268  0.71053601990199
 1  21.25802553245325  2.89039912321232  1.76994743524352
>>>>>>> 8e03b5b5abfc0030b3aa597dc0de36371bfbd096

