%nproc=4
%Mem=2GB
# td=(NStates=1) CAM-B3LYP/6-31G(d,p) 

TD

0 1
12 -7.10705127812781  0.62657140524052 -0.00724303690369
 6 -4.88483310131013 -1.94661583998400  0.61905843854385
 6 -4.82520244914492  2.86450489778978  1.07340370527053
 6 -9.36818155365536  3.07278277377738 -0.49847270697070
 6 -9.55384569826983 -1.78455396639664 -0.87501393049305
 7 -5.10168359295930  0.43895371347135  0.74901531983198
 6 -4.35349505560556 -0.65537535953595  0.92137016021602
 6 -2.92732173757376 -0.48216764246425  1.33836419061906
 6 -3.05543898229823  1.09380204850485  1.72120285098510
 6 -4.40612760766077  1.58842959175918  1.19873690359036
 6 -2.80788587068707  1.31236352445245  3.25203661256126
 6 -1.96620008100810 -0.65967122852285  0.27180113841384
 6 -0.52625004760476 -0.35845019221922  0.70170429972997
 6  0.45882701990199 -0.59286279917992 -0.44002938343834
 8  0.14679591969197 -0.93763917151715 -1.54444077577758
 8  1.75835764626463 -0.32110950735073 -0.12485927482748
 7 -7.17495794369437  2.63576916671667  0.30428912441244
 6 -6.10007928692869  3.33192416821682  0.76985051865187
 6 -6.44922217531753  4.78456274567457  0.76523721092109
 6 -7.75317802480248  4.84123475497550  0.32557094839484
 6 -8.18575284688469  3.51304049934994 -0.00233768746875
 6 -5.47694565126513  5.89190165606561  1.24495925642564
 6 -8.60392819041904  6.05114614831483  0.10234722012201
 6 -8.49128301960196  7.17534365296530  0.79415566536654
 7 -9.13930620322032  0.61271413251325 -0.47868190189019
 6 -9.79485574527453  1.83645359845985 -0.65567189128913
 6 -11.16565566216622  1.43441178027803 -1.21842356185619
 6 -11.14952735663566  0.09061442554255 -1.37837655165517
 6 -9.91715739643964 -0.41140311461146 -0.96581159725973
 6 -12.29077790149015  2.37586815781578 -1.42846962176218
 6 -12.30894544084408 -0.81539894999500 -1.81803261176118
 6 -12.20049753815382 -1.11452386358636 -3.38386350495050
 7 -7.23082255055506 -1.34067368096810 -0.11275595259526
 6 -8.29936017581758 -2.24499967206721 -0.44926988218822
 6 -7.80561670727073 -3.63519178667867 -0.49456673397340
 6 -6.52940682478248 -3.49820415741574 -0.06259799169917
 6 -6.14096669306931 -2.15072335363536  0.11599440364036
 6 -8.63992145954595 -4.73921676407641 -0.95365384378438
 6 -5.33115758605861 -4.30373425692569  0.16864973757376
 8 -5.12889172707271 -5.55527001040104  0.02993002370237
 6 -4.19270284968497 -3.38233402320232  0.68049791509151
 6 -3.59331996289629 -3.69558477977798  1.95451582448245
 8 -3.69219081968197 -3.13717045324532  3.05145782688269
 8 -2.79541073477348 -4.84862958535854  1.89524810571057
 6 -2.10366095399540 -5.13294752385239  3.03747868336834
 6  2.74263677537754 -0.59487728232823 -1.12796399679968
 6  4.15039712871287 -0.41705988228823 -0.57793794279428
 6  5.15104858925893  0.23948021342134 -1.01549132183218
 6  5.06956537953795  1.12524517381738 -2.35212937823782
 6  6.47950228302830  0.23834568476848 -0.38021450665066
 6  7.64606214411441 -0.19734008090809 -1.08960591109111
 6  8.91145301790179 -0.05499062946295 -0.26304811761176
 6  10.27626825132513 -0.52249932163216 -1.00722169266927
 6  10.14013071327133 -2.02520345644564 -1.42625609060906
 6  11.46503938083808 -0.34190797159716 -0.11047017841784
 6  12.78013292099210 -0.66561061216122 -0.74715473837384
 6  13.93299276767677 -0.01223242604260  0.08213528102810
 6  15.32718884378438 -0.18995272437244 -0.53562180198020
 6  15.81652332123212 -1.49592722652265 -1.01046066376638
 6  16.50722482838284  0.15875023502350  0.47335184238424
 6  17.78164275367537  0.53263466186619 -0.05260107470747
 6  18.80833120262026  1.24350256725673  0.73404383738374
 6  20.18865753495350  1.40021035453545  0.28687345054505
 6  20.33127448124813  2.07623592079208 -1.08340933363336
 6  20.95976690749075  2.03900683698370  1.38993435683568
 1 -4.10336182068207  3.56409193059306  1.34812939983998
 1 -10.15073546624662  3.89682051705170 -0.41423681518152
 1 -10.16475976537654 -2.67375671647165 -1.35913256545655
 1 -2.61253771067107 -0.89256757065707  2.24479517071707
 1 -2.07849145434543  1.49264284688469  1.16900755115512
 1 -1.83565802330233  1.11523197609761  3.59327304080408
 1 -3.16018107810781  2.25553961146115  3.50417258265827
 1 -3.33348679137914  0.56802148614862  3.63279569236924
 1 -1.91006349124913 -1.50842080248025 -0.19503341254125
 1 -2.24410608310831 -0.01845459505951 -0.73494353395339
 1 -0.32405592299230  0.63165777967797  1.17783818291829
 1 -0.25520332233223 -1.13603811901190  1.62163611881188
 1 -5.59435821122112  6.93933257735774  0.87710341954195
 1 -5.68796578597860  6.13051641474147  2.35183148024803
 1 -4.50909486548655  5.45675684208421  1.23329650525053
 1 -9.34803685618562  6.14769091719172 -0.56060628882888
 1 -9.37355857175718  7.98636937583758  0.52043166496650
 1 -7.80926039183918  7.13375977547755  1.57472585808581
 1 -11.93720782588259  3.25051537753775 -1.94945795049505
 1 -13.09376904610461  1.63264715591559 -1.78112930443044
 1 -12.84942667376738  2.59548820352035 -0.33308455245525
 1 -12.46997177557756 -1.61499094419442 -1.29298425332533
 1 -13.22411113001300 -0.36457319411941 -1.71626715421542
 1 -12.91080743334333 -1.85979066526653 -3.59704958945895
 1 -12.07910147434744 -0.26281081868187 -3.88322181788179
 1 -11.22023830313031 -1.78843371047105 -3.45843446344634
 1 -8.80865046804680 -4.69910065296530 -2.08070133423342
 1 -8.02494185898590 -5.67428743294329 -0.55909552255226
 1 -9.60186007090709 -4.86111113241324 -0.66252807540754
 1 -3.37648834473447 -3.38401165186519 -0.12758803030303
 1 -1.47565573207321 -4.31897833753375  3.51243415871587
 1 -2.91853146174617 -5.30028164576458  3.69343218211821
 1 -1.58514662616262 -6.15234450765077  2.68139209210921
 1  2.75339464356436 -1.81996383228323 -1.40660462546255
 1  2.35046252385239  0.01046532613261 -1.91472462466247
 1  4.46796770237024 -0.78297051225123  0.34637785378538
 1  4.08981794529453  1.10065877627763 -2.80343871357136
 1  5.09538495019502  2.27748800770077 -1.95498196639664
 1  5.84856216381638  0.97694880238024 -3.08673740474047
 1  6.81662372527253  1.22619661966197  0.15005764856486
 1  6.46918103750375 -0.30936897429743  0.56044576127613
 1  7.49012639733973 -1.17010624582458 -1.46933825742574
 1  7.61829426532653  0.56537974607461 -1.89287221082108
 1  8.95053710531053  1.06587447244725 -0.04939730753075
 1  8.86654514321432 -0.67594310051005  0.78675653935394
 1  10.35679323072307  0.02517505520552 -1.97764265376538
 1  9.38860384588459 -2.23871184768477 -2.03417934273427
 1  11.07420997669767 -2.41866865076508 -1.79385362926293
 1  9.99470235623562 -2.42932487448745 -0.46711615131513
 1  11.58833651455146  0.71270350055005  0.37584907240724
 1  11.28273132653266 -0.92470843214321  0.77424804640464
 1  12.66165948484849 -1.67318547974797 -0.80913858145815
 1  12.74491824432443 -0.38202751175117 -1.98110147144715
 1  13.70027146384638  0.97108966496650  0.28756609960996
 1  13.91931468456846 -0.46358596329633  1.10824734123412
 1  15.37226051455145  0.79742922792279 -1.14254861286129
 1  15.94601204410441 -2.36617690979098 -0.18324977887789
 1  15.11021407210721 -1.99802217781778 -1.86183359845985
 1  16.87874750415042 -1.72270779567957 -1.47425889538954
 1  16.11838703940394  1.02218005170517  1.09370591489149
 1  16.87204165136514 -0.56095527062706  1.27679044024402
 1  18.43339427812781 -0.34193074047405 -0.53429677007701
 1  17.52619968446845  1.04443176207621 -1.05504908070807
 1  18.60029082168217  2.37194135183518  1.16949495479548
 1  18.99438659895990  0.66021020202020  1.73646364666467
 1  20.63520843354335  0.32706885508551  0.26576364036404
 1  19.54689879647965  3.06982054395440 -0.97765135853585
 1  21.38484273637364  2.43761041384138 -1.41812317561756
 1  19.90731463586359  1.29813162396240 -1.86885385438544
 1  21.14019999519952  1.30912902200220  2.11758137533753
 1  22.08933063936394  2.57774900460046  1.00990595689569
 1  20.47908763866387  3.07805788908891  1.85586602710271

