%nproc=4
%Mem=3GB
# td=(NStates=1) iop(3/107=0140000000,3/108=0140000000) CAM-B3LYP/6-31G(d,p) 

TD

0 1
12 -7.01382607430743  0.55855423892389  0.19892626262626
 6 -4.88359717621762 -1.95497272787279  0.54058946134613
 6 -4.80668669926993  2.84641335923592  1.26968707390739
 6 -9.34948171267127  3.16022357535754 -0.45651812711271
 6 -9.58343444144415 -1.65619738543854 -0.99427623252325
 7 -5.06534356555656  0.43880997159716  0.82594041804180
 6 -4.35744799209921 -0.69745088828883  0.82123001770177
 6 -2.97386360696070 -0.41273967196720  1.21013668276828
 6 -3.01076430333033  1.06981568316832  1.73263954325433
 6 -4.34868510321032  1.54378903000300  1.22502689658966
 6 -2.92519870067007  1.14982780208021  3.23005832043204
 6 -1.93231896159616 -0.55979196839684  0.17942175247525
 6 -0.54121983118312 -0.43142639063906  0.51700508280828
 6  0.41591351455146 -0.81968859075908 -0.58555834593459
 8  0.11665188198820 -1.14328810651065 -1.63791118421842
 8  1.68673727212721 -0.54398433683368 -0.12951833943394
 7 -7.10362800620062  2.59863307320732  0.42373329742974
 6 -6.08525866966697  3.31775554295430  0.84284016011601
 6 -6.37175208360836  4.75848271187119  0.77943620232023
 6 -7.68945373067307  4.72237404260426  0.41966809320932
 6 -8.00948047554756  3.38801574037404  0.04816281488149
 6 -5.39204123802380  5.82051152485249  1.11287144234423
 6 -8.52402241024102  5.92371264086409  0.26583719621962
 6 -8.38685709570957  7.24145329502950  0.72172623192319
 7 -9.06146518761876  0.74379137353735 -0.60990756465647
 6 -9.80829831613161  1.85210853515352 -0.71659447294729
 6 -11.10491444414441  1.57759720422042 -1.31972683238324
 6 -11.17593708090809  0.20226777257726 -1.34517454575458
 6 -9.85899350295029 -0.35878607200720 -0.99859206050605
 6 -12.09172010971097  2.54766000740074 -1.61803125582558
 6 -12.27230102300230 -0.56323244704470 -1.91212054265427
 6 -12.15304721362136 -0.99869006130613 -3.29026967816782
 7 -7.13921688408841 -1.34984982068207 -0.18897157225723
 6 -8.23795812211221 -2.17094564006401 -0.60812239213921
 6 -7.81644368416842 -3.56200675207521 -0.53076337613761
 6 -6.51585937643764 -3.51700468256826 -0.11086316801680
 6 -6.17129086078608 -2.12750070587059  0.11912374777478
 6 -8.64513685318532 -4.66050214861486 -0.88416179927993
 6 -5.31263672657266 -4.33136670007001  0.22167714181418
 8 -5.17783877617762 -5.56025288228823  0.19754570317032
 6 -4.22658716131613 -3.38046549394940  0.59821814341434
 6 -3.58058223502350 -3.73060100280028  2.02137810631063
 8 -3.92249503290329 -3.18415577347735  3.01885524372437
 8 -2.65264061686169 -4.77756637513751  1.86500553805381
 6 -2.18839779677968 -5.35530073597360  3.10709811021102
 6  2.77898421882188 -0.76128441734173 -1.17029054625463
 6  4.08545943114311 -0.47849311721172 -0.53489605240524
 6  5.02417790909091  0.38380490849085 -0.92611548854886
 6  5.04780850645064  1.12411008630863 -2.19546368136814
 6  6.29139541824182  0.43850446644664 -0.15276580098010
 6  7.61559301190119 -0.26225477347735 -0.90450077877788
 6  8.91858957055706 -0.17604942104210 -0.04466056845685
 6  10.19223468406841 -0.56951861506151 -0.86167188718872
 6  10.08685196179618 -1.98311619151915 -1.27710467646765
 6  11.42555721952195 -0.30965585668567 -0.03701166366637
 6  12.73358109360936 -0.56291632513251 -0.77196470157016
 6  13.93971524332433 -0.07144285858586  0.02992940454045
 6  15.27226321732173 -0.11716079967997 -0.59497515001500
 6  15.71312758375838 -1.57020540884088 -1.16532835913591
 6  16.32579957265727  0.47659417671767  0.37508224292429
 6  17.73343093079308  0.66097982758276 -0.23265979297930
 6  18.75679609820982  1.38047612611261  0.65321857855786
 6  20.24529733413342  1.31211064356436  0.29464617061706
 6  20.35105795159516  2.17434473957396 -1.08195289118912
 6  21.08575364236424  1.99418111801180  1.33447738773877
 1 -4.17421778527853  3.43552680408041  1.69943603940394
 1 -10.07066919021902  3.87870014451445 -0.62236676287629
 1 -10.36166059015902 -2.46375191029103 -1.17664548394839
 1 -2.70675796299630 -0.99861006370637  2.11754824552455
 1 -2.12797626392639  1.58708076917692  1.22023567256726
 1 -2.03042612901290  0.62918202460246  3.45482581998200
 1 -3.11622873197320  2.16141536433643  3.54087210941094
 1 -3.61443424392439  0.43719887418742  3.73720540574057
 1 -2.04631975097510 -1.52551322212221 -0.48777678477848
 1 -2.23486985598560  0.20488810861086 -0.53189992459246
 1 -0.14366979567957  0.58942853015302  0.78984284728473
 1 -0.55055347564757 -1.17872863946395  1.38181163946395
 1 -5.74864904260426  6.80066757875788  0.82426225752575
 1 -5.59264073537354  6.00977385878588  2.17553956645665
 1 -4.44405925052505  5.47788205620562  0.75613634623462
 1 -9.31952221202120  5.79814319631963 -0.32994434713471
 1 -9.03207227092709  8.02743246424643  0.46262603830383
 1 -7.45818375047505  7.25810264666467  1.42036099639964
 1 -11.56556702970297  3.11971111821182 -2.42511834333433
 1 -13.08255555325533  1.97681642404240 -1.81108683688369
 1 -12.32865389808981  3.08029536363636 -0.55462590209021
 1 -12.46294825972597 -1.52285320812081 -1.28256175707571
 1 -13.39852215131513 -0.20126283678368 -1.68400415481548
 1 -13.01021622082208 -1.72975663776378 -3.66607756585659
 1 -12.24759516521652 -0.27976644794479 -3.95615459385939
 1 -11.31534637403740 -1.42086311351135 -3.70131841004100
 1 -8.95807042564256 -4.84155065586559 -1.93860992399240
 1 -8.15905029022902 -5.57873382668267 -0.67791774687469
 1 -9.52631681068107 -4.71476992539254 -0.46762903160316
 1 -3.52561007950795 -3.61482808840884 -0.28348608670867
 1 -1.61633502110211 -4.61861407480748  3.57146886448645
 1 -3.04553099039904 -5.44249377427743  3.56365740344034
 1 -1.59536005650565 -6.29202998779878  2.97320068116812
 1  2.83109116391639 -1.81494811761176 -1.54458590729073
 1  2.64484092539254 -0.16282819801980 -2.10599165666567
 1  4.26451693839384 -1.19958837263726  0.26940834103410
 1  4.13395870737074  1.17250279297930 -2.72870335603560
 1  5.37668460066007  2.23506393029303 -2.11163860226023
 1  5.60185975447545  0.65800699159916 -2.76358261516152
 1  6.51488967286729  1.53962394299430  0.14570418431843
 1  6.07617548964897 -0.02707004370437  0.75738193369337
 1  7.36891901470147 -1.36357703070307 -1.12424718191819
 1  7.77391995049505  0.01766086908691 -1.84786560946095
 1  8.98385442974297  0.76582608010801  0.30505293339334
 1  8.82427554835484 -0.77071542424242  0.89083520692069
 1  10.26062069386939  0.15640178797880 -1.67659281728173
 1  9.23196280538054 -2.32390067356736 -1.72319070097010
 1  10.95356449704971 -2.47421082038204 -1.73862922102210
 1  10.01014321142114 -2.65812992769277 -0.38391578527853
 1  11.40099174077408  0.55483191659166  0.66964473527353
 1  11.24039163466347 -0.97365866346635  0.72410873097310
 1  12.77357531003100 -1.61691911121112 -0.96310858235824
 1  12.84397022692269 -0.10918598259826 -1.93896823052305
 1  13.76080750105010  0.96384174747475  0.36097092579258
 1  13.87760607120712 -0.67755413431343  1.10583295729573
 1  15.30959136053605  0.40089348634864 -1.49460072887289
 1  15.68378217501750 -2.32039138033803 -0.37792592809281
 1  14.77402904730473 -1.90052457245725 -1.72813418691869
 1  16.77325560516052 -1.60438133513351 -1.54513102640264
 1  15.97602087558756  1.27974630833083  1.04120003630363
 1  16.23242732053205 -0.50912719751975  1.00843933863386
 1  18.15460219791979 -0.37717423142314 -0.70801099669967
 1  17.42764007360736  1.18806770087009 -1.16218196179618
 1  18.60485954285429  2.49884115211521  0.77065901270127
 1  18.71737770027003  0.92966780628063  1.57660090559056
 1  20.44745457775778  0.16928792639264  0.12383827602760
 1  20.17324414291429  3.18220899739974 -0.96793897859786
 1  21.41438523932393  1.78094923702370 -1.13817179837984
 1  19.59824822242224  1.68075836603660 -1.81377976237624
 1  21.00136398989899  1.57011265216522  2.35193886268627
 1  22.07982587538754  2.10587105780578  1.12418907250725
 1  20.74491456995700  3.04972108930893  1.60874801150115

