%nproc=4
%Mem=2GB
# td=(NStates=1) CAM-B3LYP/6-31G(d,p) 

TD

0 1
12 -7.23145371837184  0.55399414751475  0.10881856925693
 6 -4.86649126712671 -1.99824100250025  0.58813534623462
 6 -4.77937786668667  2.78569701700170  1.03552991789179
 6 -9.40999573507351  3.11684718021802 -0.30845370507051
 6 -9.52666297999800 -1.70134564556456 -0.95945237433743
 7 -5.04834825942594  0.45630544864486  0.67969838813881
 6 -4.41165087118712 -0.70442026402640  0.85279330253025
 6 -2.88580758615862 -0.42117154285429  1.17323767796780
 6 -2.93393683208321  1.04886755505551  1.54074480518052
 6 -4.37232422732273  1.50673142194219  1.02261929182918
 6 -2.78999408150815  1.44581686978698  3.03619502840284
 6 -1.88858231923192 -0.67700296169617  0.00165412371237
 6 -0.42407983058306 -0.56411075827583  0.43431756105611
 6  0.47562870007001 -0.65122863576358 -0.74063944444444
 8  0.15075631573157 -0.98978438603860 -1.83711004270427
 8  1.82818462896290 -0.32750014641464 -0.46336312521252
 7 -7.12469291719172  2.64126971677168  0.24557325282528
 6 -6.07173645264526  3.28980995679568  0.73699723332333
 6 -6.41597885098510  4.70957524692469  0.85274596179618
 6 -7.66628933593359  4.86144677617762  0.50918931023102
 6 -8.22656692829283  3.49696889218922  0.09609215551555
 6 -5.45222317901790  5.81575404130413  1.20282504300430
 6 -8.54178197579758  5.95908694239424  0.24732171757176
 6 -8.43826771807181  7.12294841344134  0.85176142594259
 7 -9.14408668126813  0.61941480258026 -0.51162519621962
 6 -9.88102436213621  1.79514946804680 -0.65105142924292
 6 -11.21339043564356  1.52306064516452 -1.09569128862886
 6 -11.24431683558356  0.17445280938094 -1.23728244224422
 6 -10.00012569326933 -0.41074304860486 -0.93104812091209
 6 -12.32531135483548  2.46964753575358 -1.19428620342034
 6 -12.46810135643564 -0.74056146624662 -1.64827563606361
 6 -12.49413690209021 -1.17866027722772 -3.16756187478748
 7 -7.24714418271827 -1.42649226282628 -0.20506518351835
 6 -8.31012125192519 -2.24727990009001 -0.53608856405641
 6 -7.91207735333533 -3.60678894639464 -0.57127440474047
 6 -6.52194607870787 -3.64569890689069 -0.06003773567357
 6 -6.22804540094009 -2.26463474477448  0.12352515671567
 6 -8.75500296769677 -4.81029387178718 -0.84514299269927
 6 -5.38152262256226 -4.37061094459446  0.29376224882488
 8 -5.23702254015402 -5.60003448684868  0.37517454815482
 6 -4.26977055645565 -3.35419120892089  0.57928779407941
 6 -3.65879651055105 -3.69347456875688  2.00424079697970
 8 -3.88126972757276 -3.15230196639664  3.03652633373337
 8 -2.72307350105010 -4.68686340874087  1.84413299419942
 6 -2.21284187208721 -5.10368459755976  3.19489442494249
 6  2.84692720442044 -0.73552134673467 -1.31586278667867
 6  4.14077616661666 -0.40222839913991 -0.59004915391539
 6  5.12242572697270  0.28366463186319 -1.18995876857686
 6  5.12484090709071  1.06079872917292 -2.39820398569857
 6  6.48116244904490  0.31688353855386 -0.33469995519552
 6  7.69745728362836 -0.07263761066107 -1.09970692119212
 6  9.03998587118712  0.04824969456946 -0.26161797459746
 6  10.30858148264826 -0.50037710941094 -0.90520149064906
 6  10.26761346154615 -1.91982291839184 -1.42893635863586
 6  11.49220209710971 -0.03238701950195 -0.11367049844984
 6  12.77565247294729 -0.26512056315632 -0.74198422132213
 6  13.92048151655166 -0.09103030583058  0.12872994049405
 6  15.34765088998900 -0.29109283838384 -0.50902914271427
 6  15.72489415831583 -1.75609324312431 -0.78856847454745
 6  16.40480458635864  0.42585694569457  0.45653016021602
 6  17.87504209360936  0.58406980538054 -0.16745255985599
 6  18.91811218071807  1.26151436843684  0.82351278427843
 6  20.35157382658266  1.30130046354635  0.50613537673767
 6  20.59034038783878  1.94812310951095 -0.89583057575758
 6  21.18020895169517  2.02460539683968  1.57754311771177
 1 -4.20074155865587  3.58653417481748  1.40759534643464
 1 -10.17114750745074  3.85882671767177 -0.31481687318732
 1 -10.33197648704870 -2.43944328512851 -1.40709736193619
 1 -2.83996045294529 -1.02584089798980  2.06474716591659
 1 -2.25459906510651  1.64367795039504  0.86471712211221
 1 -1.95441989948995  1.08326877977798  3.38123183668367
 1 -3.05751081108111  2.47406146364636  3.39338150355035
 1 -3.75826926962696  0.88369305330533  3.48152056485649
 1 -1.94135662056206 -1.59374933533353 -0.44265817501750
 1 -2.36651832433243 -0.01633438303830 -0.72737277687769
 1 -0.37366088348835  0.40639525342534  0.85098549764977
 1 -0.19036683868387 -1.32115663086309  1.16652060726073
 1 -5.83590236563656  6.65646429052905  0.65874158335834
 1 -5.39098608800880  5.85800916401640  2.25693199029903
 1 -4.37471142714271  5.71971313771377  0.78427160276028
 1 -9.35862791529153  5.81169731783178 -0.27362759095910
 1 -9.24302551845184  8.05451619051905  0.65845546734673
 1 -7.82035150095010  7.38440483998400  1.72679106460646
 1 -12.23250735583558  3.09265959195920 -2.06262926762676
 1 -13.48832850205021  1.82904679587959 -1.33466465796580
 1 -12.30518224932493  3.27317597229723 -0.52078332233223
 1 -12.48915369376938 -1.60482992809281 -0.88479343424342
 1 -13.31616033493349 -0.08203494029403 -1.55926145364536
 1 -13.18931528412841 -1.95416010221022 -3.48072795729573
 1 -12.72497606180618 -0.26947148474848 -3.78244173987399
 1 -11.56515279457946 -1.44357922502250 -3.41933055305531
 1 -8.90328993199320 -5.03544428732873 -1.93571683578358
 1 -8.10493985878588 -5.84311431563156 -0.77390700370037
 1 -9.83655354025402 -4.99543456475648 -0.25571739433943
 1 -3.52576327222722 -3.52298554925493 -0.29504477597760
 1 -1.90383855035504 -4.18464490419042  3.85011792709271
 1 -3.16065567416742 -5.59970158775878  3.67812065096510
 1 -1.48920703220322 -5.92797207040704  3.00896484938494
 1  2.75776508060806 -1.83492532843284 -1.51672563756376
 1  2.86121359895990 -0.24872059245925 -2.41827497969797
 1  4.13695460106011 -0.70839305450545  0.41122433843384
 1  4.19145810931093  1.02890160056006 -2.99826819651965
 1  5.54495990769077  2.20602086098610 -2.14551101930193
 1  5.93886119371937  0.80243135063506 -3.02573130413041
 1  6.67793985688569  1.33276727672767 -0.02839019621962
 1  6.45925004440444 -0.45169320672067  0.49235895259526
 1  7.58897628232823 -1.07568680388039 -1.53284460806081
 1  7.81005344124412  0.64374758285829 -2.02327525112511
 1  9.12012406400640  1.12115000000000  0.13271090329033
 1  9.02694118281828 -0.67393289948995  0.55838370207021
 1  10.77870542194219  0.10561309900990 -1.81449633913391
 1  9.31214620012001 -2.06469444594459 -1.85461138593859
 1  10.90685324102410 -2.06907369126913 -2.11433567746775
 1  10.04788767476748 -2.65989793179318 -0.52653209290929
 1  11.22888056895690  1.14641687188719  0.11425291279128
 1  11.64325737913791 -0.57099306060606  0.89994061566157
 1  12.84889820872087 -1.12128028922892 -1.45428309590959
 1  12.90612436493649  0.50005069606961 -1.57813117441744
 1  14.25251668836884  1.11602415841584  0.33391073407341
 1  14.14204695779578 -0.83545315001500  1.12145866236624
 1  15.40652394089409  0.31193067806781 -1.31488584658466
 1  15.60287773067307 -2.21130142224222  0.34549309540954
 1  14.97439048974898 -2.36866924252425 -1.56908432353235
 1  16.87250688008801 -2.18199372427243 -1.24986645614561
 1  16.21451665236524  1.47301513521352  0.57342388668867
 1  16.30984543174317 -0.15834500960096  1.33292605380538
 1  18.15540647934793 -0.31454800220022 -0.51708504890489
 1  17.76366343084308  1.23328064696470 -1.01273484928493
 1  18.53306409900990  2.28009216691669  1.18085609090909
 1  18.69140630093009  0.77772195319532  1.82934293459346
 1  20.67565247794780  0.14594074227423  0.25201226522652
 1  20.24267837443744  2.91972553445345 -1.04846844024402
 1  21.63754800690069  1.95144179697970 -1.11799316261626
 1  20.16694059845985  1.37342915371537 -1.65755272427243
 1  21.04268024322432  1.70353846294629  2.65715533273327
 1  22.14991669796980  1.92767399709971  1.48333329962996
 1  20.96926665656566  3.08730881418142  1.63998443894389

