%nproc=4
%Mem=2GB
# td=(NStates=1) CAM-B3LYP/6-31G(d,p) 

TD

0 1
12 -7.13452402540254  0.58130687878788  0.10166785418542
 6 -4.89901451945194 -2.01311248964896  0.55820235293529
 6 -4.84220414931493  2.85168361566157  1.08677504240424
 6 -9.42779751525152  3.08861435693569 -0.45615847554755
 6 -9.61856216991699 -1.79683519451945 -0.81889831893189
 7 -5.13734715931593  0.43437325542554  0.64275469376938
 6 -4.39013871997200 -0.70551037303730  0.81364938813881
 6 -2.93542254765477 -0.38768819451945  1.15439579377938
 6 -3.05667910631063  1.09181184948495  1.59614034473447
 6 -4.36398339323932  1.59198994779478  1.13654068396840
 6 -2.82905798789879  1.20097238533853  3.15793720262026
 6 -1.98054151515151 -0.76222148354835 -0.01662770447045
 6 -0.50318774137414 -0.47030137733773  0.47394152345235
 6  0.50921205840584 -0.69210272317232 -0.62301768226823
 8  0.26498773887389 -0.83127853545355 -1.77245357705771
 8  1.76926873737374 -0.42595999239924 -0.19419620852085
 7 -7.12812326022602  2.64319990979098  0.24113280878088
 6 -6.01776105510551  3.46255723152315  0.65859939353935
 6 -6.37364461756176  4.82314660406041  0.65993668086809
 6 -7.68212091909191  4.89875050655065  0.19232762406241
 6 -8.20559483108311  3.52410160546055  0.00557310361036
 6 -5.38599655635564  5.87332979887989  1.10768552905291
 6 -8.43106090369037  6.08024905860586 -0.00582359695970
 6 -8.37175106640664  7.13937005560556  0.89599584938494
 7 -9.13413568616862  0.65132799389939 -0.64153818751875
 6 -9.91877813751375  1.74069402250225 -0.77823414751475
 6 -11.18613771037104  1.48786712581258 -1.10983270277028
 6 -11.27888029192919  0.06753211731173 -1.13999271327133
 6 -9.95884156485648 -0.42509448374837 -0.81321633773377
 6 -12.36675549924992  2.48122869386939 -1.40273704850485
 6 -12.54444899119912 -0.73473088318832 -1.53055386388639
 6 -12.43872136053605 -1.10100251145114 -3.05817093569357
 7 -7.16916638493849 -1.37283689728973 -0.07209188618862
 6 -8.28798903870387 -2.26627179927993 -0.48899385458546
 6 -7.86954309990999 -3.64545281278128 -0.50151742904290
 6 -6.46616050015002 -3.61639597659766 -0.20569230113011
 6 -6.18512110851085 -2.24597287858786  0.05613841804180
 6 -8.65247271467147 -4.86279912231223 -0.87727620602060
 6 -5.28267273757376 -4.39071295479548  0.27094996759676
 8 -5.15367420532053 -5.62797728112811  0.26059309000900
 6 -4.16205978537854 -3.29839562936294  0.63071293659366
 6 -3.49642027292729 -3.70523574487449  1.92378275117512
 8 -3.68179978057806 -3.08878561476148  3.02356503760376
 8 -2.59487068076808 -4.75868059045905  1.71288986988699
 6 -2.08239882778278 -5.25839006810681  2.92426736223622
 6  2.83075558725873 -0.55692348694869 -1.16943814421442
 6  4.15194728372837 -0.45427360366037 -0.58013816281628
 6  5.08260174457446  0.43684995039504 -0.86784655735574
 6  4.94024244724472  1.49078172747275 -2.00387455275528
 6  6.45444977777778  0.33297514771477 -0.18099458465847
 6  7.60148768666867 -0.17819816671667 -1.00334728522852
 6  8.86113798639864 -0.23644877527753 -0.14639645244524
 6  10.21502212671267 -0.67795486718672 -0.87940891139114
 6  10.12512921312131 -2.12564350045004 -1.31537500250025
 6  11.39837271417142 -0.33395717651765  0.06006687528753
 6  12.73207811551155 -0.59140319141914 -0.56813683658366
 6  14.00760022842284 -0.16266746954695  0.16853392089209
 6  15.32839896479648 -0.21442517161716 -0.57432567236724
 6  15.76954862376238 -1.59877751155116 -1.04889450715072
 6  16.34804891079108  0.43380774077408  0.36096060326033
 6  17.81875646504650  0.52711410981098 -0.20941675627563
 6  18.75341571107111  1.31789000600060  0.82266269926993
 6  20.31377004620462  1.29993032653265  0.34253901710171
 6  20.40772212601260  2.17531582878288 -1.02556354905491
 6  21.11736266706671  2.07872080838084  1.42495785918592
 1 -3.99315079957996  3.48863438483848  1.50362494939494
 1 -10.09964035673567  3.97116795179518 -0.69812520402040
 1 -10.43420671007101 -2.34273361416142 -0.99413606580658
 1 -2.61834829172917 -0.90147846174617  2.14243493469347
 1 -2.33932753795380  1.86075965856586  1.17192784318432
 1 -1.84889934743474  0.77754820772077  3.48177189068907
 1 -2.98502356235624  2.22102616011601  3.33107527292729
 1 -3.69103254595460  0.65880056405641  3.82609502230223
 1 -2.14164664956496 -1.74771473187319 -0.44543845304530
 1 -1.94176584908491 -0.06727947754775 -0.77061710131013
 1 -0.22057557495750  0.50371498539854  0.53459385848585
 1 -0.10878868086809 -0.94809932513251  1.31585554075408
 1 -5.65679445484548  6.91060970507051  0.91048675787579
 1 -5.31825881528153  5.85612897599760  2.26854315141514
 1 -4.32699665566557  5.74459562596260  0.77685086068607
 1 -9.17345939843984  6.14319046714671 -0.70930115831583
 1 -9.05645686158616  7.93369410831083  0.95490511231123
 1 -7.52590205600560  7.12830923042304  1.69133751925192
 1 -11.95532963806381  3.25602592859286 -2.06814981968197
 1 -13.07898756795679  1.89650354155415 -1.90347153865387
 1 -12.64217594869487  3.00828948364836 -0.48275951995200
 1 -12.59055383378338 -1.72591203630363 -1.01594654955496
 1 -13.53852257115712 -0.04806154295430 -1.38959448694869
 1 -13.47884423702370 -1.45538022422242 -3.28396828132813
 1 -12.26516008020802 -0.25866040364036 -3.71594509020902
 1 -11.59147542684268 -1.86403127022702 -3.28341696169617
 1 -8.78276787978798 -4.95302604550455 -2.08064132823282
 1 -8.18168753355335 -5.82242224642464 -0.44120373337334
 1 -9.78886877177718 -4.82442746404641 -0.44341616421642
 1 -3.44735543144314 -3.68835208590859 -0.06015128662866
 1 -1.39356752325232 -4.46261270097010  3.32803571887189
 1 -2.98645825442544 -5.35534715231523  3.57579041794179
 1 -1.39298741024102 -6.25570484368437  2.47085103800380
 1  2.77523682778278 -1.57175901180118 -1.67845181018102
 1  2.50948842644264  0.04118839843984 -1.99145229742974
 1  4.14508541414141 -0.80856307150715  0.42630584658466
 1  3.82967193069307  1.74933364376438 -2.06481485118512
 1  5.52347775947595  2.48632889178918 -1.74748121632163
 1  5.27271457905791  1.08352946044605 -2.94496322732273
 1  6.67746980988099  1.36383038303830  0.11118376117612
 1  6.14999911931193 -0.02034007140714  0.94842455915592
 1  7.42892027672767 -1.10210944614461 -1.42097342094209
 1  7.53970640654065  0.56702991109111 -1.77187011061106
 1  9.14665671727173  0.73633151815182  0.39114674687469
 1  8.58604709340934 -0.91455696189619  0.82475033873387
 1  10.22554010541054  0.16760929862986 -1.66510139963996
 1  9.53517850335034 -2.25393336983698 -2.00173609840984
 1  10.90273282898290 -2.40692747664766 -1.87266151005101
 1  9.86665955195520 -2.76528847084708 -0.51438087778778
 1  11.26200388128813  0.77465969616962  0.31657314481448
 1  11.14685773917392 -0.93352931423142  0.97577819941994
 1  12.64791811071107 -1.67151531273127 -0.83825149274928
 1  12.83361711421142  0.01069176017602 -1.53789715101510
 1  13.72931436813681  0.73301585758576  0.58361570457046
 1  14.06959971307131 -0.85833543824382  1.08275479197920
 1  15.19225251375137  0.32691217621762 -1.47596195419542
 1  15.81654909780978 -2.27365765786579 -0.38974042794279
 1  14.92446549724973 -2.00456283188319 -1.62261967706771
 1  16.83455308470847 -1.37454297919792 -1.67600907040704
 1  16.09096429712971  1.62739057275728  0.50996754105411
 1  16.38281272847285 -0.20183935903590  1.19825258645865
 1  18.25709664836484 -0.46630317771777 -0.48998233863386
 1  18.00358742324233  1.14726204510451 -1.18104167996800
 1  18.19343013561356  2.35781993969397  0.74124212951295
 1  18.82768992929293  0.81039522052205  1.65342534283428
 1  20.73642855555556  0.30586673487349  0.15141220522052
 1  19.99424353095309  2.94980854275428 -0.89928352175218
 1  21.52104635673567  2.29083573637364 -1.28533989728973
 1  19.95916982138214  1.75765757655766 -1.88588555755576
 1  21.12799877507751  1.34314242334233  2.38521813901390
 1  22.12489419571957  1.93421465116512  0.89737470377038
 1  20.88173790369037  3.16287637093709  1.48772921342134

