%nproc=4
%Mem=3GB
# td=(NStates=1) iop(3/107=0140000000,3/108=0140000000) CAM-B3LYP/6-31G(d,p) 

TD

0 1
12 -7.19732442414241  0.62149053255326  0.10955732573257
 6 -4.82758157465747 -1.94084131473147  0.41971737413741
 6 -4.81023705430543  2.79100781868187  1.21929203440344
 6 -9.40107687218722  3.13419097209721 -0.45715819111911
 6 -9.53674977297730 -1.65715748144814 -0.85904270917092
 7 -5.17831486268627  0.47146323692369  0.72446027002700
 6 -4.38155040234023 -0.72933407660766  0.77618551325132
 6 -2.95101132173217 -0.41286968496850  1.25225089418942
 6 -3.07141036793679  1.09320802240224  1.77711399069907
 6 -4.37934816951695  1.50474512561256  1.19776417031703
 6 -3.08375455625563  1.04540736003600  3.23805912051205
 6 -1.96452218191819 -0.48528451765176  0.06597040734073
 6 -0.50409611881188 -0.30325357335734  0.50621400370037
 6  0.41332325552555 -0.76244286618662 -0.61475126522652
 8  0.08594881168117 -1.24800857855786 -1.72323971707171
 8  1.67392599099910 -0.60277021542154 -0.30250563816382
 7 -7.07301494489449  2.64007721762176  0.33383430753075
 6 -6.05210535433543  3.30606437383738  0.83320919701970
 6 -6.37325223362336  4.72002886648665  0.93924218291829
 6 -7.70410519581958  4.79506131133113  0.49559568596860
 6 -8.16289581708171  3.49828676747675  0.10026802540254
 6 -5.40561259515952  5.86347582128213  1.09524968016802
 6 -8.54793480148015  6.01132140174017  0.28612922542254
 6 -8.28644705470547  7.26483563326333  0.71476553585359
 7 -9.04509355045504  0.69398639303930 -0.58366494039404
 6 -9.86849433573357  1.78146147044704 -0.66904971847185
 6 -11.25185913861386  1.43257270177018 -1.12222708240824
 6 -11.23475296249625  0.06109365516552 -1.23627365566557
 6 -9.90262786638664 -0.38437863126313 -0.93480568186819
 6 -12.27608854655466  2.40998624002400 -1.39742919561956
 6 -12.27188098099810 -0.80950707450745 -1.67876720732073
 6 -12.02220412931293 -1.20131032333233 -3.15140579177918
 7 -7.22781574397440 -1.39022385808581 -0.22199487458746
 6 -8.27114144044405 -2.22406095159516 -0.55678725862586
 6 -7.89983202300230 -3.61671222262226 -0.57351765156516
 6 -6.57872566306631 -3.54205718781878 -0.17896997869787
 6 -6.20792452415242 -2.17079503530353  0.05258709410941
 6 -8.60122246174618 -4.81610770917092 -0.95195857895790
 6 -5.32221768466847 -4.37550111351135  0.31240621472147
 8 -5.17474846714671 -5.62679953695370  0.39461541014101
 6 -4.25823032563256 -3.31527897529753  0.56993531513151
 6 -3.52764694149415 -3.56666460916092  1.95620158865887
 8 -3.69878266166617 -3.02282964086409  2.99327268546855
 8 -2.76545189798980 -4.63543216171617  1.76159519701970
 6 -2.17004596159616 -5.12618782468247  2.95934333473347
 6  2.78698501890189 -0.61998028692869 -1.32199571677168
 6  4.14253513871387 -0.43551881978198 -0.65561812461246
 6  5.08284377567757  0.36873340134013 -1.06979985698570
 6  5.01207493309331  1.11073874917492 -2.34716885188519
 6  6.40038631733173  0.47172778877888 -0.32965348974898
 6  7.61771322392239 -0.04824337233723 -1.13688401710171
 6  8.86196390799080 -0.02686450255025 -0.21973807620762
 6  10.15905136573657 -0.43850551375138 -0.99833555355536
 6  10.19219249584959 -1.85971385128513 -1.41007797379738
 6  11.41736640044004 -0.13227811891189 -0.02924088658866
 6  12.80776851235124 -0.47764779827983 -0.68894639973997
 6  13.99283055485548 -0.01419713401340  0.22234864646465
 6  15.25008099909991 -0.14944402800280 -0.52182783528353
 6  15.75996226722672 -1.51854024232423 -0.93108493479348
 6  16.44537152985298  0.37113363066307  0.47886262096210
 6  17.93099068676868  0.46510023962396 -0.21883841084108
 6  18.91337175577558  1.06918499699970  0.85419867656766
 6  20.18509131353135  1.20970040254025  0.35671237723772
 6  20.29686253205320  2.01148845394539 -0.96420111601160
 6  21.14836990399040  1.76995869576958  1.44580852085209
 1 -3.94821518501850  3.49231248264826  1.39005510131013
 1 -10.15511763506351  3.86768904340434 -0.50402492869287
 1 -10.29072349644965 -2.45465100020002 -1.07445526492649
 1 -2.63271055825583 -0.82847305000500  2.41580807150715
 1 -2.27408087438744  1.72193425452545  1.40708435743574
 1 -2.13506659305931  0.71936104250425  3.56196653405341
 1 -2.86203331243124  2.25081430423042  3.61030905310531
 1 -3.85399820032003  0.60253540784078  3.84098578377838
 1 -2.07656277527753 -1.46773744454445 -0.41814982208221
 1 -2.03709007800780  0.39817743754375 -0.62051878647865
 1 -0.01942737143714  0.64301388868887  0.62964682768277
 1 -0.05802422272227 -1.01108187478748  1.51185464376438
 1 -5.61523570127013  6.59595710771077  0.07291712301230
 1 -5.57797926922692  6.49088196959696  2.08243025552555
 1 -4.46358120272027  5.51098536653665  1.06601733433343
 1 -9.40089034883488  5.58223160516052 -0.24708606130613
 1 -8.94670373407341  8.16345606660666  0.50414018971897
 1 -7.47347527962796  7.46486332273227  1.40622958325833
 1 -11.87094756775678  3.13764291139114 -2.12384821632163
 1 -13.10636793449345  2.07830657305731 -1.94797052525252
 1 -12.71852288498850  3.06035336943694 -0.54967540704070
 1 -12.28989095399540 -1.59527044984499 -1.01971547244724
 1 -13.22174447354736 -0.25291800230023 -1.76198195259526
 1 -12.61850704990499 -2.18455211731173 -3.42111306940694
 1 -12.28220862656265 -0.15028349964996 -3.65648462686269
 1 -10.83585842524252 -1.51836286348635 -3.32961123932393
 1 -8.87326194479448 -5.02654915571557 -2.17488355135514
 1 -7.96828121332133 -5.64295024832483 -0.79311926702670
 1 -9.54121830083008 -4.99525797419742 -0.39890215891589
 1 -3.41153867236724 -3.39470607620762 -0.21188892699270
 1 -1.49752313991399 -4.37017923132313  3.43007472507251
 1 -2.92662910021002 -5.17127665256526  3.62167320502050
 1 -1.69339986048605 -5.90742152695270  2.73650701180118
 1  2.64304235903590 -1.56868349114911 -1.97718916761676
 1  2.62782922422242  0.29689777457746 -2.08716977447745
 1  4.32566305300530 -0.87382579637964  0.25138653885389
 1  4.12347765926593  1.04935047774777 -2.66691717741774
 1  5.34392132433243  2.20168059195920 -2.23295073347335
 1  5.52875244374437  0.59377056795680 -3.17520377727773
 1  6.92732091599160  1.46789677027703  0.02859247314732
 1  6.23162103420342 -0.10733807050705  0.69462565806581
 1  7.45068719151915 -0.91685235823582 -1.45670042724272
 1  7.57609016751675  0.39649875287529 -2.07178800170017
 1  9.07482352665266  1.02758225572557  0.14178660676068
 1  8.61748486928693 -0.71316966966697  0.64316043944394
 1  10.33932856465647  0.37715386318632 -1.93104826282628
 1  9.39410902000200 -2.13980226372637 -1.95769415131513
 1  11.02245138573858 -2.04653805310531 -2.00153551165117
 1  10.06264846194619 -2.46798091279128 -0.42425981968197
 1  11.39089073067307  0.98707514091409  0.19262703350335
 1  11.27749534503450 -0.82488378597860  0.84369068916892
 1  12.97385533803380 -1.56476389568957 -0.78852112361236
 1  12.74476030593059  0.13921885788579 -1.79026336003600
 1  14.04018543884388  1.05820118341834  0.65412024072407
 1  14.15712402300230 -0.60924730363036  1.05863823782378
 1  15.25561596299630  0.70546394339434 -1.28639990879088
 1  16.04688848564857 -2.07276661786179  0.08671053555356
 1  14.76708835323532 -2.24917943794379 -1.30957233073307
 1  16.61660994059406 -1.43406430343034 -1.55607212051205
 1  16.15952922642264  1.34702303600360  0.71906782308231
 1  16.66403048084808 -0.47083336813681  1.04449294399440
 1  18.39335607330733 -0.45327184118412 -0.40667086268627
 1  17.79869717931793  1.14644353845385 -1.04929067266727
 1  18.39984904180418  2.02604387238724  1.27706965376538
 1  18.84918088058806  0.14479931943194  1.77692093759376
 1  20.73200303260326  0.27972897049705  0.14248014021402
 1  20.03196001450145  3.07643842034203 -0.92255444014401
 1  21.31530533133313  1.92947408950895 -1.31272925412541
 1  19.83692208980898  1.46199648984899 -1.76388477287729
 1  21.36510036353635  1.16985262616262  2.30817448624862
 1  22.17594548734873  1.77437790849085  0.93793044664466
 1  20.76478655715572  2.76757287448745  1.80052718941894

