%nproc=4
%Mem=2GB
# td=(NStates=1) CAM-B3LYP/6-31G(d,p) 

TD

0 1
12 -7.13208378137814  0.56393514161416  0.08998668606861
 6 -4.83842846084608 -1.91821299969997  0.53801033373337
 6 -4.82976290519052  2.90594904220422  0.99744610951095
 6 -9.50163489898990  3.13162865836584 -0.35539839953995
 6 -9.59400971467147 -1.72243775477548 -0.83372980208021
 7 -5.16426985158516  0.41225104320432  0.72929334763476
 6 -4.39098880498050 -0.72111193319332  0.84588261146115
 6 -2.87791679707971 -0.32811223692369  1.29078943314331
 6 -3.09870330873087  1.16474914321432  1.66243697439744
 6 -4.45078207310731  1.54224497329733  1.03393042294229
 6 -3.00911599369937  1.45129741784178  3.17199860876088
 6 -1.88738219921992 -0.56575183658366  0.08524248254825
 6 -0.39655707830783 -0.37179152635264  0.55025915521552
 6  0.58155929312931 -0.70432394529453 -0.52499788028803
 8  0.24471571167117 -1.06233164076408 -1.52799913161316
 8  1.85277708820882 -0.53019041544154 -0.06721351025103
 7 -7.13088353625363  2.60036562636264  0.32585128062806
 6 -6.09161844084409  3.40280125592559  0.61893542714271
 6 -6.51591884498450  4.78604289368937  0.64027471467147
 6 -7.76427913491349  4.87931856335634  0.28091648294829
 6 -8.24988926052605  3.50133932923292 -0.03410086378638
 6 -5.50013797049705  5.90265273117312  0.99666442694269
 6 -8.62170996859686  6.07003803750375  0.17753473887389
 6 -8.55701959325933  7.18131425002500  0.92615886568657
 7 -9.11811408400840  0.63384624572457 -0.53171720542054
 6 -9.89637589728973  1.74275422852285 -0.66635295939594
 6 -11.25720481708171  1.41163950305031 -0.96965868536854
 6 -11.33122552645264  0.04100946504650 -1.10189890389039
 6 -9.92635831653165 -0.37618959325933 -0.78610362646265
 6 -12.34296312001200  2.34894546554655 -1.51646842164216
 6 -12.38245279157916 -0.72665007510751 -1.56868767726773
 6 -12.33379086748675 -1.00496290749075 -3.16593171177118
 7 -7.21048051635164 -1.33379299289929 -0.21058573557356
 6 -8.24753499329933 -2.21661683378338 -0.55221017621762
 6 -7.85028117371737 -3.60470873837384 -0.51887916521652
 6 -6.50462434653465 -3.51819615661566 -0.09684141604160
 6 -6.13723632003200 -2.12115039633963  0.05951875607561
 6 -8.66612407980798 -4.87080992339234 -0.86032451085108
 6 -5.24123859415942 -4.30681456495650  0.29581245384538
 8 -5.19338817671767 -5.55544002740274  0.34211124182418
 6 -4.13236681608161 -3.35750153995399  0.53320318561856
 6 -3.41988261916192 -3.69264448574858  1.84262463536354
 8 -3.63236483708371 -3.14038077427743  2.92924560566057
 8 -2.60110130383038 -4.68170289268927  1.65545412631263
 6 -1.99439002690269 -5.33283751285128  2.87078201370137
 6  2.93136564826483 -0.78338613321332 -1.10818201860186
 6  4.19872196119612 -0.41762993929393 -0.52792294129413
 6  5.14704818921892  0.32131839723972 -1.01705147784778
 6  4.89780820382038  1.14373702300230 -2.22130629592959
 6  6.46592092489249  0.39948179837984 -0.21093757895790
 6  7.56776431433143 -0.21341168806881 -1.02688963946395
 6  8.92403427602760 -0.20346547694769 -0.16128794159416
 6  10.21249187368737 -0.55813288498850 -0.99014998549855
 6  10.14621132133213 -1.93515445154515 -1.57439090409041
 6  11.47013989088909 -0.34912869366937 -0.20336946834683
 6  12.78833374107411 -0.57562161326133 -0.78013803670367
 6  13.88486795519552 -0.22801400420042  0.16835390289029
 6  15.36510263516352 -0.25217894699470 -0.54700294009401
 6  15.72245391429143 -1.58745637943794 -0.94312393009301
 6  16.45248935483549  0.28035239523952  0.45774028122812
 6  17.78955354475448  0.49751114951495 -0.08403421802180
 6  18.80296066556656  1.32323054005401  0.76770720372037
 6  20.21618028722872  1.42387272077208  0.37108187138714
 6  20.34675602940294  2.21530982818282 -0.94151514421442
 6  21.18244917571757  1.92644558085809  1.49444480788079
 1 -4.11503298779878  3.50300582198220  1.25688027492749
 1 -10.26972736543654  4.06710754575458 -0.75555094659466
 1 -10.45689897929793 -2.40971031183118 -0.90557720992099
 1 -2.61466792369237 -0.65701401530153  2.12975366656666
 1 -2.41945555075508  1.81886546914691  1.12562321272127
 1 -1.96880133763376  1.41708216111611  3.59049276277628
 1 -3.67390245024503  2.47327138463846  3.39957212261226
 1 -3.50859430213021  0.44930961496150  3.78267067986799
 1 -2.12474495939594 -1.59856981738174 -0.40419432863286
 1 -1.89574124662466  0.08054530493049 -0.65997603720372
 1 -0.32545606300630  0.74395900980098  0.81558195729573
 1 -0.15122292429243 -0.99198371357136  1.53915787098710
 1 -5.71921069646965  6.88546719081908  0.55857156635664
 1 -5.62347933733373  6.20971433453345  2.00934723182318
 1 -4.46961091709171  5.65890705710571  0.91437461306131
 1 -9.53266531903190  5.98463461156116 -0.49763999219922
 1 -9.21177239313931  8.12832357125713  0.81913153495350
 1 -7.81853131893189  7.48392479197920  1.59652803830383
 1 -11.83196730183018  3.19727005300530 -2.14684768946895
 1 -13.18599826902690  1.81766565776578 -2.07980917241724
 1 -12.81766349744974  2.78471712641264 -0.61452269626963
 1 -12.37951272967297 -1.82161160626063 -1.00763571847185
 1 -13.40678939783978 -0.34913164996500 -1.31036656415642
 1 -12.94786113871387 -1.66246093229323 -3.64020390489049
 1 -12.38361192539254 -0.10626516411641 -3.71544504020402
 1 -11.34064034333433 -1.40693556065607 -3.52399101910191
 1 -9.14257386038604 -4.79269001190119 -2.05447871197120
 1 -8.12407177197720 -5.76379638383838 -0.76264587758776
 1 -9.48038792369237 -4.96128114941494 -0.25209703230323
 1 -3.55983667956796 -3.34158740944094 -0.56389166066607
 1 -1.35532369886989 -4.48482492219222  3.38542145744574
 1 -2.88929853845385 -5.56679829742974  3.39404224312431
 1 -1.28063617511751 -6.13082235543554  2.64043799669967
 1  2.79113841794179 -1.76499833573357 -1.27305127012701
 1  2.43277075467547  0.00876515611561 -1.82143529572957
 1  4.43073397899790 -0.82662487768777  0.40892410841084
 1  3.92459142264226  1.04307301770177 -2.74808317801780
 1  5.06778218991899  2.19055931483148 -1.99268573677368
 1  5.77353466106611  1.01520262776278 -2.97516624762476
 1  6.67966002890289  1.54010801080108 -0.23366072327233
 1  6.34035815521552 -0.13553159055906  0.70735045174517
 1  7.20545793049305 -1.18552778797880 -1.30977230083008
 1  7.75589802570257  0.42040524862486 -1.72817574117412
 1  9.16911896349635  0.77403528852885  0.31807944014401
 1  8.92172066076608 -0.95304081028103  0.52954081778178
 1  10.30786833823382  0.22646518421842 -1.82332722222222
 1  9.45900088558856 -2.31039901640164 -2.36506243104311
 1  11.10840339603960 -2.30906769066907 -2.05492973687369
 1  10.36226911291129 -2.70229217121712 -0.75213465316532
 1  11.32339001990199  0.61306353655366  0.19297078457846
 1  11.24578763216322 -0.93348931023102  0.62915353695370
 1  12.85608892779278 -1.57642580378038 -1.29111677927793
 1  12.93489724222422  0.18041873287329 -1.73910727202720
 1  13.66775821252125  0.74949750575058  0.51413875687569
 1  14.00828358145815 -0.88785839053905  0.94906142264226
 1  15.38513180168017  0.46614609960996 -1.29129348734873
 1  15.78641608450845 -2.39160945304530 -0.21580303420342
 1  14.97532058275828 -2.09121149674968 -1.60757817291729
 1  16.76359598899890 -1.64034955985599 -1.43670514001400
 1  15.93561876257626  1.11476931063106  0.96922346664666
 1  16.41023547074708 -0.40752992809281  1.28656141734173
 1  18.33345428412841 -0.37278382578258 -0.38092143254325
 1  17.82818988348835  0.78203552245225 -1.10370394619462
 1  18.44392518511851  2.40550470817082  0.98949695499550
 1  18.83987114741474  0.99924410541054  2.03540354065407
 1  20.54994990769077  0.31760790899090 -0.00271320732073
 1  19.86861096769677  3.17908147004700 -0.75838943234323
 1  21.29337358945895  2.43299995279528 -1.39932129542954
 1  19.79322322672267  1.58713052385239 -1.66538350735074
 1  21.21670764596460  1.51385949504950  2.41218083528353
 1  22.21271297759776  1.94862609230923  1.12502746904690
 1  21.03180291019102  3.12566264956496  1.85714615511551

