%nproc=4
%Mem=2GB
# td=(NStates=1) CAM-B3LYP/6-31G(d,p) 

TD

0 1
12 -7.12538311131113  0.56828557665767  0.18450613801380
 6 -4.88112273027303 -1.94613579197920  0.59181571427143
 6 -4.76708663756376  2.86224467176718  1.19907627252725
 6 -9.39717445294529  3.05650114561456 -0.31892475217522
 6 -9.54814512821282 -1.74201971297130 -1.02433886298630
 7 -5.12293571817182  0.43243306140614  0.74025444374437
 6 -4.27061676777678 -0.68330815281528  0.77591561476148
 6 -2.95377438283828 -0.29202862856286  1.19042939713971
 6 -2.99410284868487  0.97928059635964  1.75428615931593
 6 -4.35925292019202  1.48644939373937  1.20189721962196
 6 -2.82290737283728  1.17697998609861  3.21681309020902
 6 -2.02379584058406 -0.56387164856486  0.01701565986599
 6 -0.49567699029903 -0.35299964716472  0.39163329262926
 6  0.53115425262526 -0.66042955585559 -0.66744212471247
 8  0.25946718681868 -1.14766017361736 -1.78164449614961
 8  1.79304111461146 -0.52481987838784 -0.22788957785779
 7 -7.03724417231723  2.65110069986999  0.30228892439244
 6 -6.02096137513751  3.38606958275828  0.76652018561856
 6 -6.33612086518652  4.71131542094209  0.77391807900790
 6 -7.76947965496550  4.80092072357236  0.40416880818082
 6 -8.09168343994400  3.44662385768577  0.07491003730373
 6 -5.44957291399140  5.90081254715472  0.98225298579858
 6 -8.54830262786279  5.98709974367437  0.13119010441044
 6 -8.46312020332033  7.09204532313231  0.88537478727873
 7 -9.19653192579258  0.59153201430143 -0.45149918361836
 6 -9.89888614831483  1.75414536763676 -0.55724204830483
 6 -11.26206530313031  1.43666200530053 -1.10130184968497
 6 -11.26653905780578  0.09414477857786 -1.25059377337734
 6 -9.99756543724372 -0.39850182448245 -0.90970598669867
 6 -12.35587441114111  2.49607017801780 -1.49065584038404
 6 -12.36287083338334 -0.80097750785079 -1.77823863236324
 6 -12.43431091949195 -1.07527993919392 -3.32975809440944
 7 -7.29865933423342 -1.35343495709571 -0.00932560956096
 6 -8.31744198399840 -2.23541871397140 -0.50142509770977
 6 -7.87744388998900 -3.61381964946495 -0.56836411371137
 6 -6.61085496959696 -3.46511084808481 -0.01917364926493
 6 -6.20430302670267 -2.24194247554755  0.10934373857386
 6 -8.59431689908991 -4.84476731913191 -1.00714919331933
 6 -5.39230370067007 -4.38515239873987  0.28512138473847
 8 -5.19470830873087 -5.58983346674667  0.32128915961596
 6 -4.18137171657166 -3.34235002480248  0.60263012831283
 6 -3.61271190209021 -3.65802102340234  1.99651002390239
 8 -3.79480108070807 -3.12023876007601  3.01229391049105
 8 -2.75645683938394 -4.65846056845685  1.90130871177118
 6 -2.21535212311231 -5.13777800690069  3.20471540704070
 6  2.77697020872087 -0.78596639123912 -1.20623182358236
 6  4.06792888188819 -0.45898407470747 -0.66465661466147
 6  5.10034351875187  0.35652191759176 -1.11984175687569
 6  4.99467789078908  1.12271492079208 -2.37555172047205
 6  6.35662999579958  0.45800765096510 -0.24460094529453
 6  7.63353089098910 -0.11897224412441 -1.07921487198720
 6  8.96333820642064  0.09617448704870 -0.29140095289529
 6  10.22701332583258 -0.50716778847885 -1.04569554005401
 6  10.17170387058706 -1.95870680678068 -1.44136760176018
 6  11.49814269116912 -0.10696447724772 -0.20255938733873
 6  12.81310621832183 -0.38540259135914 -0.84505452835284
 6  14.06879634803480 -0.01879308210821  0.02228929642964
 6  15.42667879277928 -0.15231896099610 -0.59913815361536
 6  15.51782345124512 -1.68147578137814 -0.87450706840684
 6  16.44103820972097  0.34240860086009  0.37023153035304
 6  17.94305889528953  0.37781918031803  0.00310449584958
 6  18.87709807930793  1.24066228322832  0.86562699569957
 6  20.30381905110511  1.39784011751175  0.38533329652965
 6  20.50307166096610  2.13637193439344 -0.86205719841984
 6  21.24942587338734  1.87815075137514  1.60672603600360
 1 -3.92293377787779  3.66713223462346  1.30589517641764
 1 -10.07821821452145  3.92929376437644 -0.51379677117712
 1 -10.09999328872887 -2.43393273407341 -1.50158681088109
 1 -2.59688614551455 -1.05262357625763  1.91525221642164
 1 -2.39269287448745  1.73710729332933  1.23124377477748
 1 -1.91673613111311  0.75586603950395  3.35973968746875
 1 -2.90368542854285  2.26859091659166  3.48477064246425
 1 -3.43383682638264  0.70574525852585  3.77632004480448
 1 -2.35088757365737 -1.54147410781078 -0.17337124632463
 1 -2.37800947344734  0.11493874427443 -0.77121716131613
 1 -0.31583510091009  0.62902751665166  0.84599499859986
 1 -0.13753155515552 -1.00762527772777  1.16422037723772
 1 -5.90046882228223  6.88067671177118  0.59279498869887
 1 -5.44234122352235  6.26803016611661  2.02945924302430
 1 -4.34728868486849  5.59333049944995  0.79049222482248
 1 -9.30152220472047  5.92076822492249 -0.68739896809681
 1 -8.85022623852385  7.97524826372637  0.60017963976398
 1 -7.73942340814081  7.05529192869287  1.64366275177518
 1 -12.08085219031903  3.22316264226423 -2.21379438413841
 1 -13.27876754595459  1.87862175337534 -1.88929012051205
 1 -12.61412314341434  3.14365302000200 -0.65686693069307
 1 -12.35561033943394 -1.73326277137714 -1.20979593449345
 1 -13.25445416431643 -0.40272700950095 -1.42354788228823
 1 -13.34956130873087 -1.49434412061206 -3.58855874037404
 1 -12.45633919811981 -0.06767130473047 -3.82026552225222
 1 -11.63320960026003 -1.65624049114912 -3.76688530853085
 1 -8.84009361236124 -4.88042878577858 -2.20078334243424
 1 -7.79137850265026 -5.60074007820782 -0.70863047604760
 1 -9.54686457135714 -4.96738175947595 -0.25758758135814
 1 -3.29382007790779 -3.53890714141414 -0.10996626812681
 1 -1.85209337583758 -4.17588402810281  3.79052196749675
 1 -2.99379898849885 -5.67620923852385  3.69756259515952
 1 -1.45757386888689 -5.86159543274327  2.88240219311931
 1  2.66293559765977 -1.89327116301630 -1.52359632463246
 1  2.50323780138014 -0.26820254065407 -2.31945509770977
 1  4.41569247484748 -0.95516773197320  0.23582679867987
 1  3.96250521402140  1.48560727112711 -2.80301867156716
 1  5.33864927662766  2.12298255715572 -2.37976444464446
 1  5.52682999059906  0.66786789428943 -3.15492422342234
 1  6.54843690659066  1.50762476247625 -0.11168852605261
 1  6.32908702810281 -0.06800483788379  0.66733645034504
 1  7.46296368106811 -1.11950118531853 -1.10736205980598
 1  7.70920335623562  0.62801600970097 -1.84216714031403
 1  9.18560061166117  1.20017790279028  0.03330096229623
 1  8.80403889258926 -0.53204871107111  0.63093095679568
 1  10.33839139053905  0.00824336203620 -2.09107399689969
 1  9.31384637013701 -2.29947792429243 -1.82989891469147
 1  11.02774533023302 -2.32011879577958 -2.04859910381038
 1  10.26144903090309 -2.67942988498850 -0.58281772147215
 1  11.41716939783978  0.94984721492149  0.11166265376538
 1  11.44832788618862 -0.66793275457546  0.74096471807181
 1  12.86691000990099 -1.42743090429043 -1.05507317491749
 1  12.94305805830583  0.21959265026503 -1.73888725002500
 1  13.81820325702570  0.93504606060606  0.24841218421842
 1  14.06136888998900 -0.72875247994800  0.87712422892289
 1  15.59296258475847  0.26700618561856 -1.75687004500450
 1  15.21061850475047 -2.30504079617962  0.09170771687169
 1  14.91770482118212 -1.82967534313431 -1.83900131523152
 1  16.69636926632663 -1.81414693959396 -1.17406887638764
 1  16.12537773847385  1.42886071977198  0.70431697599760
 1  16.52370681788179 -0.36406558165817  1.30746350755076
 1  18.28465940464046 -0.58999554695470 -0.37226056645665
 1  18.04015107960796  0.98882620152015 -1.16870044584458
 1  18.59986077867787  2.32320647834783  0.66391439673967
 1  18.83902106240624  1.05311949294929  2.10126012631263
 1  20.56656156885689  0.26740288848885  0.28395545954595
 1  20.04780888748875  3.13648721062106 -0.75099869326933
 1  21.56172042414241  2.04195084788479 -0.95777714101410
 1  20.16859076347635  1.89236104690469 -1.97038400740074
 1  21.02913888908891  1.11777988708871  2.39267888508851
 1  22.29623132943294  1.92623385308531  1.57347231353135
 1  20.91033076297630  2.78323840714071  1.93441388188819

