%nproc=4
%Mem=3GB
# td=(NStates=1) iop(3/107=0140000000,3/108=0140000000) CAM-B3LYP/6-31G(d,p) 

TD

0 1
12 -7.16990168186819  0.64146252975298  0.10296666666667
 6 -4.87977679417942 -1.95481271187119  0.50321572397240
 6 -4.78413444404440  2.86042476037604  1.19191929712971
 6 -9.50341710621062  3.12302985598560 -0.47161963726373
 6 -9.54900099809981 -1.64253601930193 -0.86094289918992
 7 -5.12582961416142  0.38212430303030  0.76151397539754
 6 -4.32249449674968 -0.76683782698270  0.84172206690669
 6 -2.94513073367337 -0.36835523352335  1.29196486558656
 6 -3.03091631853185  1.07542624422442  1.69138541784178
 6 -4.45668590329033  1.50906555765577  1.25200959485949
 6 -2.94093027382738  1.25723854315432  3.17735304990499
 6 -1.92811854155416 -0.65944193339334  0.15040885118512
 6 -0.38485419461946 -0.53371661966197  0.61551493379338
 6  0.56061798499850 -0.70719734163416 -0.54289407950795
 8  0.29240945774577 -1.05949972767277 -1.65989338243824
 8  1.72127072547255 -0.41172111051105 -0.15945133273327
 7 -7.15798344174418  2.64036724662466  0.24904582868287
 6 -6.07021716551655  3.37204097149715  0.86130200630063
 6 -6.42989789818982  4.75510237383738  0.91061932063206
 6 -7.65470025532553  4.79700150535053  0.42291841824182
 6 -8.16641616911691  3.42899983878388  0.09480747934794
 6 -5.44948698259826  5.94305377907791  1.37144729992999
 6 -8.49939994799480  6.02000226982698  0.13887449995000
 6 -8.37317572757276  7.31137028672867  0.66994105340534
 7 -9.04424346544655  0.68458545294529 -0.60413698759876
 6 -9.85076256255626  1.84709803410341 -0.79999281278128
 6 -11.19814376707671  1.51002044654465 -1.22792765246525
 6 -11.17719720692069  0.13392093789379 -1.39809983828383
 6 -9.79605720932093 -0.31740193359336 -0.98489069036904
 6 -12.33340427812781  2.44272951435143 -1.58547800050005
 6 -12.29273306620662 -0.71820794459446 -1.84687401800180
 6 -12.19777168606861 -1.19699989228923 -3.44619527072707
 7 -7.23506646904690 -1.34022885858586 -0.22286496159616
 6 -8.20025435173517 -2.18780732623262 -0.52335391529153
 6 -7.84873691349135 -3.66060661206121 -0.48842914271427
 6 -6.50585837633763 -3.54330731283128 -0.05041712341234
 6 -6.20049378107811 -2.15616357215722  0.09358119351935
 6 -8.59765210471047 -4.81588768716872 -0.86222960606061
 6 -5.42244770767077 -4.45542910631063  0.26151112521252
 8 -5.32039303160316 -5.56997385438544  0.22171812041204
 6 -4.20970547314731 -3.41331877927793  0.54795311691169
 6 -3.55695987278728 -3.78877682038204  1.93266923542354
 8 -3.83294607800780 -3.26055341324132  2.93976733493349
 8 -2.77794314711471 -4.84473309180918  1.72000103760376
 6 -2.12061101810181 -5.27066227212721  3.01703910431043
 6  2.75667198759876 -0.48839712861286 -1.13046656385639
 6  4.16308719391939 -0.30620588848885 -0.43681624442444
 6  5.06929242054205  0.53881040904090 -0.93921679867987
 6  4.90608433403340  1.35303297859786 -2.07576171117112
 6  6.43187946664666  0.54949556555656 -0.17335786018602
 6  7.53952540514051 -0.15676422442244 -0.96327665636564
 6  8.93420113171317 -0.01968378447845 -0.08911501390139
 6  10.21588704930493 -0.52205386858686 -0.85545126512651
 6  10.15317859445945 -1.95778365826583 -1.38789575557556
 6  11.46334099789979 -0.19805469656966  0.06392843034303
 6  12.81686942244225 -0.46337637113711 -0.61952945804580
 6  14.08860013181318 -0.17797351165117  0.26692310391039
 6  15.38925491649165 -0.38614769836984 -0.53271892439244
 6  15.70199647064707 -1.81985037333733 -0.96180800710071
 6  16.43976096879688  0.24979149644965  0.35249998469847
 6  17.88213580128013  0.45747947754775 -0.21677820482048
 6  18.79599001760176  1.17304538303830  0.77063031973197
 6  20.23493629802980  1.38301773427343  0.18627533353335
 6  20.19425227102710  2.10455776087609 -1.15575027092709
 6  21.25082014901490  2.02410411031103  1.04050799079908
 1 -4.12694305780578  3.50824407580758  1.67163325912591
 1 -10.28646076937694  3.87192946744674 -0.45112963916392
 1 -10.39004342844284 -2.23034856995700 -1.21678949834983
 1 -2.73515080228023 -1.04387459015902  2.15130162086209
 1 -2.14844831113111  1.65724778587859  1.21583523252325
 1 -1.85260834723472  1.04155326172617  3.47423776117612
 1 -3.19867697679768  2.20821004380438  3.60999902210221
 1 -3.69829262976298  0.59752490679068  3.86286797199720
 1 -2.05768088708871 -1.69263993479348 -0.43418142524252
 1 -2.05610197919792  0.03889150895090 -0.84263099769977
 1 -0.20171560026003  0.48527811511151  1.10629449244924
 1 -0.21010943124312 -1.39234000060006  1.32660611891189
 1 -5.65289946764677  6.88232574457446  0.67723755505551
 1 -5.39187065836584  6.14716759815982  2.43060507300730
 1 -4.40880572517252  5.65024929292929  1.27606833943394
 1 -9.41958221802180  6.00770415241524 -0.42256360906091
 1 -9.04477354105411  8.13613333433343  0.20460023572357
 1 -7.66814474657466  7.74615145154515  1.46524548484848
 1 -12.32552302530253  3.11800094719472 -2.54534036553655
 1 -13.36644394209421  1.76652539493949 -1.75370109830983
 1 -12.41288232093209  3.17751508560856 -0.72494293379338
 1 -12.53026499139914 -1.57656857965797 -0.95678917981798
 1 -13.20051235033503 -0.13484619511951 -1.60997675207521
 1 -13.27847304650465 -1.57877153925393 -3.59332029012901
 1 -12.17300770647065 -0.41468994029403 -3.98567754615462
 1 -11.42227706710671 -2.06188721592159 -3.42040031823182
 1 -8.59985460406041 -4.66197269806981 -1.99028509150915
 1 -7.90113449864987 -5.64363031633163 -0.34376433153315
 1 -9.47098127712771 -4.77401584998500 -0.34284655335534
 1 -3.52661017951795 -3.58559516511651 -0.32769050715072
 1 -2.08812219981998 -4.34211642504250  3.86159787738774
 1 -2.90973741104110 -5.91394091899190  3.51528256595660
 1 -1.34496501700170 -6.07346813161316  2.82784614571457
 1  2.68038609340934 -1.60002662546255 -1.60048149684968
 1  2.67552399369937  0.21587967276728 -1.91915297279728
 1  4.36122660936094 -0.96575498929893  0.44348574877488
 1  3.91694700620062  0.83233877657766 -2.66687717341734
 1  4.91668860106011  2.43339376327633 -1.80959839823982
 1  5.82032160066007  1.25852704360436 -2.84161041794179
 1  6.58955713961396  1.57977795839584  0.07142675657566
 1  6.23256112821282  0.04555721902190  0.85998219371937
 1  7.35493761656166 -1.15248592159216 -1.12600735793579
 1  7.80930348884888  0.20229933293329 -2.05170599349935
 1  9.05066111041104  1.00701019851985  0.22367479557956
 1  8.95728884968497 -0.77441579427943  0.93946006940694
 1  10.24699933173317  0.12288843664366 -1.68942410041004
 1  9.45335494459446 -2.15585386888689 -2.06439482138214
 1  10.94041318191819 -2.04876827612761 -2.24091945004500
 1  10.32429462656266 -2.78107222192219 -0.57710510421042
 1  11.35412705430543  0.80196663006301  0.33163093389339
 1  11.50174777027703 -0.89888118571857  0.77603392349235
 1  12.77377533003300 -1.55904332363236 -0.88696096759676
 1  12.85504133403340  0.06184112011201 -1.41552588628863
 1  14.15196661696170  0.93756912021202  0.52161699039904
 1  13.97090540114012 -0.62826920582058  1.19267164116412
 1  15.12568296969697  0.23608700570057 -1.37225849464946
 1  15.52833663046305 -2.45383472467247 -0.17601573707371
 1  14.93600524492449 -1.83791831183118 -1.73994536803680
 1  16.54843312291229 -1.98458935593559 -1.48481499479948
 1  16.26201947544754  1.30995932963296  0.70313622992299
 1  16.52266634443444 -0.47455374017402  1.10909940464046
 1  18.29317605530553 -0.57238375237524 -0.44383457905791
 1  17.63759106870687  1.03961285538554 -1.12004774837484
 1  18.07433649054905  2.16303757175718  0.76684863166317
 1  18.57757371987199  0.81021586108611  1.62294554005401
 1  20.70218005030503  0.45399639723972 -0.01927603540354
 1  19.71853867236724  3.08283906040604 -1.13728591329133
 1  21.19778357915792  2.49684082618262 -1.55736371757176
 1  19.74270266786679  1.45818610881088 -1.93857224162416
 1  21.15168902240224  1.57862350325032  2.15623929272927
 1  22.41253914671467  1.90698116881688  0.70668732233223
 1  21.12368244674467  3.12398851605160  1.39278641534153

