%nproc=4
%Mem=2GB
# td=(NStates=1) CAM-B3LYP/6-31G(d,p) 

TD

0 1
12 -7.15814638763876  0.59088783688369  0.07263495089509
 6 -4.82090670867087 -1.92741391979198  0.41979851255126
 6 -4.75447537643764  2.82739118641864  0.95190155505551
 6 -9.38451318681868  3.11874737023702 -0.39067192689269
 6 -9.51908222192219 -1.72509802080208 -0.92554898399840
 7 -5.21657508210821  0.46779659775978  0.80098051635164
 6 -4.39286899299930 -0.67833765576558  0.73817184038404
 6 -2.88362736813681 -0.36921634733473  1.10778113231323
 6 -3.02046548494849  1.09581224952495  1.66959769046905
 6 -4.32580957585759  1.55760650945095  1.17339436933693
 6 -2.96098118021802  1.15773806190619  3.14769617851785
 6 -1.87931139213921 -0.77116237763776  0.09085304360436
 6 -0.42900032263226 -0.65330967816782  0.59042317161716
 6  0.53065420262026 -0.79502301520152 -0.53859924042404
 8  0.32119335943594 -1.27910331793179 -1.62847917961796
 8  1.78110992149215 -0.53279067546755 -0.08317510641064
 7 -7.11058150605061  2.63164875467547  0.27347604310431
 6 -6.03362264126413  3.23777475327533  0.75507904150415
 6 -6.38044529762976  4.74399868926893  0.85965665286529
 6 -7.63557626462646  4.76650728222822  0.33580197149715
 6 -8.10315458705871  3.47875707100710  0.04631717801780
 6 -5.40154811151115  5.85183764966497  1.21478623912391
 6 -8.42233003060306  6.04528556225623  0.16899388478848
 6 -8.31987587888789  7.26728284688469  0.79995624542454
 7 -9.12237451005100  0.70334319541954 -0.54073810751075
 6 -9.84627088678868  1.81215116821682 -0.62290861496150
 6 -11.18218731533153  1.48887722682268 -1.14758647814782
 6 -11.24573697759776  0.16753211731173 -1.29364807880788
 6 -9.94101978267827 -0.37087906220622 -0.90412542864286
 6 -12.30236906060606  2.51567213821382 -1.33775054985499
 6 -12.39216376267627 -0.72590000010001 -1.80267107560756
 6 -12.40912840124012 -0.90098250945094 -3.31138625722572
 7 -7.24332380068007 -1.36863647724772 -0.20782545954595
 6 -8.30487072687269 -2.22206737883788 -0.59753470867087
 6 -7.79211535713571 -3.55191345884588 -0.44424170147015
 6 -6.50682456655666 -3.52991732873287 -0.02756448834884
 6 -6.12962555895590 -2.17755603690369  0.03475627982798
 6 -8.69837730513051 -4.77986082848285 -0.93230170857086
 6 -5.33615808610861 -4.29654353785379  0.26662953555356
 8 -5.18646748464846 -5.52185666906691  0.09293632433243
 6 -4.19249282868287 -3.37467325712571  0.45627549284928
 6 -3.61342197309731 -3.63485870717072  1.87774814771477
 8 -3.91433303390339 -3.15586232243224  2.94004668576858
 8 -2.89616080978098 -4.78861358375838  1.79329791069107
 6 -2.50507109500950 -5.27854208330833  3.09755469096910
 6  2.76007851955195 -0.79035683028303 -1.07343854425443
 6  4.16267835683568 -0.50750892719272 -0.51785193419342
 6  5.15434891929193  0.26783304870487 -0.96502627532753
 6  5.21502992599260  1.09438208750875 -2.24171833713371
 6  6.39449378217822  0.38188003820382 -0.12276876207621
 6  7.64233177107711 -0.27666801370137 -0.85431238173817
 6  8.85523739633963 -0.14710984138414 -0.03601541434143
 6  10.22584320882088 -0.69158623032303 -0.71543251375138
 6  10.17563426362636 -2.04919585568557 -1.15035850085009
 6  11.40294317121712 -0.25828960976098  0.11502237083708
 6  12.75979088678868 -0.31633568466847 -0.69330935383538
 6  14.03618308670867 -0.00152135493549  0.28238530603060
 6  15.33955007990799 -0.12141587068707 -0.44487272707271
 6  15.73119478837884 -1.54593222702270 -0.80815043274327
 6  16.47172127802780  0.55533989398940  0.38527303450345
 6  17.79400398979898  0.68099949834984 -0.20806662126213
 6  18.85026539603960  1.46334455145515  0.68169860286029
 6  20.25514418361836  1.41518185168517  0.06236099929993
 6  20.20317167096710  2.17488578577858 -1.35387638033803
 6  21.22468339913992  2.00035297159716  1.08710407380738
 1 -3.89049053355336  3.37522304370437  1.15625021192119
 1 -10.10549094179418  3.92098293329333 -0.64667005850585
 1 -10.20870415981598 -2.41580092089209 -1.36920357255726
 1 -2.78581503840384 -1.07071538543854  1.95989668086809
 1 -2.27103070827083  1.75583916651665  1.18304895529553
 1 -1.99280373787379  0.56575702860286  3.20414412791279
 1 -2.72318737873787  2.22886694419442  3.50023218861886
 1 -3.91230467316732  0.63807849184918  3.64899731253125
 1 -1.96733921882188 -1.74071403180318 -0.35572948214821
 1 -1.91702337483748 -0.12526527612761 -0.72282232183218
 1 -0.17656117351735  0.35235984988499  1.00003040214021
 1 -0.23692149414941 -1.25283979917992  1.42604655985599
 1 -5.75828460386039  6.70025866996700  0.50067577677768
 1 -5.29309629902990  6.34934829792979  2.15122141924192
 1 -4.44731868786879  5.53371453785379  0.91693486908691
 1 -9.05998805130513  5.80523667176718 -0.59561979017902
 1 -8.77821903780378  7.99567030593059  0.45403502530253
 1 -7.87366683248325  7.52344874437444  1.69297768326833
 1 -12.00610471557156  3.09939026502650 -2.00910391509151
 1 -13.37645731493149  1.99111300250025 -1.40002119361936
 1 -12.44412614371437  3.05379403410341 -0.39223046704670
 1 -12.17049182758276 -1.75329477457746 -1.31044599949995
 1 -13.28981770067007 -0.30458719551955 -1.22453798129813
 1 -13.24835118771877 -1.61627631383138 -3.67446733123312
 1 -12.36829039323933  0.12616807920792 -3.71311480718072
 1 -11.62868914821482 -1.56307117421742 -3.59094771477148
 1 -8.79299890289029 -4.68666940984098 -2.06301956605661
 1 -8.22185154995500 -5.77383738793879 -0.57054666766677
 1 -9.81156104100410 -4.79807482878288 -0.62442426502650
 1 -3.43800449634963 -3.42693594429443 -0.25778104960496
 1 -2.05774394089409 -4.44989142884288  3.71204411971197
 1 -3.45674528312831 -5.64917653525353  3.54357719661966
 1 -1.64629274077408 -5.86478575177518  2.86433038593859
 1  2.67601690579058 -1.86479831573157 -1.50886485148515
 1  2.43610108770877 -0.04578029842984 -1.91361451365136
 1  4.38659956555656 -1.02328454365437  0.40382359835984
 1  4.10857982148215  1.11648035843584 -2.72676104580458
 1  5.51697710941094  2.06422668156816 -2.18595506370637
 1  5.60841814941494  0.30267137463746 -2.92154088508851
 1  6.41520358325833  1.33530753075308 -0.06866422362236
 1  6.29031315071507  0.10136209880988  1.05093481018102
 1  7.04932231693169 -1.26304553975398 -1.05898722232223
 1  7.83375581148115  0.17690089818982 -1.84116704030403
 1  9.00684273587358  0.85382326732673  0.29574720692069
 1  8.88370685938594 -0.71396690289029  0.91670953465347
 1  10.49995754715471  0.06123866156616 -1.67692258175818
 1  9.30582556805681 -2.27857583408341 -1.72678860366037
 1  10.99512206790679 -2.11108789268927 -2.00356460036004
 1  10.51136402240224 -2.66860880288029 -0.37398683838384
 1  11.25365304620462  0.80476270647065  0.40283177067707
 1  11.18740179357936 -0.91318728002800  1.00402102370237
 1  12.83365668456846 -1.30010817201720 -1.05884355195520
 1  12.86713046554655  0.46488717971797 -1.63606696799680
 1  13.75948738543854  0.86952950895090  0.82665000800080
 1  13.95986873997400 -0.80568017271727  1.06939345584558
 1  15.46440972947295  0.36363584858486 -1.38757311531153
 1  15.55643308620862 -2.31172146424642 -0.06783823772377
 1  15.03641669236924 -1.81945432103210 -1.50562797789779
 1  16.76573620302030 -1.54994051895190 -1.19603107260726
 1  15.93226842754275  1.61014884858486  0.63739028332833
 1  16.39394384158416  0.03330415531553  1.40829359055906
 1  18.31788272697270 -0.28740528792879 -0.38392173257326
 1  17.69609667416742  0.92403972287229 -1.27661123692369
 1  18.64934572717272  2.44500865856586  0.82771077637764
 1  18.80243740404040  1.09749393039304  1.74463446374637
 1  20.55690060276028  0.35044119231923 -0.20421335733573
 1  19.81398550515051  3.18020158205821 -1.09526311971197
 1  21.22620687278728  2.20068672147215 -1.81460282358236
 1  19.69492339673968  1.68485029582958 -2.26644361336134
 1  21.38082405760576  1.41034914401440  1.97129674687469
 1  22.25934764106411  2.14481571127113  0.79397436373637
 1  20.89613934383438  3.01816189948995  1.22495293579358

