%nproc=4
%Mem=2GB
# td=(NStates=1) CAM-B3LYP/6-31G(d,p) 

TD

0 1
12 -7.08402897589759  0.61114986308631  0.12925061246125
 6 -4.74792941094109 -1.88763994239424  0.51299783248325
 6 -4.69924985388539  2.84001244854485  1.26231259615962
 6 -9.42141687718772  3.04027952345234 -0.36932979267927
 6 -9.56832714641464 -1.72296780778078 -1.01576800590059
 7 -4.98429185378538  0.55506532463246  0.67711813011301
 6 -4.23004271037104 -0.66163598559856  0.69780780398040
 6 -2.92006101150115 -0.40637006270627  1.21217157135714
 6 -2.89737317571757  1.02784545284528  1.77321805250525
 6 -4.25508250315031  1.54545529432943  1.16769379927993
 6 -2.75063014511451  1.36917920602060  3.23165457435744
 6 -1.84390785178518 -0.66062132353235  0.16996095439544
 6 -0.38116553915392 -0.45161950915091  0.46313044234423
 6  0.55018615581558 -0.74016752965297 -0.62919830033003
 8  0.07690893099310 -1.07571297889789 -1.74488081978198
 8  1.77891970247025 -0.70465786218622 -0.26193298219822
 7 -7.08396884478448  2.59604519431943  0.33453214871487
 6 -6.00369964896490  3.31841281708171  0.83999753335334
 6 -6.35915316841684  4.77351164056406  0.80873156035604
 6 -7.73615632263226  4.81963259475948  0.42825121642164
 6 -8.12959723132313  3.44173336863686  0.14608715501550
 6 -5.50194815151515  5.87133959985999  1.13127788828883
 6 -8.47995579317932  5.97013804750475  0.15814279967997
 6 -8.47431132243224  7.33198931753175  0.66404265406541
 7 -9.11833410601060  0.61130399149915 -0.50688472217222
 6 -9.84305056475647  1.81024097719772 -0.58748507260726
 6 -11.15591468806881  1.50216855595560 -1.07601932143214
 6 -11.20501290519052  0.05478084218422 -1.28762747674767
 6 -9.91328700940094 -0.41255322962296 -0.89887490359036
 6 -12.15926475017502  2.45958652965297 -1.45296207100710
 6 -12.42354690099010 -0.72517992809281 -1.79371017951795
 6 -12.33435092349235 -1.04286669786979 -3.28267338593859
 7 -7.19350881918192 -1.28480809440944 -0.25125980298030
 6 -8.27384762456246 -2.17915308740874 -0.56696165136514
 6 -7.90774692029203 -3.53923219071907 -0.38122539983998
 6 -6.52420630473047 -3.56722105910591 -0.09747147904790
 6 -6.11519411581158 -2.15630391169117  0.11072387658766
 6 -8.73904137153715 -4.71630447284728 -0.83509198759876
 6 -5.37007147744774 -4.35470935443544  0.19817268986899
 8 -5.16440527842784 -5.55397988138814  0.17532456315632
 6 -4.06418999839984 -3.25898168796880  0.57243710901090
 6 -3.58262889378938 -3.71131635293529  1.93941431433143
 8 -3.91787338793879 -3.09479621582158  2.95138781988199
 8 -2.66074726842684 -4.79590431283128  1.82789137003700
 6 -2.27554814271427 -5.23284751385139  3.08394332983298
 6  2.81698421012101 -0.94665245984598 -1.35149635003500
 6  4.12353444244424 -0.65891406770677 -0.64203435243524
 6  5.12136562096210  0.15210147554755 -1.08159793249325
 6  4.86391481448145  1.05560821012101 -2.31870603590359
 6  6.31291562436244  0.38680053025303 -0.28872535773577
 6  7.58737627552755 -0.18768911581158 -1.01314826532653
 6  8.93952582518252 -0.03916904730473 -0.21403321612161
 6  10.13279390389039 -0.55331240294029 -0.89901087158716
 6  10.05240194039404 -1.94380531663166 -1.47567103210321
 6  11.37624050095009 -0.38208198899890  0.07700856945695
 6  12.75616052375237 -0.43743779487949 -0.54985500840084
 6  13.96806627502750 -0.09140034283428  0.27196426392639
 6  15.24543066796680 -0.16731046014601 -0.47495573537354
 6  15.56311798069807 -1.53783141694169 -1.02637225492549
 6  16.37032113801380  0.45195955595560  0.45809031623162
 6  17.79768435783578  0.66651805020502 -0.11661747634763
 6  18.81112148164816  1.37530574757476  0.76066649964997
 6  20.30607927712771  1.39169950345034  0.33685844904490
 6  20.22203355715572  2.19388768596860 -1.00341133383338
 6  21.19211014181418  2.04316725302530  1.31023638703870
 1 -3.97573905840584  3.54111963336334  1.58727331423142
 1 -10.12910330303030  3.76015685068507 -0.59459485098510
 1 -10.37739102850285 -2.67781712251225 -1.12286893909391
 1 -2.86189264616462 -1.01627994189419  2.14613530473047
 1 -1.96986059125913  1.44497808040804  1.26817746814681
 1 -1.60546500400040  1.39175962886289  3.57353106660666
 1 -3.15823088308831  2.35749980748075  3.53028519391939
 1 -3.40912435513551  0.44098878287829  3.62932534533453
 1 -2.13741622652265 -1.66103606400640 -0.17372128132813
 1 -2.37213888638864 -0.10600334993499 -0.61664170377038
 1 -0.37856137353735  0.37181179507951  0.99903030213021
 1 -0.05570337233723 -1.06831134633463  1.34676863206321
 1 -5.73217199259926  6.73960260436044  0.38141385058506
 1 -5.62126911631163  6.26720008310831  2.10263656075608
 1 -4.38888284428443  5.72765393179318  0.96102927852785
 1 -9.39863191569157  5.90128627672767 -0.39870009820982
 1 -9.03979519541954  8.12843358225822  0.29174879667967
 1 -7.58736820262026  7.77056345584558  1.32636102160216
 1 -11.62921702680268  3.03216354235424 -2.33329633433343
 1 -13.11293096229623  2.16395028622862 -2.13844503600360
 1 -12.68066979807981  3.09935859055906 -0.58555979998000
 1 -12.60401517991799 -1.70252969806981 -1.17016197109711
 1 -13.37068578747875 -0.05267200400040 -1.54779030653065
 1 -12.83222957555756 -1.86121080728073 -3.60245012951295
 1 -12.53941750595060 -0.12082662026203 -3.85766926262626
 1 -11.31957823712371 -1.56730159725973 -3.54525314531453
 1 -9.21193079607961 -4.40481122402240 -1.77957122122212
 1 -7.98213757855785 -5.48334833903390 -0.83486309930993
 1 -9.51799168406841 -4.88708372967297 -0.19915173777378
 1 -3.41051174707471 -3.53241649234924 -0.16568183968397
 1 -1.70542870937094 -4.34702114181418  3.71993490879088
 1 -3.14710431903190 -5.62844446204620  3.63776661556156
 1 -1.45944405590559 -5.93678295149515  2.77346129902990
 1  2.63552285638564 -2.00505234113411 -1.62338630363036
 1  2.49858733633363 -0.35756147654766 -2.05796894909491
 1  4.36510741634163 -1.16721893709371  0.11394461046105
 1  3.96595555905591  0.71093980438044 -2.77578594829483
 1  4.80002541424142  2.13574383328333 -2.04047051525153
 1  5.84602190979098  0.87474858235824 -2.80311904290429
 1  6.56432849574957  1.46410041004100  0.02409505230523
 1  6.24164828422842  0.02150411301130  0.70958067476748
 1  7.43804118881888 -1.28656789198920 -1.18919024262426
 1  7.65971840774077  0.24930813891389 -1.98895181878188
 1  9.10729278087809  0.96273415841584  0.44546217841784
 1  8.79590807950795 -0.65781128732873  0.59582744644464
 1  10.49743729512951  0.21707424512451 -1.60904579407941
 1  9.32272725822582 -2.11126910341034 -2.34682060686069
 1  11.01444400010001 -2.17338412231223 -1.86561080498050
 1  9.63898678467847 -2.79067100910091 -0.68119755945595
 1  11.25615329622962  0.69419164936494  0.57837932543254
 1  11.36803985738574 -1.15070103140314  1.00314093569357
 1  12.81121444034403 -1.46440460166017 -1.01764943254325
 1  12.68813256575658  0.17105779677968 -1.55068843014301
 1  13.75416685338534  0.88396095209521  0.78418576157616
 1  13.88373112621262 -0.93890349504950  1.01826834333433
 1  15.17916120462046  0.36782626762676 -1.52726708470847
 1  15.68219566246625 -2.02062235433543 -0.02927438133813
 1  14.57608065876588 -2.04318669426943 -1.41252866796680
 1  16.33006263566357 -1.66365189008901 -1.78296976647665
 1  16.18146334703470  1.59433726742674  0.84039058335834
 1  16.61814626182618 -0.11271044614461  1.36359912111211
 1  18.29942088078808 -0.28453500090009 -0.36492983338334
 1  17.84637170167017  1.18646596549655 -0.98641221702170
 1  18.31623241584158  2.43913807150715  1.02953095839584
 1  18.89038619891989  0.84967914891489  1.77643764406441
 1  20.64165907860786  0.36355250345034 -0.07755069106911
 1  19.85772987958796  3.24926848874887 -1.12403599699970
 1  21.28652290439044  2.43156980978098 -1.49336069936994
 1  19.55229913431343  1.55774758555856 -1.67787475647565
 1  21.46551252645265  1.60307841694169  2.15253487068707
 1  22.14497620392039  2.34329555925593  0.94340930723072
 1  20.91659138903891  3.06785686898690  1.77015745624562

