%nproc=4
%Mem=3GB
# td=(NStates=1) iop(3/107=0140000000,3/108=0140000000) CAM-B3LYP/6-31G(d,p) 

TD

0 1
12 -7.15725041674167  0.66492487598760  0.00518688868887
 6 -4.89384820132013 -2.02501973257326  0.50861626402640
 6 -4.80429646024603  2.74177289518952  1.22072217741774
 6 -9.38118488298830  3.20722827582758 -0.45122759805981
 6 -9.56112221022102 -1.66369813551355 -0.86323312821282
 7 -5.06597362856286  0.40716680728073  0.73612143614361
 6 -4.35665791309131 -0.70369151235123  0.63283117781778
 6 -2.89818603920392 -0.43049144714471  1.23247891699170
 6 -3.04361758865887  1.00796949854985  1.62317859715972
 6 -4.40517075177518  1.40324497559756  1.21024541844184
 6 -2.92479866066607  1.12172499179918  3.15654096869687
 6 -1.86819254895490 -0.64629061826183  0.00258406870687
 6 -0.51274698389839 -0.41676492449245  0.54235761806181
 6  0.56863878707871 -0.76666328822882 -0.52658244834483
 8  0.32025224202420 -1.17784156185619 -1.67709510261026
 8  1.80218881728173 -0.44620455885589 -0.11752714031403
 7 -7.12380002340234  2.68207141704170  0.31317224132413
 6 -6.08280842464246  3.36935070247025  0.80051592769277
 6 -6.33508841724172  4.80513737733773  0.78159641834183
 6 -7.70294507980798  4.89806161136114  0.31713784018402
 6 -8.15519504700470  3.52451939073907  0.06474447304730
 6 -5.36442847674768  5.87471694539454  1.23226338153815
 6 -8.46650665866587  6.06370664026403  0.26363697619762
 6 -8.37332574257426  7.23789293899390  0.80741480078008
 7 -9.07767680878088  0.63962095649565 -0.54380095399540
 6 -9.71492897919792  1.94873819811981 -0.75643845734573
 6 -11.22176612931293  1.46589603410341 -1.10387524722472
 6 -11.36190567776778  0.16176372217222 -1.19516954525453
 6 -9.95935353895389 -0.30583077647765 -0.93110531183118
 6 -12.29832076977698  2.48729397079708 -1.39051850455046
 6 -12.47013080598060 -0.72336846064606 -1.76736606720672
 6 -12.36688859775978 -1.19135932823282 -3.21752240344034
 7 -7.20871383378338 -1.34763959965997 -0.26160883598360
 6 -8.23264759105911 -2.11251979747975 -0.56329790969097
 6 -7.93701574137414 -3.58248880028003 -0.45695599539954
 6 -6.55269305980598 -3.54683766586659 -0.10822290399040
 6 -6.22494622632263 -2.14405236103610  0.03443527892789
 6 -8.85749808930893 -4.75632173057306 -0.69501288438844
 6 -5.45370083298330 -4.34867843124313  0.33740871497150
 8 -5.31128212051205 -5.56003286028603  0.30457640624062
 6 -4.21106560916092 -3.35444289168917  0.50632895449545
 6 -3.67540171697170 -3.64112205490549  1.81633760226023
 8 -3.87258004140414 -3.09556691459146  2.85531889008901
 8 -2.79719507230723 -4.74996361486149  1.65938497599760
 6 -2.26339529652965 -5.38238344424442  2.94394179457946
 6  2.87704402480248 -0.71838012691269 -1.15507902510251
 6  4.16366725192519 -0.50975624352435 -0.49698226102610
 6  5.11670716201620  0.26271279927993 -0.95886876387639
 6  5.16621034663466  1.00087776307631 -2.15636977197720
 6  6.42522880158016  0.36808742474247 -0.16504702910291
 6  7.70339179177918 -0.16154470247025 -1.01373170187019
 6  8.91065877747775 -0.33617543364336 -0.13166926932693
 6  10.17942340294029 -0.60462212541254 -0.89364508450845
 6  10.30034331093109 -2.05619349924992 -1.25458242424242
 6  11.40960562436243 -0.32309720082008 -0.00467843034303
 6  12.78950668616862 -0.42579261276128 -0.77995550065007
 6  13.97898917071707 -0.06713242754275  0.17299371097110
 6  15.43744973597360 -0.07630671427143 -0.48757440994099
 6  15.67295356635664 -1.58610699899990 -0.84746657295730
 6  16.45147213991399  0.52601911921192  0.37934266896690
 6  17.84523211091109  0.65521925152515 -0.33683021002100
 6  18.80708112671267  1.37987606610661  0.67120037673767
 6  20.32884568896890  1.37846727922792  0.24393109910991
 6  20.38225107090709  2.20830813591359 -1.04282897879788
 6  21.21555662266227  1.98466016591659  1.43703764376438
 1 -4.08213857735774  3.35745899729973  1.71335743154315
 1 -10.07080920422042  3.87189946444645 -0.69345387158716
 1 -10.17725214931493 -2.49840537563756 -0.95326314571457
 1 -2.50992828002800 -1.10837103980398  2.07404389508951
 1 -2.20509397569757  1.64338639973997  1.22419606860686
 1 -1.94785787218722  0.74693379977998  3.46430676807681
 1 -3.22729983908391  2.23879310211021  3.40868889108911
 1 -3.85112791329133  0.73308846314631  3.64213589878988
 1 -2.02939805880588 -1.55832650345035 -0.43172117921792
 1 -2.12784915391539  0.06149376917692 -0.78285502010201
 1 -0.28106353505351  0.67764735203520  1.00472433543354
 1 -0.33871229152915 -1.23592435903590  1.28374183248325
 1 -5.67146132383238  6.75962347434743  0.63964379567957
 1 -5.53635510681068  6.08167104850485  2.36717873037304
 1 -4.34072891749175  5.49615388338834  1.05894662726273
 1 -9.42742300210021  6.08392177417742 -0.27780913361336
 1 -8.98077714141414  8.04989471047105  0.64727450315031
 1 -7.51861979407941  7.61734857125712  1.49372833313331
 1 -12.07631810481048  2.92950209730973 -2.57128295979598
 1 -13.18471576927693  1.97612635503550 -1.35076080428043
 1 -12.37346837953795  3.26932426652665 -0.59781022052205
 1 -12.51360332523252 -1.71157208000800 -1.45568906980698
 1 -13.34971727082708 -0.01627433793379 -1.51088684308431
 1 -13.23896909610961 -1.56568023012301 -3.61200215831583
 1 -12.30230063576358 -0.28426689798980 -3.88924790319032
 1 -11.69200403980398 -1.93097412461246 -3.44885316351635
 1 -9.52591721032103 -4.86756325712571 -1.71781784478448
 1 -8.25069945514552 -5.70658661196120 -0.76847680278028
 1 -9.46087026602660 -4.71765021342134  0.28310604190419
 1 -3.47178469696970 -3.48753535913591 -0.20928866696670
 1 -1.45908929652965 -4.79457167056706  3.43049476707671
 1 -2.91861829912991 -5.73270279517952  3.64718575627563
 1 -1.60200072057206 -6.14450523532353  2.49353271437144
 1  2.67530558535854 -1.81863848664866 -1.27832928162816
 1  2.70656709800980 -0.33588550375037 -2.07710876837684
 1  4.31644213091309 -1.13117153095310  0.41791319151915
 1  4.25448075957596  1.15571111381138 -2.77008749444945
 1  5.61036796899690  2.03908433233323 -1.95258269666967
 1  6.01272084058406  0.60181137203720 -2.85933219011901
 1  6.71348953285329  1.40772075267527  0.16261587548755
 1  6.14436230833083 -0.30415775247525  0.81514771027103
 1  7.47543966676668 -1.11920259325933 -1.40498525572557
 1  7.99061161966197  0.25682478547855 -1.89996081898190
 1  9.08836488078808  0.61808130563056  0.31484391249125
 1  8.75635875667567 -1.20527888058806  0.66971309470947
 1  10.16169080088009 -0.02934678687869 -1.89038419641964
 1  9.50200981008101 -2.29192747624762 -1.86346472837284
 1  11.21128026862686 -2.12837623692369 -1.44809016711671
 1  10.39518171527153 -2.63358747344734 -0.41247864156416
 1  11.18908054965496  0.79781621502150  0.38690646144614
 1  11.36328392389239 -0.99069036663666  0.79602592269227
 1  12.74273222572257 -1.52558997829783 -1.21848411991199
 1  12.56623245314531  0.30959589558956 -1.62074640834083
 1  13.72636405670567  1.00391575487549  0.52191702040204
 1  14.21785009560956 -0.82166854575458  0.98749112311231
 1  15.45858626002600  0.55063846084608 -1.36041731053105
 1  15.93472726952695 -2.19465880708071  0.19301116561656
 1  14.84363600800080 -2.14608912891289 -1.33316468996900
 1  16.76273455305531 -1.69699059605961 -1.37861437473747
 1  16.20899417291729  1.62323065676568  0.52443836013601
 1  16.43603768156816  0.02208592379238  1.33932242694269
 1  18.24878161586159 -0.45895240924092 -0.61473166876688
 1  17.75430273987399  1.17821671577158 -1.22046779037904
 1  18.45104416131613  2.38468973697370  0.70265221202120
 1  18.47347330983098  0.84048888838884  1.66108935443544
 1  20.49410924322432  0.42218321592159 -0.14522863066307
 1  20.08526534503450  3.18883966046605 -1.01107329202920
 1  21.51526532733273  2.32435357745775 -1.42630061126113
 1  20.07565596319632  1.82277256745675 -2.10768915331533
 1  20.95285913941394  1.37063270417042  2.39223289208921
 1  22.36982487528753  1.73724419511951  1.20742739633963
 1  21.01264134263426  2.92387850505051  1.59529666636664

