%nproc=4
%Mem=2GB
# td=(NStates=1) CAM-B3LYP/6-31G(d,p) 

TD

0 1
12 -7.26011658465847  0.58796754485449  0.12046973437344
 6 -4.90494511251125 -1.96018719711971  0.48694522722272
 6 -4.91820174907491  2.83261170847085  1.04670103500350
 6 -9.45321005650565  3.07588308380838 -0.45459831953195
 6 -9.48168848254826 -1.75449096009601 -0.95049147824782
 7 -5.12331575617562  0.44994481258126  0.61040145844584
 6 -4.39685939203920 -0.67680750275027  0.69642766596660
 6 -3.03527253265327 -0.31683110881088  1.20303065726573
 6 -3.14767820622062  1.09536220452045  1.56781751245125
 6 -4.42243923882388  1.54826557535754  1.08154518441844
 6 -2.89584466656666  1.32759504760476  3.10871228012801
 6 -1.89854331533153 -0.57123238463846  0.05371933023302
 6 -0.49124654725473 -0.41024537173717  0.50924505380538
 6  0.51719285648565 -0.56040955385539 -0.52200758125813
 8  0.37127836793679 -0.95962136973697 -1.66722305400540
 8  1.77147895839584 -0.43525092149215 -0.07135392429243
 7 -7.20260070797080  2.63638922872287  0.26272496799680
 6 -6.21543082208221  3.39901087688769  0.76598013161316
 6 -6.61520877397740  4.87756204560456  0.78203889108911
 6 -7.88771147814781  4.77254788628863  0.27557594889489
 6 -8.27645191679168  3.52563175847585 -0.07362481618162
 6 -5.58447640434043  5.88306077197720  1.21452621312131
 6 -8.76248404600460  5.91836286998700  0.18645563096310
 6 -8.57733162446245  7.02520863946395  1.03544979477948
 7 -9.21811408400840  0.68490135123512 -0.45950998469847
 6 -9.95659191889189  1.78407836093609 -0.70921724582458
 6 -11.24962405900590  1.44074241334133 -1.13140485998600
 6 -11.30319272317232  0.03133849794980 -1.25092380638064
 6 -10.00238591929193 -0.37675965026503 -0.91716673277328
 6 -12.36561538523852  2.34399497049705 -1.38722549734974
 6 -12.40065461176118 -0.76329373947395 -1.77650845934593
 6 -12.41858934733473 -0.96809922112211 -3.30818593719372
 7 -7.26972644094409 -1.37824743834383 -0.12010668766877
 6 -8.22759299909991 -2.24751992409241 -0.52358731393139
 6 -7.84586073167317 -3.63122138963896 -0.49092636993699
 6 -6.49939382348235 -3.58793313031303 -0.02221395329533
 6 -6.20972356875688 -2.20997927922792  0.07911071527153
 6 -8.54370183758376 -4.89020186258626 -0.94092257065707
 6 -5.28055252555256 -4.37611149464946  0.25802867546755
 8 -5.07726656455646 -5.56577106050605  0.32173920462046
 6 -4.19318289768977 -3.24032982278228  0.50763062836284
 6 -3.50397102800280 -3.61388660996100  1.94526489938994
 8 -3.81644324492449 -3.06351308750875  2.98306098719872
 8 -2.56520771447145 -4.53172789518952  1.79289787068707
 6 -2.00996158405841 -5.03979820892089  3.04321925742574
 6  2.86820933263326 -0.68621641624162 -1.10132133253325
 6  4.21775386438644 -0.45348352465246 -0.50781093009301
 6  5.19829331373137  0.21670793619362 -0.96057583028303
 6  5.22205062806281  1.26663931323132 -2.08152231753175
 6  6.42851718451845  0.28719056925693 -0.12608909410941
 6  7.64503204110411 -0.28044839173917 -0.85026197669767
 6  9.00276214881488 -0.18846397679768 -0.07754956775678
 6  10.29525014951495 -0.57613468516852 -0.78389936043604
 6  10.32376907710771 -2.01816275237524 -1.44631809680968
 6  11.51602447934794 -0.40472425322532 -0.00151928332833
 6  12.83173808150815 -0.52398644974497 -0.71237126002600
 6  14.00704017241724 -0.08260946374637  0.09577664516452
 6  15.46390251515152 -0.03568729782978 -0.52165040484048
 6  15.67496916581658 -1.65321295509551 -0.88101771947195
 6  16.49298340424042  0.52054641464146  0.33749825702570
 6  17.86117070647065  0.48528992739274 -0.26916273087309
 6  18.88007837733774  1.18738695569557  0.70067050005001
 6  20.34088275747575  1.27743807730773  0.19551431463146
 6  20.41610296409641  2.07233553075308 -1.05796678937894
 6  21.29484041484148  1.78334127042704  1.30414577797780
 1 -4.07135862036204  3.50264578597860  1.32017660456046
 1 -10.34268466116612  3.82186302130213 -0.56178156965697
 1 -10.13854714411441 -2.65464480528053 -1.15257190939094
 1 -2.78792524942494 -0.92009032293229  1.97366805800580
 1 -2.21163476867687  1.45622920552055  1.03293394379438
 1 -1.89474393189319  1.02825327822782  3.25777949144915
 1 -2.92510757075708  2.50660471797180  3.36095826122612
 1 -3.46932037473747  0.61254593859386  3.93954636743674
 1 -2.00442292719272 -1.57570753115312 -0.26336024522452
 1 -2.24334600710071  0.16784403480348 -0.79955999559956
 1 -0.09624314171417  0.65177979187919  0.95432583168317
 1 -0.46020382238224 -1.05952046724672  1.40604455965597
 1 -5.83225200060006  6.80214885898590  0.77857356655666
 1 -5.39294628402840  5.97983134623462  2.28660495759576
 1 -4.58959291529153  5.56697786418642  0.83720689628963
 1 -9.53459551205121  6.09819596769677 -0.58186841504150
 1 -9.22317353325333  7.87632837173717  1.11224084588459
 1 -7.86022548834884  6.93601000050005  1.77712609810981
 1 -12.16812091719172  3.00534086008601 -2.19239224392439
 1 -13.38470814001400  1.79737362856286 -1.49012020352035
 1 -12.41633336443644  3.00755941064106 -0.64459570357036
 1 -12.57369214761476 -1.78657810291029 -1.26215117001700
 1 -13.39919863876388 -0.31277801460146 -1.71833736123612
 1 -13.24532088468847 -1.64290897709771 -3.50293017751775
 1 -12.43536710091009  0.10650611301130 -3.83889738543854
 1 -11.57627390669067 -1.48517338443844 -3.57487610761076
 1 -8.57170677367737 -4.83159390229023 -2.12592585668567
 1 -7.84911427622762 -5.74757476167617 -0.77215682868287
 1 -9.61159104400440 -5.07131215251525 -0.67849967256726
 1 -3.40262095799580 -3.08856210691069 -0.42367763926393
 1 -1.50328849534953 -4.23786022572257  3.52083499879988
 1 -2.81581118971897 -5.25096671427143  3.74236707560756
 1 -1.50536864836484 -5.71738101130113  2.82106605950595
 1  2.74641394549455 -1.72583441934193 -1.32874683968397
 1  2.74819229682968 -0.05384110451045 -1.85207836003600
 1  4.34733563916392 -1.03735595079508  0.50270348634863
 1  4.26003496699670  1.29655836623662 -2.55465383508351
 1  5.46219163086309  2.25443570247025 -1.71096756495650
 1  5.84414172177218  0.86108721622162 -2.83726245724572
 1  6.65890795369537  1.37484148414841  0.13190583338334
 1  6.31458557795780 -0.18116615401540  0.82226194289429
 1  7.37463484818482 -1.40859009420942 -0.88642996659666
 1  7.59059149504950  0.06358956705671 -1.88111103470347
 1  9.16192824442444  0.92923080808081  0.02941057325733
 1  8.91336982568257 -0.80743624982498  0.83300116381638
 1  10.31707925932593  0.04958749644965 -1.62011690119012
 1  9.30205519101910 -2.24359233573357 -1.84947087188719
 1  11.28471102680268 -2.17276406030603 -1.98215245914591
 1  10.25923880988099 -2.64537647964797 -0.45603504320432
 1  11.44613229412941  0.54326655685569  0.61114260176018
 1  11.41771482488249 -1.16917287858786  0.85624624622462
 1  12.98733205210521 -1.48675683688369 -1.35169283688369
 1  12.77356110861086  0.41929262026203 -1.60151351265127
 1  13.63247468416842  0.96797935393539  0.57738508150815
 1  14.04469722282228 -0.59750935563556  1.10944746124612
 1  15.37175046354635  0.63431291629163 -1.47956231423142
 1  15.68612605550555 -2.35348564066407  0.02819136523652
 1  15.08953200390039 -1.82957533313331 -1.83077049214921
 1  16.51486111551155 -1.60163568846885 -1.60460192969297
 1  16.00927612831283  1.54716254995500  0.58048459275928
 1  16.74538898609861 -0.11947112221222  1.37046980818082
 1  18.25496643534353 -0.65368191559156 -0.46751009140914
 1  17.81215828032803  0.94467178607861 -1.24304788058806
 1  18.54356514911491  2.04165832353235  0.44578258355836
 1  18.73508066836684  0.69862404340434  1.76271627192719
 1  20.65726063876388  0.21804795299530 -0.07548048404841
 1  19.99786389298930  3.14073763566357 -0.83341693509351
 1  21.30034428652865  2.33016966976698 -1.34265562886289
 1  19.76822072647265  1.68826063686369 -1.86556352535254
 1  21.04672064726473  1.11353946304630  2.20025964316432
 1  22.45017672397240  1.65775700540054  0.82985795209521
 1  21.07774750465047  2.84047413071307  1.75950639113911

