%nproc=4
%Mem=2GB
# td=(NStates=1) CAM-B3LYP/6-31G(d,p) 

TD

0 1
12 -7.06774734773477  0.63579232733273  0.04129181658166
 6 -4.90902552055206 -1.94514569296930  0.47823435613561
 6 -4.80488041694169  2.83583203050305  1.19027539243924
 6 -9.34008874437444  3.01677717321732 -0.38876173587359
 6 -9.52176248994900 -1.75411092209221 -0.98831526062606
 7 -5.16500992559256  0.41853167126713  0.77419783808381
 6 -4.38582828892889 -0.72876269826983  0.79443746694669
 6 -3.04549355475548 -0.40578000370037  1.31696205040504
 6 -3.15561900030003  0.98750141844184  1.92437316801680
 6 -4.37867486238624  1.50597134593459  1.27830486038604
 6 -3.13858894099410  1.22197448554855  3.43250465936594
 6 -2.01892535353535 -0.62495775717572  0.22772673097310
 6 -0.56441386398640 -0.31724607180718  0.73390752005201
 6  0.47039817701770 -0.62370588348835 -0.37451283178318
 8  0.23995523562356 -0.92403781138114 -1.55067139883988
 8  1.73304511501150 -0.48351574797480  0.04190740184018
 7 -7.07258770667067  2.61440703050305  0.19254795029503
 6 -6.02889216821682  3.43852482828283  0.71842537613761
 6 -6.41634888798880  4.81281557095710  0.74383507070707
 6 -7.64463717071707  4.81582221372137  0.29529792109211
 6 -8.14765903750375  3.46638583388339  0.03014556085609
 6 -5.36774473117312  5.91200366626663  1.04266902740274
 6 -8.50170796839684  5.97253828752875  0.05379236463646
 6 -8.44401829312931  7.13902002060206  0.68880513031303
 7 -9.09686195879588  0.63113597469747 -0.57878191189119
 6 -9.70336659635964  1.75078503160316 -0.69098542264226
 6 -11.12219131573157  1.44371271037104 -1.16649836933693
 6 -11.19556196009601  0.07762312641264 -1.25102381638164
 6 -9.89217489818982 -0.41522349664967 -0.96318133423342
 6 -12.23764258795880  2.43815438643864 -1.44402117691769
 6 -12.40274482078208 -0.70359776987699 -1.89744055255526
 6 -12.07527501590159 -1.14093650485048 -3.30980609920992
 7 -7.23391285958596 -1.43410302390239 -0.25759043604360
 6 -8.24077431723172 -2.27501267336734 -0.68267322252225
 6 -7.81575772137214 -3.60489875737574 -0.56530380768077
 6 -6.55660954505451 -3.55821015801580 -0.06573830573057
 6 -6.24724732113211 -2.26637491879188  0.07873067726773
 6 -8.59421688908891 -4.81147398979898 -0.78052653105311
 6 -5.38137260756076 -4.31041492499250  0.18330120272027
 8 -5.19446828472847 -5.52150663406341 -0.02787575687569
 6 -4.27534111351135 -3.38440423022302  0.54829469476948
 6 -3.68021865276528 -3.62171739303930  1.89454982788279
 8 -3.88510011061106 -3.03145988218822  2.87957063816382
 8 -2.81340253395340 -4.64921964436444  1.76438501940194
 6 -2.19807039493949 -5.20759498859886  2.97683261876188
 6  2.71640415211521 -0.74900269486949 -0.92357355775578
 6  4.04029611861186 -0.59455763206321 -0.30615076407641
 6  5.02200568496850  0.22896916231623 -0.75228500120012
 6  4.93376179917992  1.24547719701970 -1.99077324262426
 6  6.36956128892889  0.31285313551355 -0.10092657785779
 6  7.65104264216422 -0.20300064696470 -0.97967491799180
 6  8.91705357795780 -0.09844497489749 -0.20266207900790
 6  10.09273989848985 -0.50812788448845 -0.96666763726373
 6  10.15290199039904 -1.93355429152915 -1.47457092209221
 6  11.50911378827883 -0.25948972977298 -0.05716484788479
 6  12.80736564426443 -0.52740679177918 -0.71790181308131
 6  14.02570203860386  0.08357715491549  0.08998606610661
 6  15.36924304920492 -0.18699242834283 -0.56141438123812
 6  15.59904157305730 -1.63839147294729 -0.92276189388939
 6  16.46616072197220  0.41839619961996  0.32873738093809
 6  17.93156774617461  0.49378077647765 -0.32254806940694
 6  18.95808617811781  1.17488570557056  0.61918235123512
 6  20.41360002920292  1.39040937443744  0.18424318751875
 6  20.54598595239524  2.17645594279428 -1.19370036273627
 6  21.25702663346335  2.04113705000500  1.22953831723172
 1 -4.04949643414341  3.58533405480548  1.69520410731073
 1 -10.21617200990099  3.73233406840684 -0.50133552505251
 1 -10.32599588898890 -2.51641098189819 -1.18750540274027
 1 -2.66707316421642 -1.03257157105711  2.21198188938894
 1 -2.36766037123712  1.78244182678268  1.73730438083808
 1 -2.13631808930893  0.76706715961596  3.73725743924392
 1 -3.20886594659466  2.30536459395940  3.75278744414441
 1 -3.84032747544755  0.62252693669367  3.95430784358436
 1 -2.17688017291729 -1.59697965836584 -0.14398830803080
 1 -2.47455912841284 -0.01713446304630 -0.47633767336734
 1 -0.30512402980298  0.64263887778778  1.16599699879988
 1 -0.25632343434343 -1.06560107530753  1.49800375557556
 1 -5.56059483488349  6.91140978507851  0.44076978617862
 1 -5.34792178157816  6.27849121222122  2.25286158325833
 1 -4.28142209820982  5.53027419381938  0.85426860246025
 1 -9.35168722122212  5.97996414451445 -0.63189341754175
 1 -9.27755897179718  7.92249298819882  0.65296491829183
 1 -7.83015248104810  7.42983938343834  1.67584597009701
 1 -11.71550565566557  3.06967729372937 -2.15566857155716
 1 -13.16690635983598  1.97572146334633 -2.10729192069207
 1 -12.73568529962996  2.81607026172617 -0.57149839383938
 1 -12.57318209660966 -1.73016246134613 -1.36000095499550
 1 -13.44118283718372 -0.08448518531853 -1.96914244174417
 1 -12.86902325492549 -1.86443112931293 -3.62368225272527
 1 -12.02953651785178 -0.23346788438844 -4.02704620032003
 1 -11.03382966226623 -1.61567643474347 -3.22310093009301
 1 -8.84175377837784 -5.00398114101410 -1.92159542364236
 1 -8.12927229202920 -5.63353335753575 -0.56127574057406
 1 -9.70404028892889 -4.92502752405241 -0.33515533813381
 1 -3.46569726562656 -3.50254350505050 -0.10924619611961
 1 -1.79274744124412 -4.27155359505951  3.68475139043904
 1 -2.89023863246325 -5.63548516611661  3.44066690559056
 1 -1.28331644314431 -5.76953622682268  2.65824977787779
 1  2.73771307540754 -1.77711954785479 -1.39745371037104
 1  2.45968344594459 -0.09290501090109 -1.76557971017102
 1  4.39468037363736 -0.98751096629663  0.73906712271227
 1  3.83004196769677  1.45462417281728 -2.23273164286429
 1  5.49189460116012  2.06620687958796 -1.71041750995100
 1  5.38645595319532  1.05089619711971 -2.91218994999500
 1  6.43630569346935  1.53305730573057  0.14864750755076
 1  6.37385150455045 -0.13716175357536  0.94511422812281
 1  7.40731811651165 -1.25939517471747 -1.37650897449745
 1  7.76789922582258  0.30296350445044 -1.88447137073707
 1  8.98735078667867  0.97257514251425  0.24986261846185
 1  8.93180166886689 -0.75929143534353  0.68884674837484
 1  10.13966151755175  0.13483602130213 -1.78434332383238
 1  9.22712769826983 -1.99104708120812 -2.06158208300830
 1  11.15366792249225 -2.14128091199120 -1.92682692659266
 1  10.00861374737474 -2.58822076407641 -0.67569700940094
 1  11.24360204110411  0.83262549274927  0.25556704420442
 1  11.43180623402340 -0.82464842614261  0.93845446704670
 1  12.76226954585458 -1.67591575277528 -0.70781844944494
 1  12.76549030153015 -0.23573288228823 -1.63916727802780
 1  13.90140157685769  1.19816237223722  0.55141248424843
 1  13.92440519361936 -0.73012261696170  1.03561007750775
 1  15.33980726922692  0.52785227022702 -1.35158951695170
 1  15.49060650355035 -2.18520881298130  0.14084263036304
 1  14.57368041874187 -2.08857123272327 -1.42900031513151
 1  16.48047767716772 -1.89532505740574 -1.59284075357536
 1  16.33401860256026  1.43571140484048  0.64845138943894
 1  16.65745019221922 -0.18859803490349  1.24135689688969
 1  18.39771070977098 -0.68329487688769 -0.67905124552455
 1  17.76574363886389  1.12600991989199 -1.29525310111011
 1  18.34982577517752  2.10359451715171  0.74892289758976
 1  18.73621078137814  0.58161234223422  1.61336133643364
 1  20.78206311901190  0.36637278547855 -0.16094903090309
 1  20.29931403800380  3.24524808670867 -1.09175276867687
 1  21.60365461756176  2.04929158195820 -1.66283764706471
 1  19.95378928332833  1.72490430123012 -1.91879884888489
 1  21.38698467366737  1.63976208530853  2.05885550275027
 1  22.27396910321032  2.08327955765577  0.86421138743874
 1  20.86899662956296  3.07734781808181  1.45561600210021

