%nproc=4
%Mem=2GB
# td=(NStates=1) CAM-B3LYP/6-31G(d,p) 

TD

0 1
12 -7.19825039803980  0.61881062916292  0.07175486288629
 6 -4.85851046904690 -1.90090126852685  0.48296482918292
 6 -4.79850977987799  2.84766321362136  1.02245861076108
 6 -9.42184692019202  2.96115161066107 -0.29564242394239
 6 -9.53298361206121 -1.74279979097910 -0.95503193229323
 7 -5.14875830043004  0.42164198229823  0.74360477877788
 6 -4.29693940004000 -0.65032485448545  0.77768579177918
 6 -2.86645565096510 -0.29286871257126  1.08013836803680
 6 -3.00140357875788  1.13806647494749  1.55928665936594
 6 -4.35970296519652  1.49781052985299  1.05462249214922
 6 -2.88081316341634  1.47352964106411  3.02246365526553
 6 -1.91525498649865 -0.53052831423142  0.01406536483648
 6 -0.50563798639864 -0.38059240644064  0.48520264956496
 6  0.44055519271927 -0.70045355825583 -0.65048042854285
 8  0.31695293539354 -1.13665907350735 -1.75398172987299
 8  1.74394620512051 -0.34378177457746 -0.15606239513951
 7 -7.14096454435444  2.64832042184218  0.26083477897790
 6 -6.01215049404941  3.40184115991599  0.62689622322232
 6 -6.35624287738774  4.81935622502250  0.69664035123512
 6 -7.77431013801380  4.89912054355436  0.26082447374737
 6 -8.13260753235324  3.48663785908591  0.05021756805681
 6 -5.58951690839084  6.02315478137814  1.01586634713471
 6 -8.65290308790879  5.99348038173817  0.22395938133813
 6 -8.44593848514852  7.13022914151415  0.87890414021402
 7 -9.14662693529353  0.62526538763876 -0.56293032673267
 6 -9.90653691339134  1.69219917301730 -0.57784410851085
 6 -11.28256735333533  1.44347268636864 -0.96582830233023
 6 -11.30385278917892 -0.01031566746675 -1.22486120012001
 6 -9.94150983168317 -0.44923689798980 -0.96947196329633
 6 -12.37703652735273  2.45496606760676 -1.07429420422042
 6 -12.42747729402940 -0.83817122722272 -1.65696650515052
 6 -12.55238272667267 -1.10929334053405 -3.06408152675268
 7 -7.20280974927493 -1.38107772137214 -0.23330800780078
 6 -8.29743998379838 -2.25838101020102 -0.57274222942294
 6 -7.82048819441944 -3.62404067156716 -0.57535481278128
 6 -6.47934181828183 -3.55629996699670 -0.15194692659266
 6 -6.20365296169617 -2.14310259155916  0.02424522872287
 6 -8.58368583598360 -4.89251209360936 -0.77586606500650
 6 -5.25144961526153 -4.39448333183318  0.17633050565056
 8 -5.14719355725573 -5.63881836523652  0.20800783148315
 6 -4.23044662406241 -3.30760655045505  0.49929979527953
 6 -3.61322195309531 -3.72944816611661  1.87841821472147
 8 -3.81993359395940 -3.20087682388239  2.92393507460746
 8 -2.61139233293329 -4.69255397779778  1.73848242914291
 6 -2.06114670257026 -5.07399162826283  3.01625656115612
 6  2.74497700940094 -0.57210500510051 -1.08517971837184
 6  4.08807089608961 -0.37287546384638 -0.43709385838584
 6  5.16541002540254  0.40442670807081 -0.90640041274127
 6  5.15894431743174  1.30277292659266 -2.19424358965897
 6  6.43605793859386  0.42405425562556 -0.13897038223822
 6  7.61683922182218 -0.21541188808881 -0.99102605310531
 6  8.99411128372837 -0.17374250465047 -0.18016982978298
 6  10.23150377487749 -0.70629770147015 -0.87381835233523
 6  10.24065076527653 -2.06475741184118 -1.29388285328533
 6  11.54570744764476 -0.30964474527453  0.01860272887289
 6  12.88040294799480 -0.39218326942694 -0.72452247514751
 6  13.99337880628063 -0.10596179897990  0.28069513701370
 6  15.36994311921192 -0.18981271037104 -0.38652689248925
 6  15.71877354625462 -1.61659929372937 -0.95398501620162
 6  16.51745585148515  0.25564992499250  0.55087959515952
 6  17.79355394479448  0.48556995539554 -0.11711752635264
 6  18.84365473497350  1.17179539653965  0.79719015201520
 6  20.19997866706671  1.31471180468047  0.22639740294029
 6  20.20443179697970  2.28436673387339 -1.08310930363036
 6  21.20017094789479  1.82619555585559  1.24642000540054
 1 -3.96143762826283  3.63364888628863  1.30997558445845
 1 -10.29085947864786  3.71420225522552 -0.48816420792079
 1 -10.26451974137414 -2.42949229002900 -1.56027267946795
 1 -2.58006446334633 -0.70258857275728  2.12274296549655
 1 -2.18274187938794  1.70757434003400  0.98799945034503
 1 -1.91040549804980  1.06817727062706  3.53464717821782
 1 -2.89557461746175  2.60013407090709  3.03705587098710
 1 -3.49188263096310  0.92155683968397  3.66895930873087
 1 -1.94121660656066 -1.56490645104510 -0.41531544074407
 1 -2.20954262676268  0.14269151955195 -0.66990703030303
 1 -0.03039655705571  0.56191080498050  0.93530392949295
 1 -0.28100590259026 -1.19772428762876  1.07672162736274
 1 -6.10443921932193  6.87359600370037  0.19095480468047
 1 -5.87171416081608  6.49856321942194  2.10907720482048
 1 -4.53297725372537  5.71758292469247  0.87125030063006
 1 -9.33625567806781  5.84208035613561 -0.45251547974797
 1 -9.33812502840284  7.95705644454445  0.84155377717772
 1 -7.53757322312231  7.17005340484048  1.65608399389939
 1 -12.04618872397240  3.02058238423842 -2.08011101580158
 1 -13.31814148334833  2.18521241244124 -1.24194538603860
 1 -12.41368309940994  2.95458411311131 -0.33959520352035
 1 -12.50985576397640 -1.83674311941194 -0.99430438533853
 1 -13.24587330623062 -0.23708044484448 -1.23633916141614
 1 -13.52466881948195 -1.85030971717172 -3.10748063256326
 1 -12.71022458665867 -0.15811034863486 -3.45619911561156
 1 -11.53974025332533 -1.53242810991099 -3.37209582958296
 1 -9.22512211521152 -4.80740148304830 -1.80998426252625
 1 -8.03694305910591 -5.92717272147215 -0.43586319931993
 1 -9.47533741864186 -4.84583960526053 -0.11588341094109
 1 -3.21784248014802 -3.73046629732973 -0.13822909440944
 1 -1.91315948244825 -4.24055049474947  3.83010592589259
 1 -2.81813142174217 -5.60006162376238  3.67319015791579
 1 -1.15100321182118 -5.53791306450645  2.63910786368637
 1  2.74851415551555 -1.57798963486349 -1.40775474047405
 1  2.53456093369337  0.15035931553155 -1.97043019521952
 1  4.07701860746075 -0.95109732493249  0.39823303930393
 1  4.21924088758876  1.43938264866487 -2.61917028672867
 1  5.59824523622362  2.18686894579458 -1.99482595079508
 1  5.80540784838484  0.67014812231223 -2.91024975597560
 1  6.61055311821182  1.36428042804280  0.16643928672867
 1  6.21702582198220 -0.14450248764876  0.77920763746375
 1  7.26060344504450 -1.23771300650065 -1.32118344194419
 1  8.01524396029603  0.14047725582558 -1.84106703030303
 1  9.36773882548255  0.83640152515252 -0.09672204000400
 1  8.76017450615062 -0.60719622582258  0.88383624732473
 1  10.29227677907791 -0.17642510481048 -1.64296918641864
 1  9.43577856335634 -2.49110708720872 -2.04052997779778
 1  11.22892544824482 -2.37925470937094 -1.80171441534153
 1  9.90695358135814 -2.87738968096810 -0.54637407710771
 1  11.37510519141914  0.64691692189219  0.37102859035904
 1  11.70171322472247 -1.07844380568057  0.79737035863586
 1  12.92940625952595 -1.40083824502450 -1.47435510311031
 1  12.86487023952395  0.45985667666767 -1.46411977327733
 1  13.85322675937594  1.00335289128913  0.56594393739374
 1  13.88571132423242 -1.02194179887989  1.14304082058206
 1  15.34113740224022  0.56144562956296 -1.39052341034103
 1  15.75286272917292 -2.41695198729873 -0.28641009490949
 1  15.01205425612561 -1.82387476307631 -1.59493690879088
 1  16.51773140254026 -1.76851237613761 -1.73928539803980
 1  16.29385458615862  1.23754158785879  0.93914045834583
 1  16.51264571177117 -0.33648282338234  1.52842560376038
 1  18.09618055675568 -0.37413396079608 -0.52759610001000
 1  17.72163922842284  1.16058337723772 -0.91096467226723
 1  18.57329812241224  2.11507566526653  1.34065207050705
 1  19.10197735803580  0.41776595759576  1.75658565886589
 1  20.55415032773277  0.30411655985599  0.09905696969697
 1  19.71209531613161  3.23839740164016 -0.82455604900490
 1  21.21203545564557  2.70131678447845 -1.33371473477348
 1  19.53585749014902  1.74635644644464 -1.98024499349935
 1  21.27655363056306  1.42537064616462  2.23887350455045
 1  22.26797850415041  1.70531176087609  0.81279624592459
 1  21.12400213011301  2.94965504880488  1.48216865736574

