%nproc=4
%Mem=3GB
# td=(NStates=1) iop(3/107=0140000000,3/108=0140000000) CAM-B3LYP/6-31G(d,p) 

TD

0 1
12 -7.23227791949195  0.60888927242724  0.12273864386439
 6 -4.83535235173517 -1.96204343494349  0.53297870027003
 6 -4.77644367496750  2.83858257615762  1.20365047024702
 6 -9.40049681418142  3.13260081308131 -0.42591506680668
 6 -9.56048214621462 -1.74808657435744 -0.91547835273527
 7 -5.10109714091409  0.41515760636064  0.77450527452745
 6 -4.25664791209121 -0.73250439363936  0.86097399209921
 6 -2.90572679327933 -0.50377877587759  1.37964363346335
 6 -3.06724995189519  1.05490419201920  1.75740201950195
 6 -4.37513774847485  1.52443709480948  1.15440983488349
 6 -2.98816499729973  1.28495131443144  3.22531784638464
 6 -1.94429015871587 -0.63540953015302  0.16719052935294
 6 -0.50213592279228 -0.48082133013301  0.48873225552555
 6  0.52072399559956 -0.79013563546355 -0.60968075817582
 8  0.20762097889789 -1.15861963966397 -1.72111950505051
 8  1.76787538593859 -0.55920585898590 -0.13529891749175
 7 -7.07271491489149  2.62869607950795  0.29295021912191
 6 -6.04642478627863  3.34550831823182  0.83063893999400
 6 -6.40154506290629  4.71475833943394  0.74241249995000
 6 -7.57486227152715  4.80854265946595  0.33105923232323
 6 -8.11859138663866  3.44617155595560  0.02301029962996
 6 -5.45968800270027  5.94795426912691  0.95381553675368
 6 -8.43678368636864  6.03951422102210  0.14760537303730
 6 -8.21006941694169  7.22909205890589  0.77529158845885
 7 -9.17963700480048  0.72265926032603 -0.39336591049105
 6 -9.92519000530053  1.85133845814581 -0.55876869036904
 6 -11.24467842054205  1.55430487498750 -1.12175703540354
 6 -11.30301978917892  0.16915446124612 -1.24847487578758
 6 -9.98734633823382 -0.39717991139114 -0.89244144544454
 6 -12.24759569726973  2.58882412381238 -1.37721717441744
 6 -12.45480927382738 -0.64251037483748 -1.84087341794179
 6 -12.19240114901490 -0.92985317761776 -3.32190284148415
 7 -7.23199616201620 -1.39743457915792 -0.25009768486849
 6 -8.33566789308931 -2.24015256075608 -0.62721430133013
 6 -7.86672871267127 -3.64413496489649 -0.52735303510351
 6 -6.48135592609261 -3.57765074717472 -0.15743782548255
 6 -6.20592432413241 -2.15327328312831 -0.03178134273427
 6 -8.78329066856686 -4.78042414081408 -0.87657104020402
 6 -5.29676513941394 -4.38478204160416  0.08852382648265
 8 -5.10670166246625 -5.67261411841184 -0.03060711211121
 6 -4.26813131573157 -3.35181262866287  0.50851917351735
 6 -3.65714989178918 -3.72608055075508  1.87034300280028
 8 -3.76981976537654 -3.16061341924192  2.92027538573857
 8 -2.93005835863586 -4.86940555905591  1.80559959745975
 6 -2.25231418841884 -5.19493469936994  3.04357175757576
 6  2.78261458185819 -0.70663895279528 -1.06988050525052
 6  4.18476936213621 -0.45363063096310 -0.48355091789179
 6  5.14327981928193  0.32609913791379 -0.85447832483248
 6  5.02983670927093  1.17985566086609 -1.96219035403540
 6  6.49456573527353  0.36304692069207 -0.12512303670367
 6  7.64818627122712 -0.36021456945695 -0.96031636033603
 6  8.85176288788879 -0.01322313841384 -0.11895799819982
 6  10.19422488308831 -0.49928159135914 -0.76850257025703
 6  10.13381665826583 -1.89343722362236 -1.19865683168317
 6  11.43146781058106 -0.19651454255426  0.08422045954595
 6  12.76326406190619 -0.47700773427343 -0.54832233733373
 6  13.97118839063906 -0.14423013731373  0.21063747534753
 6  15.37915390639064 -0.16906599019902 -0.42207786028603
 6  15.71717798879888 -1.56461484978498 -0.88290011631163
 6  16.45855284798480  0.50370688798880  0.42124685938594
 6  17.85945353305330  0.61260499009901 -0.25960248724872
 6  18.92289270787079  1.35612369086909  0.62231548824883
 6  20.30089289368937  1.40066949944994  0.05540224622462
 6  20.41572441824183  2.19335664076408 -1.24909960586059
 6  21.28851391839184  1.84299599949995  1.13894783478348
 1 -4.12052241574157  3.50683393479348  1.34807090289029
 1 -9.97071919521952  3.94606688118812 -0.53831835803580
 1 -10.37190161426143 -2.31180671577158 -1.31113893329333
 1 -2.70338762596260 -1.07213741644164  2.19948643934393
 1 -2.23497696399640  1.45587764886489  1.32000564956496
 1 -1.86380946734673  1.03608271467147  3.48546888428843
 1 -3.14379148824882  2.31501072387239  3.42961098329833
 1 -3.83219602010201  0.63368852315232  3.58374005920592
 1 -2.07891301030103 -1.79635030583058 -0.12337034413441
 1 -2.32501887088709 -0.05840822102210 -0.60474720932093
 1 -0.38714414311431  0.43485307260726  0.84175803880388
 1 -0.30381880218022 -1.28623939053905  1.36522998129813
 1 -5.74988916661666  6.76985449744974  0.41396122742274
 1 -5.74697616891689  6.32517539893989  2.06734874737474
 1 -4.48457330193019  5.85658992699270  0.63878461106111
 1 -9.01364162396240  5.82890627262726 -0.70840219291929
 1 -8.84040310401040  8.04286400740074  0.49956973267327
 1 -7.40854878697870  7.28529536593659  1.59881884218422
 1 -12.05269574257426  3.05658480558056 -2.39204503600360
 1 -13.15125242294229  1.71380012241224 -1.32980870907091
 1 -12.05255628832883  3.46808414251425 -0.46014645414541
 1 -12.61378334323432 -1.49412033483348 -1.11726522742274
 1 -13.39407170627063 -0.00137284778478 -1.71023677807781
 1 -12.81188638783878 -1.74094775687569 -3.96301725982598
 1 -12.25904631033103 -0.16305477677768 -3.75545452385239
 1 -11.18843368276828 -1.49881090829083 -3.40119839803980
 1 -9.15465008360836 -4.68750525132513 -1.97550361336134
 1 -7.97049143434343 -5.78858481178118 -0.86927688278828
 1 -9.64605878487849 -4.88305675407541 -0.17789005770577
 1 -3.47762528102810 -3.30485709130913 -0.41874961306131
 1 -1.76910029762976 -4.33691590499050  3.39777149474948
 1 -2.97824426172617 -5.40484000890089  3.75172621032103
 1 -1.61262178267827 -6.13476426122612  2.69978333943394
 1  2.84709276407641 -1.86925354815482 -1.31974342304230
 1  2.60848729002900 -0.01101301650165 -1.91721277877788
 1  4.27144763146315 -1.08910732453245  0.42206360656066
 1  4.09286459795980  1.07776331903190 -2.67982846854686
 1  5.27825475767577  2.24621504540454 -1.72725016341634
 1  5.96453602210221  0.73118430933093 -2.65774203110311
 1  6.86712489638964  1.45525550615062 -0.15239562566257
 1  6.24601247334734 -0.06177351405140  0.83320951645164
 1  7.53602572537254 -1.40613128612861 -0.85434019121912
 1  7.53053561206121 -0.06331722872287 -1.97496831973197
 1  8.83305935023502  0.76999649714971  0.41408383648365
 1  8.78621174197420 -0.62185053775378  0.77335345874587
 1  10.09374400620062  0.07507365516552 -1.73268842684268
 1  9.24304391349135 -2.29082736623662 -1.80646902880288
 1  11.02120126072607 -2.18474187348735 -1.75529088718872
 1  10.13871606870687 -2.63650776547655 -0.16369376307631
 1  11.33383502510251  0.66171260466047  0.54096186698670
 1  11.34205180068007 -1.05468676627663  0.97420374047405
 1  12.64752270477048 -1.44068148744874 -0.93500577207721
 1  12.69161499139914 -0.01451651565156 -1.44538887258726
 1  13.69163058335834  0.84202956625663  0.65837066576658
 1  14.02864117471747 -0.93252963186319  0.95934830883088
 1  15.24693509490949  0.51626502350235 -1.43736500530053
 1  15.83244704150415 -2.19791913311331  0.14413627812781
 1  14.89418106250625 -1.97836235623562 -1.48456983048305
 1  16.51753003260326 -1.68308920592059 -1.59353586688669
 1  16.24164743824382  1.56163449714971  0.73978989528953
 1  16.53481755955595  0.05259897509751  1.38705720042004
 1  18.00853759145915 -0.54741125512551 -0.59164936053605
 1  17.83575088468847  1.03475236933693 -1.20678642224222
 1  18.41091014791479  2.32285355335534  0.71129307610761
 1  18.88993495599560  0.88086292579258  1.41055430093009
 1  20.49397923022302  0.32548354595460 -0.33002711051105
 1  20.09960677917792  3.16975775227523 -1.11649383408341
 1  21.51084488528853  2.21119226132613 -1.59386736793679
 1  19.74350274787479  1.70312060226023 -1.90435882028203
 1  21.00908476197620  1.34507014791479  2.18542221102110
 1  22.36889478227823  1.97174764546455  0.68035468906891
 1  21.15780585908591  2.99664578177818  1.40403754045405

