%nproc=4
%Mem=3GB
# td=(NStates=1) iop(3/107=0140000000,3/108=0140000000) CAM-B3LYP/6-31G(d,p) 

TD

0 1
12 -6.99689438113811  0.61999038253825  0.11420779077908
 6 -4.86375519201920 -1.92282951355136  0.40809621202120
 6 -4.74300033063306  2.76249496739674  1.16231633683368
 6 -9.43880064456446  3.13926147914791 -0.41736421172117
 6 -9.55576167416742 -1.68795056075608 -0.86634343924392
 7 -5.05894292549255  0.40155624622462  0.74342216621662
 6 -4.28655090239024 -0.70838198139814  0.78812670737074
 6 -2.91983820442044 -0.44567296529653  1.27799346844684
 6 -2.95918914581458  1.06329503110311  1.74531081038104
 6 -4.26276651135113  1.44746939803980  1.16221061496150
 6 -2.99164534533453  1.37897071637164  3.30927624222422
 6 -1.92970870057006 -0.57991398059806  0.17018082838284
 6 -0.42278798799880 -0.35176842484248  0.57540092239224
 6  0.52259418261826 -0.79965658755876 -0.51429121922192
 8  0.29492970977098 -1.07335111281128 -1.70255764886489
 8  1.86023462186219 -0.67979791819182 -0.08974436203620
 7 -7.10506815021502  2.67448065796580  0.35147607170717
 6 -6.06204634843484  3.35769953735374  0.73738961506151
 6 -6.35057996639664  4.66379324292429  0.74908316701670
 6 -7.63812859815982  4.85615742094209  0.36157228362836
 6 -8.12535206270627  3.49012595139514  0.08547654625463
 6 -5.41415344924492  5.84010348404840  1.13346350155016
 6 -8.47219722772277  6.07866813641364  0.14478509100910
 6 -8.32118052805281  7.15298444814481  0.72746680598060
 7 -9.10398944004401  0.73742073647365 -0.58039461336134
 6 -9.79155664196420  1.82277560186019 -0.78964177767777
 6 -11.21323527622762  1.56010545504550 -1.12805766546655
 6 -11.26308579577958  0.23639118491849 -1.24914494279428
 6 -9.95386298989899 -0.35454564796480 -0.87331953325333
 6 -12.15751668936894  2.62491773317332 -1.46379583228323
 6 -12.49591338423842 -0.57495361916192 -1.63405273587359
 6 -12.48067997689769 -1.06752694499450 -3.11163181438144
 7 -7.25510847324732 -1.33033786948695 -0.17276995209521
 6 -8.31714604090409 -2.21607015251525 -0.46723830373037
 6 -7.80665270507051 -3.55188573997400 -0.47835813561356
 6 -6.55110290079008 -3.56377936003600 -0.18963104480448
 6 -6.25227895959596 -2.16193414921492  0.10273210861086
 6 -8.66081842134214 -4.77080317871787 -0.87965134823482
 6 -5.43252871577158 -4.35790935433543  0.18514348844884
 8 -5.24553554585459 -5.58874573157316  0.15481142974297
 6 -4.19087358995900 -3.32722016941694  0.43268158975898
 6 -3.51969614641464 -3.78958690139014  1.76346231473147
 8 -3.66059884328433 -3.17144450235024  2.84933829202920
 8 -2.74910026282628 -4.79149776827683  1.67502654015402
 6 -2.31119007600760 -5.40424563046305  2.97695509590959
 6  2.83805012541254 -0.85033332223222 -1.21859537673767
 6  4.16045693089309 -0.48863413131313 -0.53924648744874
 6  5.15640113141314  0.26982351035104 -0.94347722472247
 6  5.05014874047405  1.07239491479148 -2.12980711571157
 6  6.44159043774378  0.37801841784178 -0.22900342474247
 6  7.57379883248325 -0.25042359035904 -0.96012634133413
 6  8.97958567016702 -0.20307212331233 -0.08204430683068
 6  10.21362682328233 -0.67235889908991 -0.91017673767377
 6  10.14969824642464 -2.14151203110311 -1.24136110211021
 6  11.47662232603260 -0.26468135923592 -0.07399536203620
 6  12.80645838133813 -0.44250428392839 -0.70255776087609
 6  13.95362663446345 -0.14663037733773  0.21050746234623
 6  15.29364535553555 -0.24057314091409 -0.49077472997300
 6  15.72902917391739 -1.63518190649065 -0.84061588788879
 6  16.33461045374537  0.50145666296630  0.42788752345235
 6  17.71176876457646  0.60410414001400 -0.25300182718272
 6  18.67180759935993  1.30370844934493  0.74885814251425
 6  20.12439524392439  1.53150258275828  0.22527923392339
 6  20.15409825562556  2.19649695479548 -1.12123681958196
 6  21.04148921592159  2.14922662256226  1.32061600160016
 1 -4.00529089258926  3.28685193659366  1.46920301610161
 1 -10.32745486878688  3.84671694619462 -0.53132765896590
 1 -10.32699712381238 -2.27507304240424 -1.13454127352735
 1 -2.59843713091309 -1.06575677837784  2.21372786348635
 1 -2.08702216851685  1.57027908900890  1.25866951595160
 1 -1.93510659705971  1.21904101050105  3.57617795519552
 1 -3.22290940004000  2.36167539033903  3.37050507270727
 1 -3.60390319081908  0.70134528882888  4.03268495369537
 1 -2.06147126612661 -1.51253192399240 -0.32686069316932
 1 -2.30019638863886  0.13688130793079 -0.66681341594159
 1 -0.08389381808181  0.66879646694669  0.72457632063206
 1  0.00554213391339 -0.76685745234524  1.64157761606161
 1 -5.69721389908991  6.72219973197320  0.46420625192519
 1 -5.58371984328433  6.23891677307731  2.24387640014001
 1 -4.34302914751475  5.57796206420642  1.07127786038604
 1 -9.24026428622862  5.91670505250525 -0.57826917961796
 1 -8.94125318901890  7.85023474447445  0.21377115281528
 1 -7.76122405450545  7.54632146854685  1.53856281658166
 1 -11.93429390239024  3.20779992709271 -2.31443727522752
 1 -13.13550084778478  2.26612535493549 -1.96386211441144
 1 -12.51407243994399  3.14845217931793 -0.62194263376338
 1 -12.59610157505750 -1.53859478227823 -1.08458195909591
 1 -13.35129742884288  0.04213150265026 -1.38355410981098
 1 -13.51066626582658 -1.67078074017402 -3.31812277037704
 1 -12.60912131783178 -0.16416488778878 -3.97572655105511
 1 -11.50962580198020 -1.21103213041304 -3.34416269446945
 1 -8.97788240684068 -4.74471097189719 -1.98090415341534
 1 -7.98704308950895 -5.59237519081908 -0.67672762786279
 1 -9.51249542854286 -5.15253370177018 -0.25110737943794
 1 -3.41263878237824 -3.59755636123612 -0.16265400350035
 1 -1.92759614721472 -4.47721993539354  3.52418413601360
 1 -3.13966040334033 -5.50797032193219  3.56886792449245
 1 -1.61544206470647 -6.27891867666767  2.70257361846185
 1  2.72191024582458 -1.78165478827883 -1.63569501820182
 1  2.62012845414541 -0.29395131033103 -2.03629468696870
 1  4.28566905360536 -1.03715212901290  0.33861526172617
 1  3.98495380688069  1.43661920462046 -2.43792427812781
 1  5.65496242844284  2.02154257815782 -1.97141457985799
 1  5.60514008250825  0.62924411531153 -3.14759101600160
 1  6.56901508540854  1.48147812841284  0.10379999389939
 1  6.48256612871287 -0.17941527822782  0.68613480898090
 1  7.26172829562956 -1.25651632463246 -1.27277203440344
 1  7.93386594509451  0.32997210021002 -1.84522534543454
 1  9.12939898419842  0.86047554505451 -0.01203877577758
 1  8.85151827262726 -0.75632398509851  0.78393451685169
 1  10.19667429922992 -0.11828568076808 -1.87633279127913
 1  9.00356996609661 -2.25765404890489 -1.74036241814181
 1  11.01242038263826 -2.21519491879188 -2.03975933403340
 1  10.38663086018602 -2.74290840554055 -0.30939833353335
 1  11.51293293489349  0.78414484788479  0.53331110191019
 1  11.52628022352235 -0.88500979857986  0.83852017211721
 1  12.96805475797580 -1.40129754905491 -1.06274854635464
 1  13.03475930583058  0.25044998099810 -1.62297663136314
 1  13.77095851615162  0.94508987228723  0.53454828352835
 1  13.88524683528353 -0.85279165806581  1.05913828782878
 1  15.13770417181718  0.38612200920092 -1.26613788258826
 1  15.79617341414141 -2.31859120032003  0.03884574907491
 1  15.27581922632263 -2.20608512851285 -1.63878525202520
 1  16.71075935553555 -1.68712960996100 -1.16668318161816
 1  15.97603087658766  1.60114844854485  0.45799171547155
 1  16.37000107790779  0.04409812501250  1.40688918361836
 1  18.11723846154615 -0.37178369236924 -0.32085228082808
 1  17.70618792839284  1.33753264736474 -1.11344708830883
 1  18.25442449934993  2.41556282428243  0.92514446124612
 1  18.52822878537854  0.63288812831283  1.63986723222322
 1  20.66683651595159  0.55445644324432  0.11745763796380
 1  19.63944076257626  3.20206098259826 -1.10049223392339
 1  21.29169297009701  2.16269741184118 -1.72083006420642
 1  19.75172356995700  1.60043033323332 -1.79604798919892
 1  21.18487234073407  1.59823546444644  2.21826549534953
 1  22.04905279807981  2.27561803250325  0.89304595819582
 1  20.81905198369837  3.20034615181518  1.46761389808981

