%nproc=4
%Mem=3GB
# td=(NStates=1) iop(3/107=0140000000,3/108=0140000000) CAM-B3LYP/6-31G(d,p) 

TD

0 1
12 -7.15515020672067  0.62531091459146  0.02392876287629
 6 -4.78966778327833 -1.91041827242724  0.40765616801680
 6 -4.66703273387339  2.82317103500350  1.19385949114912
 6 -9.39285605010501  3.03931148414842 -0.32424489978998
 6 -9.49643574157416 -1.68451021672167 -1.02520932583258
 7 -4.97769480068007  0.49339543014301  0.63530135413541
 6 -4.27539978727873 -0.73578472167217  0.69399729442944
 6 -2.79089531013101 -0.41665006300630  1.17286295539554
 6 -2.92880610751075  1.06539524112411  1.68462474177418
 6 -4.31337157185719  1.49732438353835  1.13566796069607
 6 -2.91490767156716  0.98246106540654  3.26952226682668
 6 -1.86652238193819 -0.63964995419542  0.04393820412041
 6 -0.42820853005301 -0.45886913491349  0.42740612291229
 6  0.48704062726273 -0.73844046594659 -0.75209499959996
 8  0.20201041784178 -0.98105188288829 -1.84884227732773
 8  1.77825642404240 -0.51917185558556 -0.33269865746575
 7 -7.11646929032903  2.64599780968097  0.50007093119312
 6 -6.08159830363036  3.40373414081408  0.93677955405541
 6 -6.42955786418642  4.81853871747175  0.90507876657666
 6 -7.68296308160816  4.88236004120412  0.35791191759176
 6 -8.11173070057006  3.50316725552555  0.06055405400540
 6 -5.53494552845285  5.91339081278128  1.31694184938494
 6 -8.48217822582258  6.05359562916292  0.03169378187819
 6 -8.60753916391639  7.21729087878788  0.57395145444544
 7 -9.09777881898190  0.68377537193719 -0.50165673957396
 6 -9.84667215351535  1.85142846714671 -0.57620043354335
 6 -11.18659261196120  1.50598004250425 -1.02644750445044
 6 -11.23862334953495  0.16061360716072 -1.24191421972197
 6 -9.87326493009301 -0.34628482188219 -0.88653085438544
 6 -12.22854379207921  2.47173241464146 -1.26608606130613
 6 -12.42480627352735 -0.64892101590159 -1.75150448104811
 6 -12.33015492439244 -1.15651584388439 -3.23219387058706
 7 -7.24136709910991 -1.41121595729573 -0.09464213931393
 6 -8.27273159945995 -2.18189673517352 -0.55946752665267
 6 -7.83186522632263 -3.60707125852585 -0.47685798559856
 6 -6.60899869036904 -3.49711269336934 -0.03526560826083
 6 -6.16963069476948 -2.14899285508551  0.05193702910291
 6 -8.61826416591659 -4.86727282568257 -0.87618100120012
 6 -5.38518398129813 -4.32645620902090  0.27258223232323
 8 -5.16798779107911 -5.54774163116312  0.29048499709971
 6 -4.17446194879488 -3.35560300770077  0.55139346094609
 6 -3.56647082388239 -3.63804174687469  1.94836080458046
 8 -3.75672845624562 -3.04115147304730  3.01529488768877
 8 -2.83072842564256 -4.82739135763576  1.81791082858286
 6 -2.27496645364536 -5.22695790169017  3.04353175357536
 6  2.91430775117512 -0.70651894079408 -1.38246176337634
 6  4.14474535973597 -0.33932920082008 -0.55703826662666
 6  5.08226371767177  0.41258778677868 -1.13713659065907
 6  5.08411213681368  1.12830050535054 -2.40990512551255
 6  6.45443172187219  0.52228284428443 -0.29521004540454
 6  7.62260371297130 -0.14397294529453 -1.02284261296130
 6  8.86940465206521 -0.20326214231423 -0.10916701910191
 6  10.14705016561656 -0.60711237443744 -0.96158187818782
 6  10.10455373197320 -2.10642852275227 -1.26668363436344
 6  11.38398306210621 -0.32382727382738 -0.02749071157116
 6  12.74915265076508 -0.52261229472947 -0.70273777887789
 6  13.97586885868587 -0.23247896219622  0.12208862046205
 6  15.39266525752575 -0.19942902650265 -0.56050170267027
 6  15.64456072707271 -1.61729011731173 -0.95893772007201
 6  16.44498149084908  0.39445596289629  0.45299003370337
 6  17.82743033073307  0.47728145774577 -0.12176870387039
 6  18.75932635123512  1.25037311581158  0.82584584128413
 6  20.12739554395440  1.29327876037604  0.36050275627563
 6  20.25252809860986  2.20367767286729 -0.89530422632263
 6  21.06551161816181  2.00959265916592  1.43290723072307
 1 -4.15927629112911  3.60151340274027  1.90516661246125
 1 -10.03175529882988  4.00602287678768 -0.60303482968297
 1 -10.18996342044204 -2.56967250235024 -1.20879869926993
 1 -2.64278156535654 -1.03476367906791  1.93706019671967
 1 -2.07246071237124  1.90787284838484  1.31723537253725
 1 -1.78632171857186  1.07324643104310  3.65951628902890
 1 -3.22284939403940  2.01896111891189  3.59137715991599
 1 -3.50582338283828  0.15513066736674  3.66454814001400
 1 -2.08427354635464 -1.73661433223322 -0.21520952805281
 1 -1.86496286528653  0.02061968176818 -0.91714844944494
 1 -0.21918734743474  0.52647223452345  0.91079494249425
 1 -0.24338275857586 -0.99357012361236  1.15217867616762
 1 -5.98974315201520  6.62543005500550  0.64370420172017
 1 -5.41641311261126  6.05043792519252  2.48401041354135
 1 -4.62444728932893  5.60519478747875  0.73450418301830
 1 -9.11102136193619  5.66244962696270 -0.82892424512451
 1 -9.30323938763876  8.13953367436744  0.08589836553655
 1 -7.73485141724172  7.47474431083108  1.41112007230723
 1 -11.92149262226223  3.09660880798080 -2.04216004750475
 1 -13.14271156885689  1.99179792219222 -1.57227295549555
 1 -12.47263829652965  3.12391972607261 -0.31817225672567
 1 -12.42363432833283 -1.47526844964496 -0.94644814571457
 1 -13.39222152125213 -0.32807551805180 -1.36658241264126
 1 -13.20188538773878 -1.73320698279828 -3.45964692279228
 1 -12.25953635933593 -0.31718018931893 -3.88574755315532
 1 -11.56677151655165 -1.79003003020302 -3.55106338453845
 1 -8.74429904850485 -4.81651815261526 -2.03381944494449
 1 -7.94320870607061 -5.76497245054505 -0.63797375247525
 1 -9.34427860686069 -4.79315776417642 -0.29242151085109
 1 -3.42000951945195 -3.59911651725173 -0.14223196129613
 1 -1.60716410401040 -4.55571778517852  3.45631734933493
 1 -2.88092452975298 -5.66982650755075  3.76518755645565
 1 -1.69066958745875 -6.13684446924692  2.76403976507651
 1  3.01111916671667 -1.56954357715772 -1.68037948664866
 1  2.61448789008901 -0.14256617181718 -2.30480153765377
 1  4.11738222492249 -0.76608502230223  0.32049344954495
 1  4.08819413091309  1.16661220392039 -2.97827831353135
 1  5.45309224142414  2.24059448334833 -1.96551398979898
 1  5.83923349184919  0.73792498339834 -3.04238049494949
 1  6.64864304820482  1.48078805940594 -0.04412479857986
 1  6.30108798089809  0.11360402370237  0.75395159065907
 1  7.30991311411141 -1.26116678967897 -1.31435619281928
 1  7.93279583808381  0.47505660866087 -1.84097492039204
 1  8.97429347364736  0.77164666216622  0.15847827592759
 1  8.76963008380838 -0.89205755845585  0.71927805120512
 1  10.30946557835784  0.01379752755276 -1.79573473147315
 1  9.36598620772077 -2.35003328682868 -1.89780816271627
 1  10.85862500310031 -2.31472487178718 -1.78023338143814
 1  9.91016321342134 -2.66781089578958 -0.33639103280328
 1  11.28604024562456  0.66709314271427  0.29773754455446
 1  11.37920551605161 -1.04053535113511  0.74804112421242
 1  12.97291524402440 -1.59534695399540 -0.85023729522952
 1  12.88801463136314 -0.01654671867187 -1.61198553225323
 1  13.91079249954995  0.78489385268527  0.42051688038804
 1  14.01332964356436 -0.94193057195720  1.14302667666767
 1  15.34779518091809  0.57099049604960 -1.36679794859486
 1  15.70330412721272 -2.24130347154715 -0.11412954845485
 1  14.78844048844884 -1.97681220122012 -1.59583095659566
 1  16.62357063666366 -1.61230212721272 -1.47539405270527
 1  16.18713198669867  1.40555888958896  0.88287420372037
 1  16.41514559235924 -0.13175946074607  1.31746024072407
 1  18.39644638233823 -0.35827234123412 -0.18381857745775
 1  17.84090139973997  1.08054694879488 -1.06624236783678
 1  18.48283734063406  2.23863513151315  0.92425437223722
 1  18.52290825332533  0.81479631913191  1.69206245174517
 1  20.52414224652465  0.25281627922792  0.19360525272527
 1  19.66225304380438  3.38075885238524 -1.02535472017202
 1  21.24170797159716  2.26296743884388 -1.38340632183218
 1  19.78642704030403  1.65287557775778 -1.92217060146015
 1  20.89484333783378  1.85572121302130  2.48010167896790
 1  22.14391228402840  1.92814328502850  1.23809046264626
 1  20.78008808730873  3.18519463666367  1.55252238893889

