%nproc=4
%Mem=3GB
# td=(NStates=1) iop(3/107=0140000000,3/108=0140000000) CAM-B3LYP/6-31G(d,p) 

TD

0 1
12 -7.10186487818782  0.64056243974397  0.20559692969297
 6 -4.88899771627163 -1.97475470607061  0.51454685708571
 6 -4.84954098469847  2.79455817371737  1.22702280748075
 6 -9.33628039253925  3.13915146814681 -0.47593006830683
 6 -9.49670576857686 -1.70523228892889 -0.87757456235624
 7 -5.11742877407741  0.44090018061806  0.64802262626263
 6 -4.37530977827783 -0.75439658285829  0.78236613131313
 6 -2.97327354795480 -0.45407380538054  1.30029569866987
 6 -3.04315754265427  1.05749445104510  1.71373765306531
 6 -4.35841607630763  1.49317396849685  1.14534892879288
 6 -2.97362354315432  1.27598041734173  3.27102241684168
 6 -1.92862859255926 -0.70515650485048  0.15582939323932
 6 -0.44275998519852 -0.55451869986999  0.62799618191819
 6  0.51443336653665 -0.71019764166417 -0.55588537863786
 8  0.15544576137614 -1.06459023672367 -1.71273866696670
 8  1.84008260666067 -0.47756769516952 -0.20946633423342
 7 -7.07610525392539  2.63957716761676  0.26953787788779
 6 -5.98010815461546  3.35857962536254  0.73300917701770
 6 -6.38220312871287  4.76237310091009  0.76952521122112
 6 -7.67974275957596  4.76741854705471  0.39488561496150
 6 -8.10492001950195  3.47129406820682  0.08821682028203
 6 -5.40588262216222  5.91545101880188  1.11407156235624
 6 -8.47297730573057  6.09478974857486  0.10958157065707
 6 -8.46242465246525  7.21100024972497  0.95910997029703
 7 -9.05354439553955  0.66159315371537 -0.52191876577658
 6 -9.82431991829183  1.80783410771077 -0.70127294079408
 6 -11.09572352505251  1.48948839333933 -1.22077693739374
 6 -11.19520900810081  0.12819036483648 -1.38119814811481
 6 -9.86273387698770 -0.36823701710171 -1.01896409770977
 6 -12.23348428612861  2.44227946934693 -1.43753320602060
 6 -12.31571536443644 -0.71938806260626 -1.87700703130313
 6 -12.25989789868987 -0.95501569386939 -3.44790544174417
 7 -7.20736369876988 -1.44753958965897 -0.14982765786579
 6 -8.21213553985399 -2.20888943444344 -0.40781236113611
 6 -7.88121016081608 -3.70826137753775 -0.45511581138114
 6 -6.54274206470647 -3.65905888798880 -0.03503558525853
 6 -6.11734546624662 -2.27807576337634  0.04425626102610
 6 -8.63432577207721 -4.94260035843584 -0.84899828292829
 6 -5.35167062996300 -4.42712627602760  0.30484545864586
 8 -5.20957194949495 -5.69357621462146  0.22707865646565
 6 -4.20705520812081 -3.39578702610261  0.54059238083808
 6 -3.54723890069007 -3.69324726742674  1.95223119161916
 8 -3.78439122252225 -3.09177653555356  3.03564692289229
 8 -2.60007536033603 -4.79098771727173  1.85123416091609
 6 -2.26929588658866 -5.14720992689269  3.12502990339034
 6  2.80012633303330 -0.58553684258426 -1.26900041724172
 6  4.14741562676268 -0.39620488838884 -0.66234879767977
 6  5.06531202250225  0.53777030503050 -1.01940481748175
 6  4.93374710031003  1.50585826112611 -2.10921505650565
 6  6.38100437913791  0.46984760076008 -0.28794931933193
 6  7.54266571917192 -0.09712826082608 -1.00274060276028
 6  8.96339405100510 -0.01491330743074 -0.26495259765977
 6  10.15961142174218 -0.50559222242224 -1.12463818381838
 6  9.96447972457246 -1.96293417331733 -1.38869583558356
 6  11.32791745554555 -0.14557944904490 -0.11451941444144
 6  12.76630436593659 -0.27339737323732 -0.81745925102510
 6  13.86603787558756  0.05895018071807  0.20498691029103
 6  15.25742173317332 -0.16933601720172 -0.45510116261626
 6  15.56699297029703 -1.59582797109711 -0.85539736603660
 6  16.34580157285729  0.51316783408341  0.37353208790879
 6  17.83371095879588  0.49112284188419 -0.23353988098810
 6  18.79637005560556  1.08996707520752  0.70752400910091
 6  20.31897470187019  1.11747117961796  0.27773447944794
 6  20.44724757055706  1.96960426552655 -0.97946264216422
 6  21.14297936493649  1.63917561746175  1.48592253225323
 1 -3.94624498799880  3.37203045444544  1.71210730653065
 1 -10.00809293259326  3.92903517801780 -0.42765729192919
 1 -10.19503392749275 -2.45580111521152 -1.15276309570957
 1 -2.58882616981698 -1.11244144684468  2.21605809650965
 1 -2.17569103540354  1.62175423652365  1.41072472147215
 1 -1.95296838323832  1.12332143854385  3.78153849124912
 1 -3.20709781888189  2.37511673447345  3.34994301650165
 1 -3.54135693619362  0.73265842014201  3.90215190039004
 1 -2.15420053905391 -1.65547621842184 -0.26260426752675
 1 -1.98888525752575 -0.13271565176518 -0.78045478007801
 1 -0.33592902160216  0.39030861816182  1.18193205620562
 1 -0.29601802210221 -1.34129489608961  1.39850330863086
 1 -5.88044222192219  6.86960447244724  0.69333916521652
 1 -5.34555602690269  6.21697457885789  2.25940795329533
 1 -4.46445128972897  5.59951421942194  0.94404513711371
 1 -9.27092735253525  6.06039942194219 -0.81191254395440
 1 -8.95285434913491  8.08953867486749  0.63691346704670
 1 -7.73196112821282  7.13951078747875  1.83618257855786
 1 -11.85414588758876  3.11485063216322 -2.15142097359736
 1 -13.15638293599360  1.99693843624362 -1.93859958815882
 1 -12.55624665736574  2.90400773487349 -0.50212065156516
 1 -12.48167013191319 -1.75406632943294 -1.33055655655565
 1 -13.19933223232323  0.18944623412341 -1.77868362276228
 1 -13.10434563376338 -1.56240990309031 -3.69131008910891
 1 -12.32758316401640 -0.04556302760276 -4.17794677307731
 1 -11.26342118151815 -1.50424145134513 -3.57734601280128
 1 -9.01833645224522 -4.86622312311231 -1.83341940494049
 1 -7.96943132833283 -5.90356630993099 -0.57226718181818
 1 -9.44728890789079 -5.03405185358536 -0.11408367706771
 1 -3.51658917741774 -3.75973257885789 -0.10649838793879
 1 -1.70751413901390 -4.23192540594059  3.48772048964897
 1 -2.98692512981298 -5.31304082898290  3.82285332303230
 1 -1.69381990249025 -5.87767855265527  2.78314167526753
 1  2.80481853665367 -1.67261388418842 -1.60372182088209
 1  2.34551099239924  0.16032411721172 -2.01118217571757
 1  4.26114660136014 -1.25070348414841  0.24727612781278
 1  4.02904821632163  1.64612015471547 -2.52414289999000
 1  5.44960189238924  2.32002242614261 -1.86307374577458
 1  5.50935050355036  1.21283247414741 -2.88528478537854
 1  6.78886707060706  1.37550753135314 -0.14980536663666
 1  6.27380525262526  0.03677634093409  0.68325452095210
 1  7.30479260206021 -1.30028070107011 -1.37724248144814
 1  7.72849540804080  0.41191029402940 -1.98347917081708
 1  9.26131217551755  1.14059355685569 -0.05939351125113
 1  8.81774489528953 -0.36020437313731  0.88923504690469
 1  10.20655528732873  0.14707085488549 -2.06727188518852
 1  9.10207981708171 -2.20473875737574 -1.97775615751575
 1  10.85766490709071 -2.13010640994099 -2.16166152425243
 1  10.03729592669267 -2.51745586028603 -0.38776617031703
 1  11.34343598519852  0.73877031043104  0.11619939073907
 1  11.38904650015002 -0.80031132873287  0.54558087818782
 1  13.05359331183118 -1.36096351565156 -1.27431970347035
 1  12.80701653155315  0.46041097709771 -1.71067540124012
 1  13.69699111941194  1.10430579387939  0.62570739943994
 1  13.90909922052205 -0.88221460036004  0.88749112311231
 1  15.27595799719972  0.34497789478948 -1.37776904570457
 1  15.53676747354736 -2.18063740494049  0.03346521102110
 1  14.56780842524252 -2.01918643864386 -1.46723809730973
 1  16.49562784238424 -1.76096699369937 -1.50230674397440
 1  16.06128940244024  1.57231556525653  0.67095301160116
 1  16.27632170997100  0.04840855605561  1.43239173387339
 1  18.18256499419942 -0.48072458645865 -0.42545274087409
 1  18.00285759535954  1.02836173027303 -1.08031377497750
 1  18.70087914481448  2.29593086108611  0.85570751755176
 1  18.85319128162816  0.50374521402140  1.52807605310531
 1  20.64633446574658  0.13009400700070 -0.03277738553855
 1  20.09741656015602  2.93586436293629 -0.68985116981698
 1  21.44705850665067  1.96183732583258 -1.23480146134614
 1  19.77372577017702  1.69095938613861 -1.70651903630363
 1  21.09496334983498  1.00748638953895  2.39985365416542
 1  22.22222011481148  1.77101757245725  1.30263691729173
 1  20.94085416391639  2.74680079727973  1.36998413511351

