%nproc=4
%Mem=2GB
# td=(NStates=1) CAM-B3LYP/6-31G(d,p) 

TD

0 1
<<<<<<< HEAD
12 -7.18777935093509  0.62920166826683  0.06092377977798
 6 -4.79438405640564 -1.90493167156716  0.55750228292829
 6 -4.81298122702270  2.86486493379338  1.20400676557656
 6 -9.38887362286229  3.13413890939094 -0.48705156485649
 6 -9.49100941464146 -1.79976548754875 -0.81262769186919
 7 -5.15918934353435  0.51210102820282  0.74320473877388
 6 -4.28306801290129 -0.63718354035404  0.65503352655266
 6 -2.88339734513451 -0.37995742144214  1.14967532173217
 6 -3.08709214761476  1.09192186048605  1.74725545624562
 6 -4.39180617551755  1.59600034883488  1.15113214311431
 6 -3.11457653975398  1.22891517961796  3.20376178507851
 6 -1.88205166616662 -0.48037329872987  0.00140409870987
 6 -0.50752817541754 -0.50482482968297  0.47825195449545
 6  0.52054319151915 -0.77162067496750 -0.63751913241324
 8  0.31432267236724 -0.99536494409441 -1.79127545924592
 8  1.78556036653665 -0.47846524292429 -0.19107589648965
 7 -7.12133258115812  2.65090067986799  0.38361705720572
 6 -6.09325860486049  3.40203117891789  0.81204473807381
 6 -6.46449370247025  4.78234252365236  0.82663335053505
 6 -7.77660036703670  4.91415204670467  0.24719311061106
 6 -8.12702697429743  3.53240243554355  0.03774632093209
 6 -5.47350530723072  5.86281874777478  1.18681344184418
 6 -8.66470426802680  6.08527956165617  0.08609559495950
 6 -8.54468836013601  7.16340245884588  0.87590384018402
 7 -9.14696696929693  0.66670953205321 -0.55714974867487
 6 -9.86614287398740  1.79096905000500 -0.69835615971597
 6 -11.25826492309231  1.43539187828783 -1.05722744224422
 6 -11.28094049794979  0.05309067316732 -1.16424513851385
 6 -9.93139882058206 -0.43724569886989 -0.83919893599360
 6 -12.26909573327333  2.33294386538654 -1.49347612241224
 6 -12.41547609390939 -0.74871228132813 -1.64441525002500
 6 -12.34415190359036 -1.04811722292229 -3.18623374197420
 7 -7.20683015131513 -1.40773038663866 -0.13426810381038
 6 -8.26532677247725 -2.30190536263626 -0.54685964116412
 6 -7.81819796539654 -3.65779404690469 -0.55705298259826
 6 -6.40696458055806 -3.58404274127413 -0.11939367126713
 6 -6.18525112151215 -2.22116039733973  0.17256006020602
 6 -8.56751421882188 -4.79434227662766 -0.90869934833483
 6 -5.26114058435844 -4.31933581708171  0.18777164976498
 8 -5.12349118701870 -5.51777626102610  0.24916194689469
 6 -4.17066064546455 -3.26056184598460  0.60546041134113
 6 -3.46380701160116 -3.55903112441244  1.90987136003600
 8 -3.65623722432243 -3.02677941414141  2.98374105520552
 8 -2.77309850355035 -4.67216193859386  1.59798837973797
 6 -2.29344993289329 -5.33092732183218  2.89163409890989
 6  2.85080759245925 -0.73686148074807 -1.19000020042004
 6  4.16227831683168 -0.46762493879388 -0.50049019801980
 6  5.12685617001700  0.32628889428943 -0.91265103780378
 6  5.25164358735874  1.03544619391939 -2.27967213251325
 6  6.50798513131313  0.41815366556656 -0.23015950115012
 6  7.63639117701770 -0.19585993289329 -0.86779372987299
 6  8.91406327892789 -0.12149728012801 -0.02532434523452
 6  10.13687431193119 -0.64061113281328 -0.78317928842884
 6  10.10848754895489 -2.17776871297130 -1.11381484648465
 6  11.47647052395240 -0.44308808960896  0.02287315591559
 6  12.81727663536354 -0.57067111821182 -0.65338536143614
 6  13.98179764816482 -0.20796199899990  0.14809187668767
 6  15.36481260616062 -0.24655838493849 -0.53520175997600
 6  15.80774244314431 -1.59371700550055 -0.91736135383538
 6  16.36120022592259  0.59164352435244  0.38930343754375
 6  17.77036162556255  0.61691308970897 -0.28829464406441
 6  18.73027339683969  1.25560377737774  0.70415084808481
 6  20.19931860106011  1.38069840334033  0.28335309850985
 6  20.20968232203220  2.13416171337134 -1.11674266696670
 6  21.19143007380738  2.03258619491949  1.27730309370937
 1 -4.10059154365437  3.69664518591859  1.59823441034103
 1 -9.97056744944494  3.92650348534853 -0.68704409590959
 1 -10.26100939033903 -2.53285262606261 -0.93985063726373
 1 -2.83874033093309 -1.21569988388839  1.93880457165716
 1 -2.18044164936494  1.47854143674367  1.27243789418942
 1 -2.23729818731873  0.70322077497750  3.62683639713971
 1 -3.35876093609361  2.31532559005901  3.51012317771777
 1 -3.85091853455346  0.55393007700770  3.52969538233823
 1 -1.93381586648665 -1.54508446884688 -0.57800170937094
 1 -1.98638031053105  0.30678792919292 -0.61950198979898
 1 -0.27505102250225  0.40098471237124  0.86818721782178
 1 -0.60739854185419 -1.31608612381238  1.45041899709971
 1 -6.11430020542054  6.92637128122812  0.66889259845985
 1 -5.32439942934293  6.01475483858386  2.33451974907491
 1 -4.59807376337634  5.79514068046805  0.70091326692669
 1 -9.44893694619462  6.02171831993199 -0.69465969416942
 1 -9.18013922982298  7.97059779867987  0.81262088388839
 1 -7.74625409120912  7.30047644714471  1.62634101960196
 1 -12.03178728382838  2.75579590559056 -2.50673367806781
 1 -13.32634230343034  2.01916580778078 -1.73912510401040
 1 -12.71766349744975  3.35214386908691 -0.79508075207521
 1 -12.47989276767677 -1.76252569766977 -1.07180213511351
 1 -13.28714743364336 -0.39571630843084 -1.33952948044804
 1 -13.26653300590059 -1.64449913611361 -3.47724760926093
 1 -12.37098066226623 -0.00384492209221 -3.78055155085509
 1 -11.40295657495750 -1.47376224332433 -3.51270989098910
 1 -8.65923552655266 -4.95604634753475 -2.02661592569257
 1 -8.16518588338834 -5.81043104730473 -0.60994060706071
 1 -9.62621250615062 -4.93153817511751 -0.68147997059706
 1 -3.35829652555255 -3.49262251295129 -0.11553682518252
 1 -1.67500566706671 -4.44085052475248  3.50184309960996
 1 -3.05728533713371 -5.57848946654665  3.55780861976198
 1 -1.59391750325033 -6.18879815301530  2.38280223312331
 1  2.82690199429943 -1.81587342324232 -1.42787675267527
 1  2.65964344194419 -0.06570229062906 -2.08884203640364
 1  4.11151205680568 -0.70509272447245  0.69225244124412
 1  4.21099006250625  1.15973468386839 -2.91903027272727
 1  5.44644005570557  2.02072233113311 -1.79709617781778
 1  6.08391569916992  0.60801190869087 -2.84342307330733
 1  6.75479754265427  1.56907090709071  0.01439408220822
 1  6.38784290369037 -0.00175821322132  0.80309002570257
 1  7.44825220992099 -1.10436967216722 -1.06156748034803
 1  7.51957439333933  0.46140934903490 -1.97316023962396
 1  9.38015006660666  0.87414529952995  0.01315894809481
 1  8.71301979067907 -0.68866437263726  0.97167503120312
 1  10.04959251065107  0.03960649834984 -1.69385427492749
 1  9.19938492399240 -2.35717369386939 -1.81347727252725
 1  11.06917947364736 -2.47900468436844 -1.41669591349135
 1  10.02394528052805 -2.78824076607661 -0.17563700340034
 1  11.22149983088309  0.54219644984498  0.40790227772777
 1  11.44944799819982 -1.00837679897990  0.85691631323132
 1  13.06504982388239 -1.58022618381838 -1.32095976357636
 1  12.84113786628663  0.40486117711771 -1.44637799909991
 1  13.81099253595359  0.84820737673767  0.52749009200920
 1  14.10089284238424 -0.83638324302430  0.94342085858586
 1  15.40133342184218  0.28298778377838 -1.47802216021602
 1  15.57354479737974 -2.29732002410241  0.02289083518352
 1  14.94733778447845 -1.75157753335334 -1.75298271337134
 1  16.91626125552555 -1.70753627852785 -1.30375184468447
 1  15.86636183688369  1.58214604830483  0.28004454875488
 1  16.68265271247125  0.15556638153815  1.34950771197120
 1  18.36562750145015 -0.27716426382638 -0.28504184458446
 1  17.71171823632363  1.16018333723372 -1.21402497829783
 1  18.52565335793579  2.23440759845985  0.79808781408141
 1  18.58163532383238  0.53831801280128  1.56057605790579
 1  20.73106801950195  0.34454060226023  0.08117518151815
 1  19.62724683128313  3.00568413031303 -1.01937553095310
 1  21.29266351845185  2.24816146894689 -1.39334069736974
 1  19.97349125352536  1.63058486928693 -2.12555952495250
 1  21.35751172637264  1.39739784888489  2.19087870507051
 1  22.09973167946795  2.09131036073607  0.66155112141214
 1  20.89477920782078  3.02000208350835  1.77850829132913
=======
12 -7.20070064306431  0.63113186128613  0.06636432383238
 6 -4.84655927392739 -1.91097227562756  0.57443397609761
 6 -4.84135406430643  2.85109355665567  1.20420678557856
 6 -9.35213994949495  3.03150864636464 -0.42683554325433
 6 -9.58875918961896 -1.76483199419942 -0.97614404350435
 7 -5.22454587918792  0.48971878997900  0.75755617391739
 6 -4.39513922002200 -0.56193601560156  0.81950997419742
 6 -2.94797380278028 -0.29276870257026  1.21025137933793
 6 -3.14233767216722  1.13048571687169  1.66843757445745
 6 -4.44587158205821  1.51380212901290  1.17200423032303
 6 -2.99262434453445  1.32898518661866  3.22284369326933
 6 -1.96012947394739 -0.53537879927993  0.08256221452145
 6 -0.47822524512451 -0.32117646484648  0.63240737003700
 6  0.48551968916892 -0.56514002690269 -0.40777615811581
 8  0.18647988808881 -0.88278368596860 -1.62290862256226
 8  1.71864367486749 -0.34132152855286 -0.11876866576658
 7 -7.13006345424543  2.59650524032403  0.29845854135414
 6 -6.08032731173117  3.37314829062906  0.83421695529553
 6 -6.51067832093209  4.81010529992999  0.75380606780678
 6 -7.79267197419742  4.83110374187419  0.30841923322332
 6 -8.14739901150115  3.39051824712471  0.01247379367937
 6 -5.59185714241424  5.89797226312631  1.11614637513751
 6 -8.62324012161216  5.98496953065307  0.09326631203120
 6 -8.65945983728373  7.14358047664766  0.89008525832583
 7 -9.17030930353035  0.61326418751875 -0.51576561026103
 6 -9.89663592329233  1.74185413851385 -0.71544786888689
 6 -11.16751584818482  1.39853819291929 -1.13981570107011
 6 -11.18988139203920 -0.07053168906891 -1.23758247224723
 6 -9.97668334903490 -0.47183915821582 -0.82287730383038
 6 -12.38960778447845  2.37148771977198 -1.46573334813481
 6 -12.32539708600860 -0.85051246134613 -1.82999380788079
 6 -12.03012050045004 -1.24037644884488 -3.31278639723972
 7 -7.27919738803880 -1.36412602620262 -0.10570524752475
 6 -8.24790503030303 -2.28579375147515 -0.57930288548855
 6 -7.77933407900790 -3.56955522302230 -0.58841611891189
 6 -6.56955083918392 -3.50250458745875 -0.03630536243624
 6 -6.19625222162216 -2.13843212451245  0.13647645184518
 6 -8.55560302770277 -4.78601144354435 -0.81758023642364
 6 -5.28534300460046 -4.32036592009201  0.15365823842384
 8 -5.18799763766377 -5.46920140354035  0.09485651635164
 6 -4.14486806620662 -3.24525031483148  0.54313417871787
 6 -3.61397202810281 -3.67477269856986  1.95715608850885
 8 -3.77949955055506 -3.13950068626863  2.99561224232423
 8 -2.74115530923092 -4.67717243964396  1.69352793369337
 6 -2.01018160606061 -5.18407263636364  2.82450738623862
 6  2.76076858855886 -0.68635643024302 -1.10618181858186
 6  4.15263735273527 -0.42738091439144 -0.48005815481548
 6  5.21077456185619  0.35873213861386 -0.94301407410741
 6  5.04776319931993  1.17844049334934 -2.17711187648765
 6  6.48209254205420  0.28091994219422 -0.15883236843684
 6  7.67515505340534 -0.24136448334833 -0.96644359485949
 6  9.07630950355036 -0.06177130753075 -0.14232604540454
 6  10.25844646914691 -0.61334840654065 -0.86201717221722
 6  10.06832353255325 -2.14244518061806 -1.15971943694369
 6  11.48135101200120 -0.29640342114211  0.01492236083608
 6  12.79230413811381 -0.30343439453945 -0.70533055595560
 6  13.93768323672367 -0.08002920572057  0.16492355985599
 6  15.39052517741774 -0.20690441954195 -0.48553679347935
 6  15.63992566146615 -1.71775940974097 -0.87649726742674
 6  16.47174128002800  0.43626798679868  0.37449195639564
 6  17.97302189158916  0.37972937133713 -0.19021483608361
 6  18.95821619111911  1.20047826482648  0.65994642764276
 6  20.39762843204320  1.23334366786679  0.12399716291629
 6  20.35254660846085  2.17931622882288 -1.08109910261026
 6  21.30708163896390  1.81466440274027  1.19997536093609
 1 -4.14369585408541  3.44543006440644  1.44647923482348
 1 -10.08107850055005  3.77836867186719 -0.74777016851685
 1 -10.33000629002900 -2.54417375817582 -1.21697835003500
 1 -2.61991844874487 -0.86298461236124  2.01732242344234
 1 -2.42563616881688  1.68018160076008  1.18561921232123
 1 -1.79361381888189  1.25549600250025  3.18520223372337
 1 -3.28872393239324  2.29089314681468  3.60425259065907
 1 -3.62462590529053  0.78269295329533  3.72964537733773
 1 -1.68556104100410 -1.47797775817582 -0.36387029622962
 1 -2.00606227872787  0.25328257865787 -0.62606264586459
 1 -0.06757027442744  0.77326194009401  0.98373877297730
 1 -0.54616241824182 -1.11675619081908  1.30366432163216
 1 -5.96098487388739  6.98935757985799  0.91254696389639
 1 -5.38167515691569  5.77103046614661  2.29522581968197
 1 -4.61928588458846  5.90199136553655  0.76291946754675
 1 -9.15265731823182  6.12099824792479 -0.99785001320132
 1 -8.94698591449145  8.12569330823082  0.78694831663166
 1 -7.97862732853285  6.74273067256726  1.94604298979898
 1 -12.26177028212821  3.23138346434643 -2.10341334603460
 1 -13.25938560776078  1.83596748794879 -1.79587077857786
 1 -12.96846857795780  2.69767842254225 -0.47105834983498
 1 -12.47754253265327 -1.81876132123212 -1.22619757465747
 1 -13.35501422032203 -0.49323606040604 -1.71286681418142
 1 -13.04687103970397 -1.47992267846785 -3.65134501900190
 1 -11.58827239143914 -0.34101863946395 -3.83622711841184
 1 -11.36190246954695 -2.29043391049105 -3.25357397739774
 1 -8.85628523152315 -4.86171691459146 -2.10649391349135
 1 -7.87880724552455 -5.63496350055006 -0.62582219521952
 1 -9.42366225112511 -4.55132015331533 -0.29790161276128
 1 -3.42111280718072 -3.29877312801280 -0.27288255975598
 1 -1.57541570807081 -4.37596403610361  3.55170808610861
 1 -2.86375598419842 -5.84302592019202  3.34896773567357
 1 -1.29945805730573 -5.87889716291629  2.31891584448445
 1  2.83441274537454 -1.69077091299130 -1.40964492949295
 1  2.56620409800980 -0.13803952435244 -2.13397654985499
 1  4.11105201080108 -0.74138635383538  0.56055927192719
 1  4.17555651915191  1.10015872627263 -2.62678104780478
 1  5.49123453515351  2.19895015391539 -2.00980744894489
 1  5.78012532013201  0.91334244174417 -2.93581231223122
 1  6.78037009990999  1.35283928392839  0.01517416021602
 1  6.45889000840084 -0.31619965736574  0.88641835853585
 1  7.59318670337034 -1.31970120532053 -1.21900322392239
 1  7.65635807170717  0.44324753285328 -1.91423434703470
 1  8.84185623722372  0.92066995199520  0.17053468566857
 1  8.80187867656766 -0.67619312551255  0.79400726442644
 1  10.27333488488849 -0.17481494379438 -1.76272116161616
 1  9.32944793029303 -2.08924690119012 -2.00056598139814
 1  10.99708226392639 -2.44672145604560 -1.50908515241524
 1  9.61629451545155 -2.77928987098710 -0.35125456515652
 1  11.29606728762876  0.69793202340234  0.31038252575258
 1  11.45769882328233 -0.92489845114511  0.94936555815582
 1  13.14431775067507 -1.50615877707771 -0.88779644724472
 1  12.79676342884288  0.35420611161116 -1.66037939923992
 1  13.71316275297530  0.93837639363936  0.59023636663666
 1  14.09606235933593 -0.62784238893889  0.98351486798680
 1  15.31821511001100  0.30940042504250 -1.25107946594659
 1  15.71418886178618 -2.35276556865687  0.04833337943794
 1  14.78363141384138 -2.09381175677568 -1.57603501860186
 1  16.64641427082708 -1.80808633353335 -1.27233870337034
 1  16.21398659935993  1.44229206290629  0.50564710901090
 1  16.34235868306830 -0.13925310041004  1.27956071727173
 1  18.23913485218522 -0.74663121052105 -0.48119145954595
 1  17.63705076957696  0.81576889578958 -1.22263583938394
 1  18.52406319891989  2.22153631133113  0.80711871717172
 1  18.88940610091009  0.79566374737474  1.58269827012701
 1  20.75972088478848  0.07246339453945 -0.46760969696970
 1  19.94827893449345  3.33476703860386 -1.00267386078608
 1  21.27238149024902  2.34540119291929 -1.68360972427243
 1  19.60057396179618  1.82909472027203 -1.90250721972197
 1  21.23033900910091  1.51079918901890  2.27558717591759
 1  22.38332003830383  1.84530576027603  0.80149511581158
 1  20.96416614651465  2.87894797809781  1.29709014951495
>>>>>>> 8e03b5b5abfc0030b3aa597dc0de36371bfbd096

