%nproc=4
%Mem=3GB
# td=(NStates=1) iop(3/107=0140000000,3/108=0140000000) CAM-B3LYP/6-31G(d,p) 

TD

0 1
12 -7.16872156385639  0.58439682318232  0.11711808180818
 6 -4.78852766926693 -1.97280451105111  0.36902230463046
 6 -4.85190122072207  2.81878059595960  1.25866597179718
 6 -9.32807957245725  3.10124767776778 -0.41070354565457
 6 -9.58999509750975 -1.68818058375838 -0.84405121002100
 7 -5.13442047324733  0.41978806940694  0.64551237523752
 6 -4.36130837813781 -0.69830097329733  0.67138503320332
 6 -2.97327354795480 -0.41665006300630  1.29638530763076
 6 -3.04195742264226  1.07949665126513  1.80966724602460
 6 -4.35097533223322  1.50260491159116  1.28542293619362
 6 -2.89294547534753  1.14080689999000  3.40347566216622
 6 -2.02869859955996 -0.60994698389839  0.19334314461446
 6 -0.52145785498550 -0.48253150115012  0.52777615991599
 6  0.43957588078808 -0.68758538043804 -0.60870066016602
 8  0.04438465526553 -1.04013779147915 -1.68417581068107
 8  1.63601219961996 -0.52024196259626 -0.19296468406841
 7 -7.08401604500450  2.60810402030203  0.40256118021802
 6 -6.02029217301730  3.29259302670267  0.86376225232523
 6 -6.40950585898590  4.76504336793679  0.84200245894589
 6 -7.70797558285829  4.78017982318232  0.31463759015902
 6 -8.05576510401040  3.40908784758476 -0.07085908730873
 6 -5.48340037393739  5.91334080778078  1.19751990719072
 6 -8.40885089308931  6.05957622722272 -0.06696608410841
 6 -8.35439384938494  7.17218636833683  0.69392345164516
 7 -9.12833187428743  0.63082007640764 -0.53408998289829
 6 -9.76699418571857  1.79604292859286 -0.60608342184218
 6 -11.03045699839984  1.52766221072107 -1.14983984368437
 6 -11.16417590479048  0.15086263206321 -1.22477250555056
 6 -9.93244084768477 -0.32593278667867 -0.88060026132613
 6 -12.12458339603960  2.57921316271627 -1.45641509420942
 6 -12.36094988788879 -0.69653577737774 -1.70396972757276
 6 -12.20665257415742 -1.14498469076908 -3.25082573377338
 7 -7.25311827422742 -1.37555239093909 -0.18712138723872
 6 -8.29972429872987 -2.19560810631063 -0.49151073097310
 6 -7.87478951875188 -3.56826737813781 -0.52798309810981
 6 -6.46308409890989 -3.52535551765177 -0.18221030273027
 6 -6.20675440714071 -2.15930388618862  0.00699253465347
 6 -8.70079241874187 -4.84928102650265 -0.83620700380038
 6 -5.38847431033103 -4.36740030343034  0.18375334943494
 8 -5.25179617191719 -5.62302915991599  0.39150509910991
 6 -4.22450695329533 -3.37947539493949  0.48418674027403
 6 -3.47435161196120 -3.65162310501050  1.80576654515452
 8 -3.77174995839584 -3.14818217611761  2.82601595979598
 8 -2.74074942774277 -4.76581520002000  1.69511854935494
 6 -2.17950690769077 -5.20564577047705  2.99967736813681
 6  2.75670199059906 -0.64171246014601 -1.20924444164416
 6  4.04151503670367 -0.43038830673067 -0.55947851065107
 6  5.12387787908791  0.37516404440444 -0.99168204520452
 6  5.07327105270527  1.09196687198720 -2.32996713171317
 6  6.45427170587059  0.41860247624762 -0.27986851125113
 6  7.74931638423842 -0.14190273827383 -1.08801913061306
 6  8.97502521412141  0.07741592549255 -0.20417652005201
 6  10.31191665226523 -0.43237490069007 -0.82809852985299
 6  10.10524380098010 -1.90138801870187 -1.25180214621462
 6  11.42645730953095 -0.24483937503750  0.07358939643964
 6  12.73226096159616 -0.36552658615862 -0.65799330443044
 6  13.94642591439144 -0.00025573987399  0.18880529212921
 6  15.32152814381438 -0.23249233283328 -0.48899455195520
 6  15.59258552955296 -1.59846823512351 -1.00689251555155
 6  16.49606659935993  0.35598211551155  0.47576231093109
 6  17.80395798349835  0.35589931953195 -0.21450797779778
 6  18.76161658025802  1.10942902140214  0.69906316301630
 6  20.26311911631163  1.36787622012201  0.24151085708571
 6  20.31802464826483  2.20153745884588 -1.07842253815382
 6  21.09971503850385  1.87347904780478  1.33929786978698
 1 -4.08303866736674  3.54314756615662  1.67451354715472
 1 -9.96862898619862  3.89615188968897 -0.47983250945095
 1 -10.41238566266627 -2.36591212631263 -1.10633845324532
 1 -2.73571085828583 -1.08441864456446  2.18138462916292
 1 -2.25243871017102  1.60592265336534  1.24447809680968
 1 -1.88168125452545  0.95684479087909  3.73990432783278
 1 -2.67665477457746  2.27759698249825  3.67497551975198
 1 -3.77894069456946  0.62281743604360  3.91954363956396
 1 -2.06787190619062 -1.51622229302930 -0.34473248034803
 1 -2.04690105910591  0.07497511731173 -0.65890262486249
 1 -0.54762019071907  0.41254084138414  0.95589945294529
 1 -0.25185360566057 -1.22447321392139  1.39260271857186
 1 -5.50295447314732  6.80882839483948  0.66677650895090
 1 -5.67435890719072  6.17776065746575  2.16135814831483
 1 -4.33779862446245  5.63581784978498  1.08455918851885
 1 -9.19711997179718  6.02263564556456 -0.94514586728673
 1 -8.95275433913391  8.09512923392339  0.41338111381138
 1 -7.79323725582558  7.18316515291529  1.62719167946795
 1 -11.91368184118412  3.26323547064706 -2.39519535103510
 1 -12.93230052775277  1.75455419781978 -1.44546027422742
 1 -12.30446147884788  3.18354568866887 -0.44516495599560
 1 -12.41253321822182 -1.47305822862286 -1.09517301820182
 1 -13.12360465956596 -0.02016472697270 -1.39673542794279
 1 -13.32350754995500 -1.86633029512951 -3.52294325242524
 1 -12.19424983068307 -0.35857432873287 -4.18158713711371
 1 -11.25918075747575 -1.67708873607361 -3.53094137233723
 1 -8.90709532813281 -4.72083858465847 -1.92448851185118
 1 -8.10596498169817 -5.78418437173717 -0.57806776187619
 1 -9.64677885688569 -4.86867531593159 -0.11701397009701
 1 -3.43039055755576 -3.69525613121312 -0.33280101820182
 1 -1.49061244884489 -4.44247646104611  3.34906662426243
 1 -2.82399883718372 -5.36600612551255  3.75977701540154
 1 -1.61716223672367 -6.07095788058806  2.70148350945095
 1  2.70395845064506 -1.75246186898690 -1.41763321202120
 1  2.66683312461246  0.08266635143514 -2.15685674317432
 1  4.32173265996600 -0.99921833563356  0.41264266446645
 1  4.13684899639964  1.01218676137614 -2.62748323402340
 1  5.24089102130213  2.24620504440444 -2.16697413581358
 1  5.72543211171117  0.75024621552155 -2.94341059795980
 1  6.66768495239524  1.47457743834383 -0.07645803190319
 1  6.37376524862486 -0.15402273897390  0.78432462796280
 1  7.58070019281928 -1.02210288328833 -1.49034379157916
 1  7.75519807830783  0.66139524252425 -1.90763158605861
 1  9.14848089238924  1.16648614611461  0.05267769586959
 1  8.96657977877788 -0.41266961966197  0.76124224762476
 1  10.43794842664266  0.09817596539654 -1.68966412441244
 1  9.13827343644364 -1.99066735023502 -1.78903728562856
 1  10.93442258285829 -2.17884128342834 -1.84621998009801
 1  10.20562275937594 -2.49335345004500 -0.24677207090709
 1  11.25084672627263  0.70834726812681  0.71976974777478
 1  11.56554414991499 -1.28094939253925  0.85035135523552
 1  12.74254220672067 -1.44999241854185 -1.01887415891589
 1  12.88684451435143  0.15413034903490 -1.58599293299330
 1  13.83539495979598  1.03805916921692  0.68406323502350
 1  13.92877118771877 -0.72274865376538  1.05324769876988
 1  15.35324572597260  0.55628902590259 -1.36317758655866
 1  15.61872566936694 -2.42669201040104 -0.27815595109511
 1  14.87023866826683 -1.95956047604761 -1.72937431093109
 1  16.44218249784979 -1.45700659765977 -1.60481699499950
 1  16.31692496599660  1.30922925662566  0.81475739203920
 1  16.32102618041804 -0.02651893669367  1.44308280298030
 1  18.18891562926293 -0.76490300430043 -0.20287048264826
 1  17.69870718031803  0.69009790389039 -1.42167791139114
 1  18.22818187508751  2.10712198019802  0.96385833263326
 1  18.63106906940694  0.43019785928593  1.54566781228123
 1  20.64212404470447  0.32974397199720  0.17769366156616
 1  20.05482230073007  3.27091786828683 -0.95222740744074
 1  21.22069587038704  2.12222336443644 -1.54129211041104
 1  19.63423182078208  1.88092838303830 -1.77740612501250
 1  21.18154200770077  1.16138177907791  2.27319098789879
 1  22.26955484828483  1.65835630633063  1.12270892449245
 1  20.85027510601060  2.85101121832183  1.74339147584758

