%nproc=4
%Mem=2GB
# td=(NStates=1) CAM-B3LYP/6-31G(d,p) 

TD

0 1
<<<<<<< HEAD
12 -7.16822739573957  0.54351309940994  0.11504919231923
 6 -4.82270688868887 -1.99867104550455  0.47733426612661
 6 -4.73874380328033  2.83342178947895  1.11616798169817
 6 -9.46336107160716  3.11215671117112 -0.38856171587159
 6 -9.52351266496650 -1.63967947894789 -0.77715414451445
 7 -5.10596402100210  0.38440825892589  0.64246466476648
 6 -4.33904361046105 -0.68240806280628  0.71149917311731
 6 -2.91240024542454 -0.43151257695770  1.23830418461846
 6 -3.03328676707671  1.02172484078408  1.64845557625763
 6 -4.38083507840784  1.47120786958696  1.23615064496450
 6 -2.94907999009901  1.22467475557556  3.13549495839584
 6 -1.89238269926993 -0.54830009140914  0.08887284558456
 6 -0.33075049764976 -0.30833518071807  0.48667279657966
 6  0.53124426162616 -0.63316682958296 -0.67072245274527
 8  0.11149238933893 -1.01517692529253 -1.76893322502250
 8  1.76894870537054 -0.34005140154015 -0.33960074897490
 7 -7.19928037593759  2.61669725952595  0.37158585408541
 6 -6.04366364536454  3.30887186298630  0.75402893649365
 6 -6.40692794589459  4.76163045244525  0.80631131833183
 6 -7.71890459745975  4.86352698419842  0.30383877517752
 6 -8.15037930953095  3.55172436773677  0.08143068936894
 6 -5.44033198989899  5.95750821672167  0.95583034353435
 6 -8.45539333693369  6.10954198789879 -0.07733074767477
 6 -8.49586347764776  7.12095821442144  0.83726997679768
 7 -9.06123839643964  0.65793865496550 -0.52508654235424
 6 -9.84004026372637  1.78198815191519 -0.59178550265026
 6 -11.27601669826983  1.43879221832183 -0.96995871537154
 6 -11.28756116001600  0.07023238733873 -1.15300401440144
 6 -9.92496817751775 -0.36649862416242 -0.80442545864586
 6 -12.26818564226423  2.56248681968197 -1.28531530633063
 6 -12.48138268456846 -0.77671508160816 -1.62196300480048
 6 -12.26528401680168 -1.14773718491849 -3.23642876147615
 7 -7.16316578487849 -1.37692730633063 -0.18813349034904
 6 -8.28155839563956 -2.25300047214721 -0.48809376457646
 6 -7.83699984558456 -3.57187545504550 -0.55383266056606
 6 -6.51135501960196 -3.58111244824482 -0.11361309320932
 6 -6.18260085648565 -2.17719600090009  0.15002780698070
 6 -8.79289675707571 -4.72333517591759 -0.87271574997500
 6 -5.35886035633563 -4.42070595409541  0.25451832443244
 8 -5.24139297719772 -5.53893837723772  0.21550858155816
 6 -4.14717829722972 -3.36652244204420  0.53025289058906
 6 -3.47100773167317 -3.67926314761476  1.86397677057706
 8 -3.79027062766277 -3.17054379057906  2.97557023812381
 8 -2.73428462216222 -4.74658938133813  1.69804838573857
 6 -2.11353194109411 -5.37559178827883  2.90485542104210
 6  2.75589810151015 -0.64740253485349 -1.26925812621262
 6  4.09445153415342 -0.47732590889089 -0.72996314531453
 6  5.13365685008501  0.38915518091809 -1.02152192489249
 6  5.05095351835184  1.28390103940394 -2.24798896419642
 6  6.38402273507351  0.42075392559256 -0.30416690189019
 6  7.62730026792679 -0.23922426932693 -1.02110906140614
 6  8.89316118871887 -0.13422855325533 -0.14650646344634
 6  10.25112573707371 -0.58541561326133 -0.80013098359836
 6  10.19672637283728 -2.18696963306331 -1.13099656465647
 6  11.45018789568957 -0.28627240804080  0.06518738733873
 6  12.80622553025303 -0.62562661376138 -0.60731075397540
 6  14.05852532093209 -0.13531473427343  0.25347241474147
 6  15.38434455935594 -0.23148687778778 -0.38630687048705
 6  15.77121879077908 -1.68369600340034 -0.88045766346635
 6  16.43938804470447  0.34989934993499  0.42660716791679
 6  17.88236282568257  0.32172357075708 -0.07694350895090
 6  18.77349771927193  1.33224144114411  0.76984741774177
 6  20.24049271847185  1.49950028352835  0.28564332753275
 6  20.26043739753975  2.07712600980098 -1.16102709540954
 6  21.12445337613762  2.28580151645165  1.32533789718972
 1 -3.95754723922392  3.67119264066407  1.56210079697970
 1 -10.17786817951795  3.77979881488149 -0.76329172067207
 1 -10.05100839023902 -2.55813515431543 -1.10746739893990
 1 -2.62657911481148 -1.19527784168417  1.96598728992899
 1 -2.17620122532253  1.54145772837284  1.16492714311431
 1 -2.00826528402840  0.75850630353035  3.67657137063706
 1 -3.16219127912791  2.11573563106311  3.62107427282728
 1 -3.79172261496150  0.51503618761876  3.52718513131313
 1 -1.96517900280028 -1.47102706310631 -0.51209511871187
 1 -2.17222889538954  0.13213046344634 -0.51407144674467
 1 -0.07067058445845  0.63385799969997  0.88382878197820
 1 -0.05594339633963 -0.96987150235023  1.35147910311031
 1 -5.96710548594859  6.88756740084008  0.42408811801180
 1 -5.44808179757976  6.48906226932693  2.03920021712171
 1 -4.45422937893789  5.65330649704971  0.65636881248125
 1 -9.18278033053305  5.94219036713671 -0.81685191339134
 1 -9.03636485238524  7.95478621752175  0.53375299709971
 1 -7.91956142194219  7.11916831633163  1.80814920042004
 1 -11.95935004010401  3.34602492849285 -2.25521852655265
 1 -13.24206387558756  1.97070096129613 -1.45301649314932
 1 -12.32481421252125  3.15622427712771 -0.51274251825182
 1 -12.55741051945195 -1.67167661276128 -0.83196815171517
 1 -13.41808052695269 -0.34309104590459 -1.33087861536154
 1 -13.13942029462946 -1.82574726092609 -3.69676956145615
 1 -12.36812037623763 -0.19420395799580 -3.51626512221222
 1 -11.13685996529653 -1.36426129322932 -3.42004062406241
 1 -8.93356295929593 -4.63264400730073 -1.91593485758576
 1 -8.34932429722972 -5.80794079827983 -0.59539915291529
 1 -9.85778566346635 -4.68331335263526 -0.30325214781478
 1 -3.42358305420542 -3.60535378607861 -0.38641391289129
 1 -1.44819298579858 -4.67470391009101  3.41942485778578
 1 -3.03363297189719 -5.71105272287229  3.58488132703270
 1 -1.42230034153415 -6.23716298949895  2.57572152505251
 1  2.83650295439544 -1.67009884578458 -1.64065803080308
 1  2.63755123272327  0.13002728232823 -2.24808796099610
 1  4.32530343594359 -1.16794901010101  0.08610182618262
 1  4.06440540404040  1.22978168856886 -2.53988235793579
 1  5.44410982268227  2.28084834373437 -1.99168563676368
 1  5.75716302390239  0.84957606510651 -2.96034476547655
 1  6.69882194509451  1.49347334733473  0.04083672647265
 1  6.39543366276628 -0.03684172157216  0.62884260096010
 1  7.40773815851585 -1.24499373457346 -1.29201052465247
 1  8.01484392029203  0.44043725182518 -1.86892981658166
 1  9.23352540414041  0.84230211521152  0.11265889808981
 1  8.57811630033003 -0.68383388958896  0.87271513521352
 1  10.41591914331433 -0.04108157045705 -1.69101399089909
 1  9.18735372087209 -2.30138811531153 -1.82675860066007
 1  11.02105466116612 -2.22131891579158 -1.86504074797480
 1  10.09592247824783 -2.87974991699170 -0.35949538923892
 1  11.29160684158416  0.88106033623362  0.15219670717072
 1  11.45755880928093 -0.64145010631063  1.09503012461246
 1  12.95821914081408 -1.59155731693169 -0.82346001360136
 1  12.91130488298830 -0.09029833883388 -1.65378874017402
 1  14.01610304700470  0.92998555455546  0.45995333833383
 1  13.76806956005601 -0.74371397609761  1.13689020552055
 1  15.28039132763276  0.29121860686069 -1.28190254825483
 1  15.74138158105811 -2.42517280938094  0.01579012511251
 1  14.91321437213721 -2.06161853745375 -1.47641505660566
 1  16.77084671407141 -1.60148567346735 -1.43573504300430
 1  16.18653385408541  1.55241307500750  0.80436698099810
 1  16.54641908910891 -0.13283245834583  1.45851861306131
 1  18.27412835153515 -0.58906545394539 -0.13523686408641
 1  17.84723178767877  0.77319463836384 -1.06321989778978
 1  18.21927271987199  2.58446260396040  0.59408741404140
 1  18.77646480678068  0.98929311031103  1.91049104940494
 1  20.64327924062406  0.39592574077408  0.19463652765277
 1  19.77689179577958  3.28656221812181 -1.34520811421142
 1  21.26824107620762  2.27790444324432 -1.46440780408041
 1  19.76505040944095  1.53894570537054 -1.93729069806981
 1  20.98094406960696  1.96230433953395  2.43095271247125
 1  22.23905561186119  2.31146237593759  1.03942890919092
 1  20.73906363626363  3.31975205850585  1.18438887938794
=======
12 -7.08029860286029  0.59821856995700  0.01244893229323
 6 -4.81052567056706 -1.93399457785779  0.72227876057606
 6 -4.81585151405141  2.86333478077808  1.09804616951695
 6 -9.36497123262326  3.15148064356436 -0.39122198189819
 6 -9.50484079777978 -1.76491200220022 -0.98162459155916
 7 -5.10626405100510  0.47756757485749  0.68889930823082
 6 -4.38254796089609 -0.69100892289229  1.00450847404740
 6 -2.93591259665967 -0.37504693039304  1.30564091829183
 6 -3.00628406680668  1.07759042734273  1.77835856655666
 6 -4.40102709760976  1.49568031683168  1.12168919881988
 6 -2.98476355845585  1.25530781888189  3.28515992489249
 6 -1.98001146214621 -0.64912017341734  0.11799575787579
 6 -0.53769119171917 -0.30110445764576  0.47643177247725
 6  0.48216935413541 -0.55277879077908 -0.64046942744274
 8  0.22269350945095 -0.93893930153015 -1.74573090479048
 8  1.71366317681768 -0.25419281568157 -0.23620040894089
 7 -7.06423687158716  2.57313290309031  0.24685338083808
 6 -6.03449272827283  3.35920689648965  0.65676921052105
 6 -6.40204745784578  4.77727201660166  0.75967665486549
 6 -7.66332903990399  4.77931856335634  0.34812320362036
 6 -8.08769304090409  3.46197539283928 -0.00389784348435
 6 -5.41403936063606  5.80559302520252  1.28768352885289
 6 -8.55381317891789  6.01269230293029  0.04672165756576
 6 -8.64452834413441  7.12404852345235  0.96500275007501
 7 -9.11685395799580  0.63425628672867 -0.46387042074207
 6 -9.84960121982198  1.71346129922992 -0.70642696679668
 6 -11.21502059865987  1.48632697179718 -1.17703942344234
 6 -11.31638404230423  0.14803016711671 -1.24779349334933
 6 -9.85067074777478 -0.43591556585659 -0.86808182428243
 6 -12.33218204190419  2.38117868886889 -1.47435421022102
 6 -12.36260080638064 -0.75913332343234 -1.77381819031903
 6 -12.10812830123012 -1.11644405560556 -3.31427654625463
 7 -7.23618308660866 -1.42153176677668 -0.21625630263026
 6 -8.15907614741474 -2.23912908500850 -0.61549650485049
 6 -7.75771191679168 -3.69307757525753 -0.57972524982498
 6 -6.47217110121012 -3.62616695369537 -0.02958469036904
 6 -6.18052064846485 -2.25380366166617  0.16869967416742
 6 -8.65093256065606 -4.85139798219822 -0.90491897029703
 6 -5.24885935623562 -4.34033791729173  0.23021589418942
 8 -5.08587742564256 -5.58343282668267  0.21979901060106
 6 -4.11958553795380 -3.28361415121512  0.66703656895690
 6 -3.50648127902790 -3.65733095439544  1.99289966286629
 8 -3.86760836143614 -3.16288302450245  3.01501418251825
 8 -2.73232442614261 -4.70798552095209  1.86620520142014
 6 -2.25271585948595 -5.18397262636264  3.14540947644764
 6  2.74337684938494 -0.61720951555156 -1.20332153255326
 6  3.99589167816782 -0.38175635193519 -0.59227937693769
 6  5.06501998639864  0.35566183158316 -1.11184095679568
 6  5.06758518151815  1.14527717701770 -2.32928709400940
 6  6.41495582838284  0.54468631883188 -0.32361884708471
 6  7.58380591849185 -0.01901224812481 -1.04973192369237
 6  8.88754062666267 -0.01667679807981 -0.11213302610261
 6  10.14083470797080 -0.52105917761776 -0.86387735823582
 6  10.05569226942694 -2.07647858395840 -1.13255672067207
 6  11.41985486238624 -0.31693547434743 -0.07998713011301
 6  12.70246515421542 -0.50029408050805 -0.76491651455146
 6  13.91030049844984 -0.16181738453845  0.21052812031203
 6  15.38393451835184 -0.14949867896790 -0.49651789158916
 6  15.77887955685568 -1.58049568336834 -1.00587020472047
 6  16.41914602050205  0.28513287328733  0.43952846004600
 6  17.89125371477148  0.39241063946395 -0.28817463206321
 6  18.77640801030103  1.20927914491449  0.70179061206121
 6  20.35993466266627  1.26386672017202  0.24084884808481
 6  20.41741309510951  2.24018231543154 -1.01549254195420
 6  21.11557248804881  1.82749568586859  1.32977834123412
 1 -4.26544802930293  3.70875639703970  1.45118970587059
 1 -10.06799719241924  4.02422325732573 -0.41251664316432
 1 -10.33083637303730 -2.35694503530353 -1.34002065426543
 1 -2.77693415031503 -0.71901021492149  2.12792348354835
 1 -2.26793039823982  1.75041862446245  1.37857850825082
 1 -2.10171462896290  0.86044649754975  3.75380909440944
 1 -3.02535759575958  2.41833589108911  3.59384154955496
 1 -3.76234967766777  0.62808749274927  3.77424983778378
 1 -2.00829331423142 -1.53907386778678 -0.31993590279028
 1 -2.22921459395940 -0.07428017761776 -0.82083212281228
 1 -0.48152166956696  0.76160077397740  0.93661406050605
 1 -0.18528633063306 -1.08179269446945  1.17770172537254
 1 -5.73760253565357  6.89888853295330  1.00941665086509
 1 -5.75400238963896  5.82144550765077  2.52327862496250
 1 -4.21622557855786  5.52548371477148  0.96562973857386
 1 -9.08941099359936  6.04775092319232 -0.86043627182718
 1 -9.40786200210021  7.95480621952195  0.84871449324932
 1 -8.08352781858186  7.23685008450845  1.82453083858386
 1 -12.07445155025503  3.12722304830483 -2.28906191089109
 1 -13.33620328952895  1.94758865006501 -1.70267145864586
 1 -12.63530526162616  2.91182983768377 -0.50685192919292
 1 -12.37454223262326 -1.69157860296030 -1.09986494139414
 1 -13.16819553845384 -0.27497423422342 -1.72721824932493
 1 -12.83849020162016 -1.97625231143114 -3.72709259375938
 1 -12.35538910311031 -0.33005754335434 -4.16588008370837
 1 -11.08368464776478 -1.60898576567657 -3.48706732673267
 1 -8.77465706870687 -5.01679242214221 -1.99153241734173
 1 -8.21757112191219 -5.86840684488449 -0.51353096609661
 1 -9.85854573947395 -4.75170019131913 -0.56671849444944
 1 -3.35226592249225 -3.46300955165517  0.03061779027903
 1 -1.56419458595860 -4.46067250695070  3.56091900720072
 1 -3.09593920252025 -5.41730334793479  3.81869470837084
 1 -1.73438154965497 -6.15228450165016  2.95714966786679
 1  2.51367067116712 -1.67423925982598 -1.61919588458846
 1  2.51264874247425 -0.01798751915192 -2.08660181238124
 1  3.92416332193219 -1.04988720392039  0.43771698769877
 1  4.05159412291229  1.45791450185019 -2.79816818651865
 1  5.67382279397940  2.17867812671267 -2.01025749394940
 1  5.56459376697670  0.59767087458746 -3.11682041304130
 1  6.70700276317632  1.50174417441744 -0.08358571577158
 1  6.39912403180318  0.22758472107211  0.61752146884688
 1  7.63591097579758 -1.21029026422642 -1.20440176377638
 1  7.75791822772277  0.45270847894790 -1.92285520912091
 1  9.32150420202020  0.98332621762176 -0.01676404420442
 1  8.48678716741674 -0.64305981218122  0.83308117181718
 1  10.27900545194519  0.25589812751275 -1.78652354185419
 1  9.20368535403540 -2.29489746624663 -1.93922984778478
 1  10.99247180288029 -2.39055583948395 -1.60080432433243
 1  9.96484937093710 -2.68522046404640 -0.38264770447045
 1  11.20794847574757  0.82829505970597  0.36107759525953
 1  11.27657071047105 -1.04097005830583  0.89043966556656
 1  12.70791411031103 -1.66340450165016 -1.08754642224222
 1  12.78186193869387  0.16723741474147 -1.63402676397640
 1  13.80573200990099  1.00319287528753  0.45562290529053
 1  14.03045579867987 -0.91781138583858  0.96518303480348
 1  15.05049833833383  0.56127561256126 -1.21907626562656
 1  15.79185662856286 -2.31862215431543 -0.23698515241524
 1  15.06562961366137 -1.90341271687169 -1.61736915201520
 1  16.88032766216622 -1.46700222512251 -1.23821529102910
 1  16.25740094079408  1.32630046374637  0.99629617391739
 1  16.62481692889289 -0.32590176527653  1.29020178137814
 1  18.04815575427543 -0.51796834423442 -0.56982032243224
 1  17.65941300580058  0.87625494439444 -1.23335691149115
 1  18.34525531813181  2.30081423912391  0.73116112141214
 1  18.63345050535053  0.82319650065007  1.82474247454745
 1  20.68976388908891  0.04718086628663  0.30695775977598
 1  19.82058616521652  3.09114267616762 -0.72579617301730
 1  21.40967521962196  2.21883853665367 -1.35928729202920
 1  19.91496540094010  1.82997480828083 -1.76173314231423
 1  21.24945092029203  0.90795890499050  2.06830644784479
 1  22.18169987628763  2.04046527622762  0.99387435373537
 1  20.83300303020302  2.71629171247125  1.83870431093109
>>>>>>> 8e03b5b5abfc0030b3aa597dc0de36371bfbd096

