%nproc=4
%Mem=2GB
# td=(NStates=1) CAM-B3LYP/6-31G(d,p) 

TD

0 1
12 -7.13909448244824  0.61620036813681  0.10104779217922
 6 -4.86480109810981 -1.97113829222922  0.44104063676368
 6 -4.74775470437044  2.78813726102610  1.19080544544454
 6 -9.41720645614561  3.00959645514551 -0.27488034773477
 6 -9.49677999169917 -1.82278778977898 -0.87450387948795
 7 -5.08752217681768  0.44008382648265  0.67036745504550
 6 -4.39503921002100 -0.64706452845285  0.72981100430043
 6 -2.96317532293229 -0.42508193389339  1.21432178637864
 6 -3.00634407280728  0.96461913021302  1.74411514221422
 6 -4.34408140304030  1.43932468126813  1.15827285718572
 6 -3.15793087518752  1.05508779687969  3.31776318521852
 6 -1.97647110811081 -0.59213447484748 -0.00550659235924
 6 -0.51806922952295 -0.41767611481148  0.47953208250825
 6  0.47543868106811 -0.61823533643364 -0.68554393489349
 8  0.16788802890289 -0.87617302490249 -1.82855918761876
 8  1.71055286578658 -0.17489488588859 -0.43871065996600
 7 -6.97281772967297  2.61440703050305  0.20565926142614
 6 -6.01376065506551  3.34488546434643  0.76009954355436
 6 -6.32567982108211  4.76312060146015  0.72864355155516
 6 -7.58608131513151  4.86760739223922  0.25742413371337
 6 -8.03330760236024  3.50929012431243 -0.01457891159116
 6 -5.37916587328733  5.93010547644765  1.15237999849985
 6 -8.48211600920092  6.01695272897290  0.09944693009301
 6 -8.51109500080008  7.14336045464546  0.76506275607561
 7 -9.12521479407941  0.57198005910591 -0.51566560026003
 6 -9.85455171487149  1.81051100420042 -0.57275359945995
 6 -11.20493959055906  1.44530286938694 -0.94292601210121
 6 -11.12566497039704  0.03277864196420 -1.16601531553155
 6 -9.85542122282228 -0.45955793009301 -0.79044406050605
 6 -12.32250107380738  2.40497106810681 -1.14140091489149
 6 -12.24140868716872 -0.89989739983998 -1.62383319181918
 6 -12.36996448484848 -1.15130754195420 -3.21941706030603
 7 -7.21738120642064 -1.35614522812281 -0.17044172117212
 6 -8.23948418821882 -2.23118829092909 -0.50433538873887
 6 -7.81377752335233 -3.58002627012701 -0.51520879817982
 6 -6.55125901000100 -3.51310564756476 -0.16268800070007
 6 -6.17737033343334 -2.11972025332533  0.08493129732973
 6 -8.65034250165016 -4.81902474487449 -0.77064554295430
 6 -5.38681315161516 -4.32348623212321  0.21199407200720
 8 -5.17812665056506 -5.50922540594059  0.34074110481048
 6 -4.16278985838584 -3.32524831463146  0.63078294359436
 6 -3.56450708160816 -3.65283050435043  2.01713208610861
 8 -3.77031863246325 -2.99944668086809  3.00476315741574
 8 -2.65196639033903 -4.65965068746875  1.85182376327633
 6 -2.06869745764576 -5.05968019711971  3.06736167166717
 6  2.73932644434443 -0.49539733433343 -1.38124932533253
 6  4.14308639763976 -0.46471464776478 -0.74021417041704
 6  5.16173965836584  0.27335360076008 -1.21739151185118
 6  5.12791121412141  1.13743639293929 -2.40376454175418
 6  6.44648898169817  0.43449529972997 -0.33059954515452
 6  7.64520205810581 -0.03567391429143 -1.16441339183918
 6  8.93051492409241  0.15942081168117 -0.40972278507851
 6  10.17504812931293 -0.60823789548955 -1.08502947344734
 6  9.97709440964096 -2.07023795989599 -1.40982444744474
 6  11.46946982388239 -0.42340612141214 -0.27643677507751
 6  12.85178008570857 -0.62107615871587 -0.80003002590259
 6  13.97390685908591 -0.16829803260326  0.20764783228323
 6  15.38249437433743 -0.24574830393039 -0.50209844964496
 6  15.71848351725172 -1.77206484028403 -0.76381599929993
 6  16.34536864276428  0.32580694069407  0.52229673687369
 6  17.75292988238824  0.57202860126013 -0.03738955355536
 6  18.79414978447845  1.27345556255626  0.88748918191819
 6  20.24355302450245  1.42986331983198  0.54748951215122
 6  20.36843819761976  2.07341563876388 -0.91084207690769
 6  21.00861179197920  2.00251318761876  1.62358772217222
 1 -4.18755023952395  3.57502302370237  1.78553314021402
 1 -10.15114550725072  3.85241607660766 -0.26183157465747
 1 -10.26091938133813 -2.66936627742774 -1.12174882708271
 1 -2.66551300820082 -1.10746906080608  1.91260195139514
 1 -2.17087069226923  1.62198578117812  1.41131178157816
 1 -2.27430188768877  0.42354280718072  3.78105181868187
 1 -3.17641270127013  1.99654371187119  3.81651381678168
 1 -3.90524396709671  0.34581926592659  3.65094750755076
 1 -2.08452093699370 -1.56197615801580 -0.46823073227323
 1 -2.23364503700370  0.12463971437144 -0.91339137873787
 1 -0.18773229062906  0.36633124702470  1.08878927802780
 1 -0.42345014701470 -1.22222673787379  1.20837479267927
 1 -5.60526930233023  6.79219786388639  0.38637434663466
 1 -5.53421041044104  6.33439680278028  2.27541383848385
 1 -4.41192514851485  5.72480364676468  0.86567974357436
 1 -9.35226727922792  5.72357850595060 -0.66360658885889
 1 -9.17180839673967  8.02772351125112  0.69933955575558
 1 -7.95269473527353  7.16537293679368  1.82350073557356
 1 -12.12839694479448  2.96907723372337 -1.97543054775478
 1 -13.17740740994099  1.87279117031703 -1.41319251075107
 1 -12.67569930103010  3.08649730443044 -0.14678592259226
 1 -12.04707948634864 -2.00626007110711 -1.17049200410041
 1 -13.14293301220122 -0.44120085688569 -1.20868639613961
 1 -13.02546889948995 -1.95441012721272 -3.39838972347235
 1 -12.57295085928593 -0.27260179777978 -3.80260375607561
 1 -11.28135441474148 -1.55318018511851 -3.52524114411441
 1 -8.78294789778978 -4.97896863976398 -1.88300156425643
 1 -8.20651001580158 -5.68868887308731 -0.35758537153715
 1 -9.74350423532353 -4.72256727802780 -0.14508633123312
 1 -3.49351004690469 -3.50122337303730 -0.29720499199920
 1 -1.57825599209921 -4.20625706540654  3.57036995229523
 1 -2.96934654325433 -5.45453707130713  3.61934477337734
 1 -1.37717582908291 -5.73898317151715  2.76930088298830
 1  2.55352465656566 -1.55337717361736 -1.85957992299230
 1  2.75857333493349  0.29903418301830 -2.28295144734473
 1  4.37933883948395 -1.26604882008201  0.12160537653765
 1  3.95139410291029  1.09459817021702 -2.82150051975198
 1  5.46812222392239  2.26044630353035 -2.29818628682868
 1  5.78448575617562  0.49145025252525 -2.94154288528853
 1  6.62080414331433  1.50519451945195 -0.27628498569857
 1  6.28843296269627 -0.19829786718672  0.66781649834984
 1  7.27796518121812 -0.89969920512051 -1.51200252385238
 1  7.54388682458246  0.54612782088209 -2.06386931053105
 1  9.15840789238924  1.16840472547255 -0.09599196699670
 1  8.76771526022602 -0.39690519671967  0.54287215091509
 1  10.39455700710071 -0.01581904420442 -1.95287017651765
 1  9.02374736023602 -2.17816579307931 -2.07501342614261
 1  10.51336389208921 -2.63771055495550 -2.28334257815782
 1  9.78889177517752 -2.62902484448445 -0.49966940664066
 1  11.24487216811681  0.71015324552455  0.34690617811781
 1  11.38493154655466 -1.15514147544755  0.64037465906591
 1  13.07915123402340 -1.72253041424142 -1.09389705730573
 1  12.87063081558156 -0.13754306330633 -1.77063042434243
 1  13.79260069676968  0.95907846384638  0.62277962096210
 1  13.96080883398340 -0.75583518821882  1.01489800630063
 1  15.44470775927593  0.42603208820882 -1.35105946394639
 1  15.62590003290329 -2.32094238633863  0.24772331843184
 1  14.80662371307131 -2.18119049464946 -1.43513092819282
 1  16.61213084248425 -1.89711523642364 -1.31533300280028
 1  16.12952815351535  1.29846768046805  0.77732427672767
 1  16.48580302750275 -0.23237241234123  1.45260802200220
 1  18.32310324902490 -0.40415696309631 -0.26392973337334
 1  17.83865092959296  1.15612293119312 -0.98338191399140
 1  18.55806659925993  2.21095525322532  0.88054605990599
 1  18.44883204350435  0.86185036603660  1.90526052635264
 1  20.42797771047105  0.28744489268927  0.40215727972797
 1  19.79102320892089  3.01102466436644 -0.74408800220022
 1  21.42038629072907  2.01101775457546 -1.25842720602060
 1  19.72523642804281  1.56492830363036 -1.70651762076208
 1  20.90015599079908  1.51739984908491  2.57787740494049
 1  22.03471517781778  2.01344257395740  1.19616458275828
 1  20.67288701860186  3.16003608690869  1.76684712521252

