%nproc=4
%Mem=2GB
# td=(NStates=1) CAM-B3LYP/6-31G(d,p) 

TD

0 1
12 -7.13320389338934  0.58067681578158  0.08613630103010
 6 -4.83898851685169 -1.90438161656166  0.52719925262526
 6 -4.79469939883988  2.80245869316932  1.10313667856786
 6 -9.37125186068607  3.15044053955396 -0.35120798049805
 6 -9.40800111381138 -1.62567807880788 -0.91010743984398
 7 -5.09649307390739  0.46007582568257  0.71205162346235
 6 -4.26663636973697 -0.65561538353835  0.83292131533153
 6 -2.93986299169917 -0.40445987168717  1.34018437263726
 6 -2.99828326672667  1.07833050135014  1.76292702340234
 6 -4.34371136603660  1.55722647144714  1.21429845974597
 6 -3.04445952805281  1.15501778987899  3.20390179907991
 6 -1.91490495149515 -0.76428168956896  0.26784074237424
 6 -0.47698512111211 -0.63906825402540  0.63578770807081
 6  0.46196733393339 -0.67752126502650 -0.56445182568257
 8  0.23801504160416 -1.02458786638664 -1.63228956065607
 8  1.78606041654165 -0.35965336173617 -0.17126391529153
 7 -7.06403685158516  2.62053764356436  0.26844554005401
 6 -6.08342762176218  3.42343331913191  0.77615114871487
 6 -6.43078033113311  4.76017030643064  0.79348003520352
 6 -7.66460916791679  4.89075970747075  0.28960735203520
 6 -8.05845011661166  3.47435663096310  0.04368691499150
 6 -5.52764072077208  5.95870833673367  1.15840060056006
 6 -8.55656345394539  6.04580561426143  0.12111909730973
 6 -8.41681557285729  7.18897501610161  0.85802205200520
 7 -9.14932720532053  0.72821568266827 -0.51643567726773
 6 -9.91626788648865  1.80938089118912 -0.63018934303430
 6 -11.16769586618662  1.46649498859886 -1.19812153165317
 6 -11.19524192809281  0.11884724882488 -1.45504421842184
 6 -9.92219790049005 -0.36387836213621 -0.97774279037904
 6 -12.23395221892189  2.44420499149915 -1.48566534133413
 6 -12.30179472577258 -0.77037444754475 -1.93202401090109
 6 -12.12321981038104 -1.04020643184318 -3.50923604220422
 7 -7.11828129642964 -1.33523313691369 -0.05586026302630
 6 -8.21985222502250 -2.18217338943894 -0.53054801000100
 6 -7.73102924852485 -3.62312057955796 -0.55458273557356
 6 -6.48901278537854 -3.54343868086809 -0.09913164506451
 6 -6.19224182058206 -2.22190047134713  0.16727953215322
 6 -8.49453692109211 -4.87720056245625 -1.01242972137214
 6 -5.39333380368037 -4.45799968346835  0.28839171177118
 8 -5.08889772767277 -5.59841432483248  0.24731176187619
 6 -4.21090466986699 -3.40115590539054  0.64768463376338
 6 -3.58152878377838 -3.72620784208421  1.96628700160016
 8 -3.90087168776878 -3.15212194839484  3.03766644774477
 8 -2.69250044374437 -4.71613633603360  1.87931651255126
 6 -2.13094368226823 -5.14765899499950  3.02758769426943
 6  2.74367687938794 -0.64008180278028 -1.22228342874287
 6  4.06646873587359 -0.52451062736274 -0.53460360936094
 6  5.03342682708271  0.31038730413041 -0.81673144584458
 6  5.03063148614861  1.28237088638864 -2.02668683398340
 6  6.37768210101010  0.42209405960596 -0.11863834903490
 6  7.59086662456246 -0.16269661656166 -0.85143209370937
 6  8.85679755235524 -0.13685881628163 -0.15510732353235
 6  10.01385200970097 -0.69330640234023 -0.92536350685068
 6  9.94688138833883 -2.17932886898690 -1.27301076607661
 6  11.25779865676568 -0.40152393319332 -0.14947407880788
 6  12.72627753545354 -0.51296534763476 -0.75182520542054
 6  13.93156262466247 -0.16609781258126  0.13553062056206
 6  15.33833995889589 -0.23068679777978 -0.47464570437044
 6  15.77840950985098 -1.60302793659366 -1.00520013771377
 6  16.47702180808081  0.46384074407441  0.42490699789979
 6  17.86666125552555  0.66872827122712 -0.21981779637964
 6  18.75424579407941  1.45034325132513  0.62863329632963
 6  20.17742641184118  1.41957229072907  0.06855161836184
 6  20.35195654945495  2.13598189538954 -1.22999399209921
 6  21.11048197899790  1.98935187148715  1.31827719111911
 1 -4.33784526902690  3.53213873527353  1.62849743664366
 1 -10.03358375107511  4.06670750575058 -0.38094348584859
 1 -10.01300458985899 -2.57996733753375 -1.30417706990699
 1 -2.63335979287929 -0.88474678857886  2.28022871407141
 1 -2.23473707890789  1.61319490209021  1.30334098449845
 1 -2.29693415091509  0.53563401630163  3.61980569406941
 1 -2.91612667266727  2.14726878437844  3.30997316271627
 1 -3.94489793249325  0.71712639663966  3.58242065486549
 1 -2.04999748464846 -1.79816977737774 -0.00257416661666
 1 -2.26261793429343 -0.09603235283528 -0.53394343394339
 1 -0.26386990439044  0.34001861576158  1.15062546164616
 1 -0.07666546854686 -1.24999951515152  1.50042399759976
 1 -6.09402817821782  6.85594423852385  0.52093780298030
 1 -5.56019300870087  6.28281164426443  2.21696799389939
 1 -4.44626858285829  5.64699586598660  0.90210338593859
 1 -9.26833888638864  6.07885403350335 -0.64228445664566
 1 -9.00671188708871  7.97718845774577  0.69600922272227
 1 -7.46798626442644  7.30515691519152  1.51085947144714
 1 -11.70639474457446  3.16867719371937 -2.16253925862586
 1 -13.13023269246925  1.99111300250025 -1.99065025652565
 1 -12.48791052215222  2.95034368906891 -0.58819006300630
 1 -12.13957873627363 -1.76537598269827 -1.35619057395740
 1 -13.07174589348935 -0.18110484728473 -1.80583611111111
 1 -12.94055040764076 -1.46038072427243 -4.08621850635063
 1 -12.10948451265127 -0.09581411901190 -3.87792128782878
 1 -11.03508978827883 -1.55953082018202 -3.73019163916392
 1 -9.02441204420442 -4.67906864976498 -2.12571583568357
 1 -7.94388375317532 -5.85940594479448 -1.02601221422142
 1 -9.33213309820982 -5.06185120642064 -0.34594641724172
 1 -3.38095879177918 -3.39876312701270 -0.20262553405341
 1 -1.71005917241724 -4.20885732543254  3.55215813111311
 1 -3.02050165876588 -5.59863148074808  3.59291213011301
 1 -1.50301841334133 -6.06664593779378  2.77833178607861
 1  2.63352265636564 -1.78498033393339 -1.55781974697470
 1  2.63321079867987  0.07549182878288 -2.10140329252925
 1  4.43228413401340 -1.26626884208421  0.28380159615962
 1  4.06308527202720  1.37345605600560 -2.40468883858386
 1  5.35886129782978  2.25982624152415 -1.82307877607761
 1  5.81682899049905  0.92437354485449 -2.78210694169417
 1  6.32409447234723  1.38793279327933  0.12502514531453
 1  6.13681780118012 -0.14372240964096  0.86092580928093
 1  7.44470185488549 -1.15437467266727 -1.25966729032903
 1  7.70637307320732  0.40587379547955 -1.78049097269727
 1  9.03431548314831  0.96329421442144  0.21669930213021
 1  8.74622311101110 -0.92758826502650  0.65104296799680
 1  10.04514206560656 -0.04489195149515 -1.83876876637664
 1  9.14173915941594 -2.57566554305431 -1.94221014581458
 1  10.88248080378038 -2.40642742664266 -1.78935317921792
 1  9.87932081808181 -2.81236317831783 -0.33430286998700
 1  11.31793947484748  0.61501373157316  0.22962444994499
 1  11.20886393979398 -0.94605056635664  0.88871949354936
 1  12.95010832973297 -1.51432959415942 -1.27157482508251
 1  12.86216996949695  0.22853354435444 -1.44357771907191
 1  13.73438487518752  0.90417297329733  0.36063340634063
 1  13.98964171727173 -0.52242184688469  1.19329584608461
 1  15.28104139263926  0.36910639563956 -1.49120347834783
 1  15.77567501040104 -2.47818811091109 -0.26498795269527
 1  14.94757780848085 -1.93364574017402 -1.77279469456946
 1  16.59286891629163 -1.71154667956796 -1.55205667516752
 1  16.19203440414041  1.46865469916992  0.84901144544454
 1  16.54046849404940 -0.18073724882488  1.44276703790379
 1  18.31238217691769 -0.39963651105111 -0.44664800520052
 1  17.77123418791879  1.06963428232823 -1.30336391219122
 1  18.46959775237524  2.50903506120612  0.83963196849685
 1  18.71799896019602  0.95395957695770  1.64249424972497
 1  20.61831674437444  0.44216036423642 -0.05223815981598
 1  19.88768287488749  3.14383794569457 -1.20366395979598
 1  21.37482173427343  2.05609226202620 -1.49086044934493
 1  19.88449235363537  1.59283109390939 -1.95898286728673
 1  21.00200617581758  1.36273438253825  2.17068668586859
 1  22.14611631793179  2.00659188888889  1.06354132043204
 1  20.79730946084609  2.89994007730773  1.66157659815982

