%nproc=4
%Mem=2GB
# td=(NStates=1) CAM-B3LYP/6-31G(d,p) 

TD

0 1
12 -7.17666823982398  0.55013376147615  0.07869555695570
 6 -4.87561217921792 -1.96167734613461  0.49203573627363
 6 -4.78370829972997  2.80118856615662  1.21457782268227
 6 -9.33507824332433  3.17719321482148 -0.53968682838284
 6 -9.48340865456546 -1.76868237923792 -0.91024745384538
 7 -5.18266169076908  0.35757557565757  0.83941435973597
 6 -4.40598030413041 -0.73897371937194  0.89615763896390
 6 -2.96793579897990 -0.45914534023402  1.31303165736574
 6 -3.05325876427643  1.04523719201920  1.76150688138814
 6 -4.46589358425843  1.45276602540254  1.16978400830083
 6 -3.10150523262326  1.26408869696970  3.38000940984098
 6 -1.94435789678968 -0.62813807520752  0.24501846014601
 6 -0.43716113871387 -0.51067541474147  0.69503363266327
 6  0.49355049224922 -0.77287079998000 -0.43970935143514
 8  0.26356759685969 -1.17796320392039 -1.54554088578858
 8  1.78490030053005 -0.38530592699270 -0.01199798869887
 7 -7.06120656855686  2.59018460826083  0.30351904740474
 6 -6.05465474447445  3.31375235103510  0.76630016361636
 6 -6.45285253835384  4.75923021242124  0.84638532573257
 6 -7.69663237023702  4.88868950045004  0.38799719101910
 6 -8.16546081768177  3.50773996929693 -0.02039949364936
 6 -5.39602755945595  5.80131259715972  1.29861462196220
 6 -8.64898269586959  5.96732776647665  0.23624060946095
 6 -8.40866475777578  7.12744886348635  0.84747099689969
 7 -9.11455372797280  0.64015687678768 -0.53840787448745
 6 -9.79091535123512  1.78901885498550 -0.82911923602360
 6 -11.10445954255425  1.46239457855786 -1.32764448394839
 6 -11.16350875477548  0.08125348944894 -1.47583629762976
 6 -9.89273495419542 -0.40005197949795 -0.94851986808681
 6 -12.10938976267627  2.43498406940694 -1.64405117991799
 6 -12.28754330063006 -0.65959336943694 -1.90463127162716
 6 -12.22720020842084 -1.18415082628263 -3.36728184678468
 7 -7.20269973827383 -1.38356797039704 -0.26837151415142
 6 -8.21501174097410 -2.27560273237324 -0.66564151935194
 6 -7.76590273587359 -3.56250451795179 -0.65950322762276
 6 -6.46769065316532 -3.55508984598460 -0.12272400430043
 6 -6.20018261466147 -2.16135441674167  0.03250605480548
 6 -8.56775424282428 -4.83716655905591 -1.03804228262826
 6 -5.38526299659966 -4.35824970847085  0.24559743234323
 8 -5.06969580748075 -5.50540502390239  0.17662469316932
 6 -4.33008658805881 -3.31138692849285  0.65591545684568
 6 -3.71529216011601 -3.68923414471447  1.96555692859286
 8 -3.92224382498250 -3.07386412261226  2.98430111121112
 8 -2.72919411311131 -4.72377710011001  1.88861744264426
 6 -2.09069965786579 -5.10209443854385  3.14854979047905
 6  2.77027953965397 -0.52683047764777 -1.02053325372537
 6  4.08006009500950 -0.28783695999600 -0.42870301930193
 6  5.06903038743874  0.49094535993599 -0.96684645734573
 6  5.00897932093209  1.30689333863386 -2.17755192049205
 6  6.43190752355236  0.55627747794779 -0.12654914011401
 6  7.59366690459046 -0.05800614751475 -0.82603955445545
 6  8.93241511411141  0.01196606620662 -0.08964077687769
 6  10.15013563806381 -0.52442951465147 -0.83025399589959
 6  10.06361306150615 -2.01878281438144 -1.30744420942094
 6  11.50955383228323 -0.31333511431143 -0.07409654105411
 6  12.82602751045104 -0.47597164826483 -0.74782480538054
 6  13.87966743514351 -0.05514671747175  0.16479354685469
 6  15.35636176107611 -0.25879960906091 -0.56859509930993
 6  15.71403307220722 -1.61799943374337 -1.01018063576358
 6  16.36716082198220  0.47929228922892  0.24759926712671
 6  17.77181177057706  0.47178857725773 -0.31548736333633
 6  18.78529889938994  1.27947616461646  0.56918735173517
 6  20.25071374057406  1.26576691019102  0.16914167736774
 6  20.47747910171017  1.95240353755376 -1.22924391709171
 6  21.08851978277828  1.87048998529853  1.21006637003700
 1 -4.04144562906291  3.57424294569457  1.43212779967997
 1 -9.88439883258326  4.02653348834883 -1.19465485698570
 1 -10.22572586198620 -2.44533387418742 -1.13491014321432
 1 -2.84260071697170 -1.07196551045104  2.26273696489649
 1 -2.24719832503250  1.72615619821982  1.35907655805581
 1 -2.15987044454445  0.71467192009201  3.81424513801380
 1 -3.11829688968897  2.22147620512051  3.54515668106811
 1 -4.01832527522752  0.86522120612061  3.65891830463046
 1 -2.03085557045704 -1.54491445184518 -0.12377628682868
 1 -2.18013968646865  0.17167441784178 -0.52300233983398
 1 -0.24993851125113  0.39657427132713  1.50845124422442
 1 -0.27959576157616 -1.48133264846485  1.33438739393939
 1 -5.64285306070607  7.01693033713371  0.99276498569857
 1 -5.38090507990799  5.81941530463046  2.49624592169217
 1 -4.42232618861886  5.60398156455646  0.94058723432343
 1 -9.45550760326033  5.81667781588159 -0.44097432563256
 1 -9.11295251115111  7.76949768866887  0.46108573037304
 1 -7.67442690849085  7.41130753025302  1.41250963646365
 1 -11.96905101020102  3.25396572257226 -2.46701970667067
 1 -13.04303397259726  1.90960485168517 -2.02086327782778
 1 -12.29652138323832  2.98138679337934 -0.65932717671767
 1 -12.13540831923192 -1.63117256235624 -1.21372632753275
 1 -13.31489020792079 -0.29635637243724 -1.46366189368937
 1 -12.97829418201820 -1.83007769396940 -3.53163304780478
 1 -12.04539810401040 -0.43121765936594 -4.00803429912991
 1 -11.28272455175518 -1.65965083218322 -3.38594721472147
 1 -9.16575617861786 -4.76853759665967 -2.07260052415242
 1 -7.64209357415741 -5.59318932313231 -1.39864947794779
 1 -9.38039792469247 -5.13659868116812 -0.16543836643664
 1 -3.50043073897390 -3.61902515321532  0.13375810431043
 1 -1.80244841134113 -3.89266570627063  3.68123103840384
 1 -2.68233784238424 -5.26819843744375  4.01307414631463
 1 -1.43671178267827 -5.92780205340534  2.89865381828183
 1  2.70757006110611 -1.64769660556056 -1.18254221922192
 1  2.48052553015302  0.05559983958396 -2.06788994119412
 1  4.20787169276928 -0.87080929612961  0.52920613661366
 1  4.00225918941894  1.20880959135914 -2.70818918861886
 1  5.13653906560656  2.43151341024102 -1.93071954015402
 1  5.73637094469447  1.05750685818582 -2.82194092509251
 1  6.59460152305230  1.67884188418842  0.05927857065707
 1  6.51281540094009  0.16519848244824  0.91462117881788
 1  7.29624700940094 -1.09663889908991 -1.07287861146115
 1  7.63533596949695  0.43561676977698 -1.65330825442544
 1  9.09163121472147  0.96531441644164  0.07211484368437
 1  8.97905639433943 -0.58899440564056  0.92130999469947
 1  10.35192274367437 -0.02663012531253 -1.91858674817482
 1  9.19394437993799 -2.03627160366037 -2.11868779357936
 1  11.13149570527053 -2.40302708660866 -1.46274051795180
 1  9.81953483948395 -2.70331227322732 -0.41781122082208
 1  11.36784446534653  0.59138136833683  0.52716420392039
 1  11.55970902430243 -1.11993795509551  0.75552617421742
 1  13.10430374927493 -1.36794495569557 -1.40567823542354
 1  12.77006075857586  0.32742343334333 -1.68558191949195
 1  13.75678711541154  1.01415397139714  0.57167451045105
 1  13.83481623472347 -0.83471307600760  1.05412192869287
 1  15.24103739223922  0.29753923892389 -1.52941729972997
 1  15.88014545744574 -2.27021731383138 -0.10884233813381
 1  15.00193324402440 -2.01930430603060 -1.71883929902990
 1  16.60168979837984 -1.62628815371537 -1.63757522702270
 1  15.86295149584958  1.54516234993499  0.33285983028303
 1  16.34358880608061  0.12395322022202  1.32512527372737
 1  18.14498543724373 -0.58322486988699 -0.38702204260426
 1  17.73596066056606  0.57724504340434 -1.47138071387139
 1  18.21029182178218  2.23646780448045  0.63800180548055
 1  18.69645680598060  1.11363554455446  1.63485348564856
 1  20.66407131983198  0.23563971217122  0.26069313331333
 1  20.41507561416141  3.00841440334033 -1.37056064946495
 1  21.44376862896290  1.93272992579258 -1.34858622192219
 1  19.95760966536654  1.55479729052905 -2.20937790679068
 1  21.30751672687269  1.18337644674467  2.21709132633263
 1  22.16666837313731  2.11759298899890  0.99032399869987
 1  20.66141587148715  2.94416449974997  1.45332577307731

