%nproc=4
%Mem=3GB
# td=(NStates=1) iop(3/107=0140000000,3/108=0140000000) CAM-B3LYP/6-31G(d,p) 

TD

0 1
12 -7.20240493219322  0.55758414191419  0.18463483348335
 6 -4.92398121462146 -1.89364659525953  0.55596099849985
 6 -4.77136316691669  2.86888560646065  1.12917302250225
 6 -9.45105186968697  3.06022357535754 -0.44160663596360
 6 -9.54919101710171 -1.73397516321632 -0.76965377027703
 7 -5.12686971817182  0.49614570517052  0.71085890989099
 6 -4.36483873117312 -0.72430357355736  0.85147304200420
 6 -2.89735595619562 -0.48473687168717  1.23249891899190
 6 -3.08417164406441  1.05935463706371  1.65399167846785
 6 -4.38460869556956  1.51239589068907  1.00775516941694
 6 -2.98536471727173  1.23513633293329  3.18594390899090
 6 -1.92606833653365 -0.59779576877688  0.08874268456846
 6 -0.45203091229123 -0.49570281828183  0.56776015831583
 6  0.50295221842184 -0.64849147104710 -0.56077586768677
 8  0.24690490729073 -1.08696247394739 -1.63723111621162
 8  1.82278087648765 -0.33151308970897 -0.17657304490449
 7 -7.18093573697370  2.62596580648065  0.46960788488849
 6 -6.05857600140014  3.39677344474447  0.83896977307731
 6 -6.35538044644464  4.80667753135314  0.77534579327933
 6 -7.65330011531153  4.85374717991799  0.33977010341034
 6 -8.18340786828683  3.45904284308431  0.11167916651665
 6 -5.53028506240624  5.93534300800080  1.00956111131113
 6 -8.51231123912391  5.99082935253525  0.13718433093309
 6 -8.50246865686569  7.20133928362836  0.78575263456346
 7 -9.05216425752575  0.63232022642264 -0.55703227712771
 6 -9.77211469776978  1.84907823212321 -0.74038685218522
 6 -11.20193414611461  1.49889933443344 -1.21533639333933
 6 -11.20008949614961  0.13580112591259 -1.37757778607861
 6 -9.88288589218922 -0.34223441684168 -0.86534873617362
 6 -12.28663960166017  2.47559280068007 -1.48590804350435
 6 -12.34548834173417 -0.64544066786679 -1.73530286088609
 6 -12.29511142004201 -1.11960215251525 -3.28686933813381
 7 -7.16290925332533 -1.37246208190819 -0.11580425552555
 6 -8.27678200450045 -2.17179572507251 -0.41967354725473
 6 -7.87441948174818 -3.55174572597260 -0.36427672747275
 6 -6.53143093359336 -3.59337231933193  0.02435035333533
 6 -6.19218294999500 -2.19799775557556  0.23036487188719
 6 -8.71412375187519 -4.79187528592859 -0.81254463756376
 6 -5.31813727662766 -4.32651621502150  0.21449642374237
 8 -5.29400039233923 -5.51429828682868  0.16222217081708
 6 -4.20635513811381 -3.31495894329433  0.60759908150815
 6 -3.40948512531253 -3.72018996169617  1.88073404190419
 8 -3.50306308970897 -3.24828218611861  2.98861221942194
 8 -2.80153550635063 -4.86089470797080  1.59978901640164
 6 -1.94558351535154 -5.34180938683868  2.74172157255726
 6  2.82047836823682 -0.60312860176018 -1.17905142234223
 6  4.15444632983298 -0.27163243114311 -0.56021858465847
 6  5.14950044134413  0.42392892089209 -1.00335321232123
 6  5.13442716831683  1.18398607390739 -2.30344447944794
 6  6.51042732143214  0.42761337733773 -0.31924244864486
 6  7.66602805540554 -0.15225377337734 -0.96170649934994
 6  8.82909062066207 -0.16161797789779 -0.05419152155215
 6  10.16768222882288 -0.55404706790679 -0.92148786878688
 6  10.18246152275228 -2.07357523742374 -1.35575254125413
 6  11.42076674047405 -0.28425331643164 -0.09595755825583
 6  12.77042477797780 -0.62105213871387 -0.70758826392639
 6  13.87014828662866 -0.07027274157416  0.10377678927893
 6  15.24801079207921 -0.15591467506751 -0.54376002850285
 6  15.71452772377238 -1.63761214951495 -0.91228305460546
 6  16.32208920162016  0.37950446774677  0.40295503020302
 6  17.74623221092109  0.42938666826683 -0.19520604760476
 6  18.68423884248425  1.22369044754475  0.79979323602360
 6  20.19862266666667  1.28582801530153  0.27258396439644
 6  20.37533037883788  2.23522082718272 -0.94770946684668
 6  21.12126719371937  1.86136783668367  1.43494743474347
 1 -3.92283264676468  3.60915416681668  1.36562265806581
 1 -10.06221834513451  3.96715899039904 -0.56287081328133
 1 -10.23255767986799 -2.29342487758776 -0.90769858925893
 1 -2.66556384358436 -1.17506770947095  2.06970346104611
 1 -2.09746321262126  1.56208826992699  1.18758240724072
 1 -1.89045213161316  0.70137924432443  3.34903524092409
 1 -3.17364447354735  2.30079930273027  3.62815083728373
 1 -3.87445024552455  0.54414956925693  3.73234491969197
 1 -1.91623674267427 -1.39546021682168 -0.39089709680968
 1 -1.99107547654765  0.20016763656366 -0.67120385498550
 1 -0.38586401510151  0.50578016531653  1.10423428642864
 1 -0.33917233753375 -1.14129489608961  1.43324678297830
 1 -5.52392657035704  6.89187669966997  0.13913374467447
 1 -5.62047351865187  6.14707758915892  2.11807381988199
 1 -4.33791863646365  5.64207847584759  0.93312404500450
 1 -9.59948020782078  5.69686306830683 -0.25658701140114
 1 -9.10244930863086  8.02876259725973  0.61342111781178
 1 -7.52601053315332  7.21163800020002  1.48899786008601
 1 -12.10679115211521  2.91563071017102 -2.62902873437344
 1 -13.26490378807881  1.91292003440344 -1.38598432663266
 1 -12.22787382008201  3.35476281038104 -0.57019745924592
 1 -12.51062302720272 -1.49692061486149 -1.06524002490249
 1 -13.37471977107711 -0.12510522102210 -1.70725648004801
 1 -13.12776797599760 -1.69478314041404 -3.65685664376438
 1 -12.35646605230523 -0.03948241954195 -3.84804378277828
 1 -11.23017785718572 -1.34855588278828 -3.57308558675868
 1 -9.21834645324532 -4.77762426322632 -1.76849291229123
 1 -8.05021940714071 -5.61373732703270 -0.88804875997600
 1 -9.38541272027203 -5.08835728412841  0.16551428272827
 1 -3.38388590709071 -3.43798040364036 -0.17077481558156
 1 -1.45371875947595 -4.46102831623162  3.13986570417042
 1 -2.69296573387339 -5.36103562846285  3.64982602030203
 1 -1.31917243774377 -6.06761754655466  2.50047340844084
 1  2.78664671947195 -1.81797842064206 -1.30826227492749
 1  2.50756719801980 -0.02224413961396 -2.13200425792579
 1  4.22270275697570 -0.94471288508851  0.22994439463946
 1  4.22190750225022  1.35014055675568 -2.96958744444444
 1  5.32752968516852  2.24636506040604 -2.10309774817482
 1  5.64189375787579  0.66379757065707 -3.01681793869387
 1  6.71398958285829  1.60662064266427  0.13738335223522
 1  6.29510738283828 -0.15060239693969  0.66557275277528
 1  7.32310443324332 -1.02772344534453 -1.12655741294129
 1  8.01483404190419  0.26546564956496 -1.97127795069507
 1  9.05084112841284  0.77910740824082  0.37884031213121
 1  8.76902002280228 -1.09438779147915  0.62621874527453
 1  10.30088472027203 -0.04196804900490 -1.91866702470247
 1  9.31943155225523 -2.38454673817382 -1.90475885778578
 1  11.17352649324933 -2.30960435973597 -1.87818317641764
 1  10.08716091319132 -2.61501561626163 -0.49350674437444
 1  11.25833747534753  0.73861029442944 -0.05138736793679
 1  11.31459905540554 -0.59811110871087  0.83550987108711
 1  12.72443039553955 -1.73493091239124 -0.82553482498250
 1  12.93333916381638 -0.16052111611161 -1.69585391909191
 1  13.73583500380038  0.95290065336534  0.36330115881588
 1  13.81080939153915 -0.77848422732273  1.07026940094009
 1  15.19006940834083  0.26496989398940 -1.56116738553855
 1  15.38709250605060 -2.25073441464146  0.05798766326633
 1  15.15189683408341 -2.07607212721272 -1.78311968546855
 1  16.73995227482748 -1.54183508050805 -1.12742925622562
 1  16.10396366986699  1.32367070077008  0.75567148344834
 1  16.45429950775078 -0.37348363316332  1.30720921562156
 1  18.04281101880188 -0.69714622862286 -0.14121431703170
 1  17.92569987958796  0.91525041914191 -1.06861260486049
 1  18.16565562246225  2.15640690869087  0.89028097489749
 1  18.57977393989399  0.96474131363136  1.88466171167117
 1  20.59443927622763  0.26084708230823  0.06051194339434
 1  19.96290310881088  3.34476525302530 -0.56082826752675
 1  21.36449024982498  2.27538868096810 -1.41870985218522
 1  19.57660605820582  1.82254254445445 -1.67044542894289
 1  21.17851170467047  1.18041368226823  2.27186085488549
 1  22.23970186298630  1.91080155085509  1.03189984358436
 1  20.64094417291729  2.93886000320032  1.32394953165316

