%nproc=4
%Mem=3GB
# td=(NStates=1) iop(3/107=0140000000,3/108=0140000000) CAM-B3LYP/6-31G(d,p) 

TD

0 1
12 -7.14468916061606  0.62839122262226 -0.05534916491649
 6 -4.90285910241024 -1.89440667126713  0.40800620302030
 6 -4.82820885148515  2.84343306120612  1.12840294549455
 6 -9.51682844734474  3.13085063806381 -0.30730320562056
 6 -9.54241033903390 -1.76848861456146 -1.00939774467447
 7 -5.19311634283428  0.42643873447345  0.65671349534954
 6 -4.36847909520952 -0.69207035023502  0.82816071077108
 6 -2.97317353795380 -0.35967436543654  1.33129879897990
 6 -3.17296052295230  1.06451515311531  1.79442572187219
 6 -4.48610884558456  1.46755140624062  1.24949934383438
 6 -3.22429861066107  1.24304712401240  3.40481579617962
 6 -1.96476220592059 -0.56435242444244  0.28578238853885
 6 -0.42889859905991 -0.39486273427343  0.75317870017002
 6  0.51533345654565 -0.78926554845485 -0.34490428052805
 8  0.32277249404941 -1.44265804350435 -1.38174556765677
 8  1.75511410981098 -0.35226516491649  0.06977158955896
 7 -7.08887653105311  2.68027123702370  0.32352327642764
 6 -6.05687583138314  3.32955672307231  0.68572444854485
 6 -6.44762967136714  4.73822068566857  0.77279553825383
 6 -7.65798058335834  4.89198100330033  0.24946107250725
 6 -8.15561508900890  3.48006494529453  0.00709870847085
 6 -5.49581161506151  5.83366283998400  1.23520367556756
 6 -8.47224723272327  6.12565283488349  0.11827243974397
 6 -8.11104951495149  7.35963511321132  0.69918397769777
 7 -9.19122816391639  0.72728972337234 -0.60888746264626
 6 -9.90596808310831  1.88943226752675 -0.68693150665066
 6 -11.30581453415342  1.41682112661266 -1.09859471917192
 6 -11.27380686788679  0.06011355715572 -1.30656068436844
 6 -9.96032363596360 -0.34210440384038 -0.93199540084008
 6 -12.40507144484448  2.48183342474247 -1.29039849254925
 6 -12.47621141404140 -0.80981710551055 -1.66637596819682
 6 -12.58187009590959 -1.03145333763376 -3.19829048024802
 7 -7.23250621302130 -1.32978781448145 -0.25653832893289
 6 -8.25529985628563 -2.24245279077908 -0.60947252715272
 6 -7.76422846264626 -3.56656720812081 -0.63141344114411
 6 -6.46862465296530 -3.52847582968297 -0.29030111181118
 6 -6.16553028472847 -2.12521047684768  0.02973480888089
 6 -8.53978631813181 -4.84341043944394 -1.08888227132713
 6 -5.34188965186519 -4.38920248364836  0.19519449354935
 8 -5.13425441774177 -5.59386624362436  0.14161010961096
 6 -4.12508701130113 -3.21231867926793  0.49946826842684
 6 -3.54092826962696 -3.61710965366537  1.84470043854385
 8 -3.67335011841184 -3.15138249614961  2.93976733493349
 8 -2.78379373217322 -4.80467908640864  1.70049908740874
 6 -2.25151410841084 -5.26589179507951  2.93338073847385
 6  2.75781210161016 -0.76074436333633 -0.99995351255125
 6  4.10501138633863 -0.42159742764276 -0.36234879767977
 6  5.10172566386639  0.31821834983498 -0.87175005200520
 6  5.23396712231223  1.02866054135414 -2.20040417541754
 6  6.54817109580958  0.36855747174717 -0.15533605800580
 6  7.66602805540554 -0.16758530653065 -1.10319064776478
 6  8.97325503710371 -0.12820463656366 -0.21623772617262
 6  10.29043450405041 -0.56913857705771 -0.88715443544354
 6  10.06046932353235 -2.00904878477848 -1.37927489348935
 6  11.47453211701170 -0.30345523662366 -0.00349831233123
 6  12.76292402790279 -0.36917695119512 -0.72726023112311
 6  13.94094536633663 -0.08050376467647  0.09715612721272
 6  15.40463645464546 -0.17526661026103 -0.54278993149315
 6  15.81392766376638 -1.61646003430343 -0.93552537883788
 6  16.41861885458546  0.51523804110411  0.38991372607261
 6  17.86075366306631  0.55594932453245 -0.14047057405741
 6  18.93048346694669  1.26861493999400  0.78214147084708
 6  20.28119092349235  1.31432086458646  0.11545825182518
 6  20.43799664546455  2.04677198229823 -1.17834253015302
 6  21.27716278327833  1.94966666656666  1.18551249124912
 1 -4.08633899739974  3.56234948634864  1.46982307810781
 1 -10.33121524482448  3.83288556305631 -0.49710423662366
 1 -10.42465688978898 -2.44113964906491 -1.37907572697270
 1 -2.84651193839384 -0.91311151385139  2.18412490319032
 1 -2.39734320062006  1.75189725082508  1.49816346534653
 1 -2.28697178357836  0.68232733913391  3.97875821322132
 1 -3.09672678177818  2.39983920672067  3.54743276547655
 1 -4.22733553405341  0.94198935323532  3.78167985318532
 1 -2.20299541854185 -1.68858952975298 -0.20528853595359
 1 -2.08571494049405 -0.14996737693769 -0.58086482108211
 1 -0.42816824552455  0.85693528082808  0.99820368336834
 1 -0.09502792309231 -0.96302706930693  1.57981143944394
 1 -5.56724090179018  6.76955446744674  0.59568940024002
 1 -5.57317878917892  6.24014689608961  2.18613062556256
 1 -4.37681252585259  5.53300756875688  0.85596632923292
 1 -9.37855811561156  6.18662204420442 -0.55924727742774
 1 -8.82238130183018  8.04378409940994  0.59645942164216
 1 -7.39187711981198  7.59282611901190  1.48508746904690
 1 -12.09534000700070  3.13637278437844 -2.06903273477348
 1 -13.34934223192319  2.04333307570757 -1.61556728492849
 1 -12.55552658535854  3.15572290639064 -0.40325076457646
 1 -12.51911387628763 -1.58247917071707 -0.95103860476048
 1 -13.40544284338434 -0.33761647214721 -1.30480623502350
 1 -13.32038723792379 -2.03364702680268 -3.27285824392439
 1 -12.99390979667967 -0.18687715901590 -3.79981896029603
 1 -11.63862870227023 -1.39936096329633 -3.44668294649465
 1 -8.75044966356636 -4.67206370717072 -2.28233429642964
 1 -7.87394177937794 -5.72589854315432 -1.12871282638264
 1 -9.44860903990399 -4.99870831923192 -0.67103937263726
 1 -3.25440295879588 -3.46830343594359 -0.29027676577658
 1 -1.79330271787179 -4.26137835123512  3.49407112471247
 1 -3.07829426672667 -5.81393091799180  3.60492152985299
 1 -1.47007752825283 -6.13761454625462  2.83112647374738
 1  2.63564161896190 -1.75618224102410 -1.30205165386539
 1  2.45003144444444 -0.27998991419142 -1.94005506300630
 1  4.06089657635764 -1.23721213501350  0.55915731593159
 1  4.21431674317432  1.24231977467747 -2.58542902860286
 1  5.81508844104410  2.02791321522152 -2.24910234863486
 1  5.71525109360936  0.56831802270227 -2.94851110801080
 1  6.62697088098810  1.39765974657466  0.31673128702870
 1  6.65350322242224 -0.39038637533753  0.66259245474547
 1  7.64760688348835 -1.20202087508751 -1.40117487468747
 1  8.12426498499850  0.42689179217922 -1.90280110301030
 1  8.92508855315532  0.84595409290929  0.21257368546855
 1  8.79444256505651 -0.81260961366137  0.48913503690369
 1  10.33789842164217  0.17221336913691 -1.79874503250325
 1  9.25762537163716 -2.09166745024502 -1.89714809670967
 1  10.99424856545655 -2.55174857415742 -1.70207556565657
 1  9.95628782588259 -2.65866998169817 -0.41373876757676
 1  11.26103774537454  0.88110454385439  0.27298506930693
 1  11.46253384888489 -1.16819811741174  0.73456977707771
 1  12.87021497399740 -1.39631705100510 -1.14657692919292
 1  12.71840767066707  0.28829376537654 -1.62209654335434
 1  13.89471089138914  1.02698806210621  0.46159098779878
 1  13.92960127072707 -0.63993037193719  1.08680105410541
 1  15.17711811321132  0.25249864686469 -1.51691296009601
 1  15.77889168596860 -1.99006834803480  0.16344820932093
 1  15.01016266066607 -2.08944346434644 -1.46901827532753
 1  16.82984126372637 -1.67825872287229 -1.29410592389239
 1  16.18842211571157  1.57482581628163  0.90871678797880
 1  16.20490456825683 -0.35531181598160  1.34856335103510
 1  18.43192993069307 -0.47026354035404 -0.40727092269227
 1  17.87625493509351  0.99016791089109 -1.08541428502850
 1  18.47356641354135  2.24521578957896  0.87564951175117
 1  18.88656461896190  0.80077491699170  1.84498774427443
 1  20.48398823112311  0.24362536013601 -0.13483759155916
 1  20.09896671517152  2.90050082658266 -1.02486467116712
 1  21.54373817461746  2.23502464456446 -1.29864784598460
 1  20.11130952855286  1.82976326652665 -2.20880926532653
 1  21.16175002850285  1.33512915381538  2.11683535233523
 1  22.41007890069007  1.76383685438544  1.08944559815982
 1  20.84393447194720  2.90046616381638  1.15699283598360

