%nproc=4
%Mem=2GB
# td=(NStates=1) CAM-B3LYP/6-31G(d,p) 

TD

0 1
<<<<<<< HEAD
12 -7.13728430143014  0.64815356345635  0.08995668306831
 6 -4.86891150915091 -1.96550772917292  0.52070860356036
 6 -4.70085001390139  2.84712315961596  1.10937730263026
 6 -9.33970870637064  3.11321681718172 -0.33809666936694
 6 -9.52528284198420 -1.70154566556656 -0.91169759885989
 7 -5.13664708930893  0.42920273837384  0.75690610891089
 6 -4.35513521962196 -0.65486530853085  0.73385140834083
 6 -2.89644865026503 -0.41853127882788  1.18524887908791
 6 -2.98183162156216  1.10802347064706  1.58780951165117
 6 -4.36971396629663  1.46998774757476  1.13138016791679
 6 -2.78982406450645  1.27829011711171  3.12583399229923
 6 -1.94280774177418 -0.61188645004500  0.04287824612461
 6 -0.47053447604760 -0.52063641084108  0.53271740104010
 6  0.51321245844584 -0.65662917581758 -0.64248962946295
 8  0.27247848794879 -1.00975638323832 -1.80105643734373
 8  1.73355516601660 -0.62768016441644 -0.18153494239424
 7 -6.99589003690369  2.65326091589159  0.34438313381338
 6 -5.88945822482248  3.36038701450145  0.71475500910091
 6 -6.36965421852185  4.78775306470647  0.78851953915392
 6 -7.66219892689269  4.82798342984298  0.34275266656666
 6 -8.07751202280228  3.48562775807581  0.10436298259826
 6 -5.42783073977398  5.91786425232523  1.02780754125413
 6 -8.60824862246224  6.04924595829583  0.35247223262326
 6 -8.47826171747175  7.20145626422642  0.96030228002800
 7 -9.06379865246525  0.62293515461546 -0.65626966066607
 6 -9.82188844854485  1.82368232133213 -0.65854217831783
 6 -11.19408850545054  1.48887722682268 -1.10438215771577
 6 -11.20385278917892  0.13342870697070 -1.22760147414741
 6 -9.91334701540154 -0.33170514481448 -0.97692270837084
 6 -12.23304212791279  2.47005757675768 -1.42273904870487
 6 -12.25878042434243 -0.79833724382438 -1.70124093259326
 6 -12.09475696409641 -1.23371578277828 -3.22091721032103
 7 -7.16512598089809 -1.33109272287229 -0.16112078907891
 6 -8.16267650745075 -2.25209038113811 -0.56657161236124
 6 -7.82610875647565 -3.57066533403340 -0.50379765706571
 6 -6.51258514261426 -3.52522685968597 -0.13345507740774
 6 -6.19204180058006 -2.12035031633163  0.05348815301530
 6 -8.62748021542154 -4.80276311871187 -0.95775425382538
 6 -5.40351482178218 -4.40069395289529  0.27804067666767
 8 -5.29349818771877 -5.56032051545155  0.21224825552555
 6 -4.17648122752275 -3.27731352115212  0.54051391669167
 6 -3.60127075797580 -3.64575979727973  1.84078445134513
 8 -3.92761436203620 -3.14547128332833  2.93510619171917
 8 -2.79525071877188 -4.78086280868087  1.76159474037404
 6 -2.27244783268327 -5.16028025712571  3.02382731823182
 6  2.71102361406141 -0.81833962856286 -1.25069627002700
 6  4.08909099809981 -0.57754593089309 -0.52030217921792
 6  5.13495698009801  0.21818808420842 -0.92712248494849
 6  5.11720014301430  1.00297294659466 -2.21893605890589
 6  6.34026835963596  0.37951980218022 -0.11569805500550
 6  7.54383192109211 -0.28565891279128 -0.81327827832783
 6  8.97849972257226 -0.10655578597860 -0.13440525332533
 6  10.15680630513051 -0.56770384208421 -0.80083105360536
 6  10.07065376557656 -2.05950688678868 -1.12950641564156
 6  11.37292016891689 -0.22076585738574  0.01168203680368
 6  12.79469437713771 -0.35946999809981 -0.69166918981898
 6  13.94058352675268 -0.07537874067407  0.25054212171217
 6  15.26906303120312 -0.13977770687069 -0.34243248304830
 6  15.58533020192019 -1.57140477427743 -0.83839345704570
 6  16.38830293619362  0.48570293029303  0.41558606580658
 6  17.87719230863086  0.59070046844684 -0.12619843444344
 6  18.75761613111311  1.38649686668667  0.72075250825083
 6  20.18377704690469  1.33738407190719  0.06976173937394
 6  20.27532888668867  2.20167846504651 -1.22364335703570
 6  21.16009694049405  2.04484742104210  1.11679704310431
 1 -3.84952643714371  3.36732225362536  1.60491507840784
 1 -10.19444983768377  3.87437827282728 -0.21285667716772
 1 -10.32592588198820 -2.55633497429743 -1.22330898309831
 1 -2.73348980588059 -0.95265357925793  2.05998668986899
 1 -2.35547915311531  1.70816439903990  0.98234888528853
 1 -1.85123958145815  1.10627108000800  3.70535424892489
 1 -3.09958501850185  2.32058611611161  3.65111727712771
 1 -3.31995543824382  0.54095877987799  3.63682609540954
 1 -1.91642412731273 -1.59023898429843 -0.49208311751175
 1 -2.15858753125313 -0.15404815441544 -0.85860590019002
 1 -0.37550106750675  0.57964257815782  0.63617401650165
 1 -0.25685348734873 -1.01168568376838  1.63365732093209
 1 -5.80908968436844  6.91140978507851  0.55953166236624
 1 -5.38700568996900  6.12323568666867  2.06408270537054
 1 -4.33708766476648  5.74852601900190  0.69522269786979
 1 -9.22460451295130  5.97872402050205 -0.51451167936794
 1 -9.15649686558656  7.95528626752675  0.97833745554555
 1 -7.64315378117812  7.40153655315532  1.66130451595160
 1 -12.08495260036004  2.90735106110611 -2.45407841254125
 1 -13.23305297449745  1.85073896509651 -1.58621981348135
 1 -12.16481821292129  3.31917057175718 -0.53257450145014
 1 -12.35517029542954 -1.71419086418642 -1.09910486538654
 1 -13.21490020892089 -0.13840057685769 -1.58394392189219
 1 -12.89958631123112 -1.98102278847885 -3.62672255675568
 1 -12.01645520972097 -0.32785732333233 -3.86172966866687
 1 -11.06237251655166 -1.79806467356736 -3.04517313731373
 1 -8.62299190219022 -4.40308105100510 -1.92905616971697
 1 -8.01185054985498 -5.58677868206821 -0.80739035203520
 1 -9.53582346724672 -4.81007602890289 -0.37922974557456
 1 -3.51953264916492 -3.54236748744874 -0.11973724522452
 1 -1.37140530703070 -4.46920336003600  3.42284519981998
 1 -3.14325393399340 -5.23700531813181  3.72705554445445
 1 -1.84424253575358 -6.26322559575958  2.94448840174017
 1  2.54885418951895 -1.87619945584558 -1.68073203820382
 1  2.31390886848685 -0.07260298069807 -1.95570872307231
 1  4.08325923152315 -1.07202941814181  0.32865608160816
 1  4.02739170267027  0.90378908930893 -2.69647801750175
 1  5.43162857455745  2.07248750765077 -1.92949941814181
 1  5.90202751035103  0.80811191869187 -2.78403713471347
 1  6.30142220512051  1.39198319831983  0.09598224102410
 1  6.13583770317032 -0.15137317471747  0.83384310101010
 1  7.35051243594359 -1.39646888208821 -0.99847117071707
 1  7.66166860276028  0.06217942604260 -1.72899582318232
 1  9.13811586318632  0.88786667166717  0.14971260346035
 1  9.01839032773277 -0.54980048624862  0.92839070277028
 1  10.26216376777678  0.09568210591059 -1.72667755725573
 1  9.28692367786779 -2.17360533703370 -2.15575149995000
 1  10.89781233693369 -2.46117290119012 -1.69197344124412
 1  9.65939882588259 -2.86640858285829 -0.48838827852785
 1  11.23706138703870  0.89844207440744  0.49092057955796
 1  11.67314036743674 -0.93916987828783  0.91849247084708
 1  12.66262958185819 -1.22875103630363 -1.38044571217122
 1  12.87342109460946  0.40769146014601 -1.39550291159116
 1  13.57907934463446  1.01849440544054  0.60080742374237
 1  13.76653940704071 -0.72669227392739  1.16944346084608
 1  15.18048133663366  0.51360084508451 -1.30435479347935
 1  15.80285772867287 -2.35542583468347 -0.02152360626063
 1  14.88314136483648 -2.12045442104210 -1.46956437153715
 1  16.57052668206821 -1.60225575047505 -1.28603007250725
 1  15.98718391909191  1.48944677837784  0.93059960426043
 1  16.47275172237224 -0.48357753285329  1.30303306450645
 1  18.06303724242424 -0.52884943234323 -0.31357469786979
 1  17.90903796829683  1.19555687458746 -1.09966354215422
 1  18.39190998359836  2.35063922162216  0.67009501480148
 1  18.83275043534353  0.85894007500750  1.64801480178018
 1  20.35795070777078  0.38851499969997 -0.10824376037604
 1  19.94633874047404  3.18157171907191 -1.28601219461946
 1  21.46884113621362  2.18327498029803 -1.28518988228823
 1  19.67815171957196  1.55681749254926 -1.83167013601360
 1  21.41037701290129  1.49689779887989  2.09247886508651
 1  22.15942764906491  2.17308853855386  0.66560152645265
 1  20.85257498739874  2.97563764706471  1.45553599409941
=======
12 -7.14471504450445  0.56405515361536  0.03717140454045
 6 -4.76329094709471 -1.97354853325333  0.45148168086809
 6 -4.83510343924392  2.86951539883988  1.18565493039304
 6 -9.41633636913691  3.05836133163316 -0.43497635733573
 6 -9.59850016371637 -1.72740825182518 -0.93320975007501
 7 -5.05283870847085  0.44488430653065  0.71521193949395
 6 -4.28220792689269 -0.65952577457746  0.81362938613861
 6 -2.93920292569257 -0.33979340504050  1.25987634183418
 6 -3.04103754215422  1.10828349664967  1.72479321002100
 6 -4.43949094399440  1.50757150595059  1.20802783268327
 6 -2.92166724882488  1.23707599569957  3.22812422132213
 6 -1.87533099409941 -0.49691495289529  0.12583654195420
 6 -0.39921734433443 -0.39899424662466  0.56630075937594
 6  0.47853899109911 -0.66048956185619 -0.62213759425943
 8  0.12228346844684 -0.98290369796980 -1.83041937363736
 8  1.73606541704170 -0.40052744914491 -0.17970475937594
 7 -7.04709515741574  2.57848343814381  0.21257995349535
 6 -6.05966524552455  3.35053602940294  0.71707524112411
 6 -6.36511376447645  4.80231452085208  0.75425611281128
 6 -7.78215092209221  4.79444007550755  0.33373176447645
 6 -8.10278455005501  3.44652384768477  0.08704125042504
 6 -5.55049300600060  6.00485295119512  1.07921268176818
 6 -8.70424822242224  6.00378141184118  0.21188817421742
 6 -8.44193808510851  7.14309042764276  0.84190043984398
 7 -9.05294756735674  0.64934779587959 -0.56575060876088
 6 -9.83567982768277  1.74021397449745 -0.55629195329533
 6 -11.25223432003200  1.51865020412041 -1.07153887338734
 6 -11.24077648154815  0.07966333043304 -1.19323803780378
 6 -9.90085576627663 -0.40279225352535 -0.93742875897590
 6 -12.23016183988399  2.41807237823782 -1.40737751255126
 6 -12.45274982128213 -0.77772518261826 -1.57802861136114
 6 -12.25145263366337 -1.21420383158316 -3.06488160676068
 7 -7.16512598089809 -1.37097671127113 -0.20403508050805
 6 -8.21736197599760 -2.27610278237824 -0.63951890709071
 6 -7.79824597019702 -3.58284655215522 -0.60587786508651
 6 -6.46778066216622 -3.54340867786779 -0.07276900880088
 6 -6.13327592399240 -2.17507578887889  0.11549435363536
 6 -8.61031849924992 -4.89141198359836 -0.93809228762876
 6 -5.30685515581558 -4.34669855335533  0.14381725432543
 8 -5.13209204710471 -5.56968145154515 -0.03484645394539
 6 -4.13258683808381 -3.32604839463946  0.53094295959596
 6 -3.46935756665667 -3.52644786608661  1.83455382828283
 8 -3.79956155675568 -3.07769450565057  2.90135281638164
 8 -2.69165035873587 -4.69078380078008  1.83753233413341
 6 -2.27460804870487 -5.14374860396040  3.03901883738374
 6  2.75680819251925 -0.78858665326533 -1.15865706610661
 6  4.13951604060406 -0.50058823512351 -0.51994214321432
 6  5.11099458385839  0.35311157655766 -0.97337711041104
 6  4.99412783578358  1.39887253655366 -2.16055022032203
 6  6.38052238503850  0.32586443664366 -0.18560504570457
 6  7.68208574647465 -0.14106445334533 -0.95637258775878
 6  8.93596546914691  0.00121499109911 -0.05718753155316
 6  10.21370199469947 -0.52187925962596 -0.78437940844084
 6  10.09829652985298 -2.08078901500150 -1.00605407040704
 6  11.46524940184018 -0.22816659745975  0.03484435303530
 6  12.77813272097210 -0.63862791389139 -0.63497352025203
 6  13.99090855925593 -0.08469967276728  0.05492255975598
 6  15.43750987588759 -0.24006773587359 -0.52141038083808
 6  15.59300096899690 -1.71493912771277 -0.93959357705771
 6  16.52193629952995  0.35809016901690  0.38473298049805
 6  17.83688827822782  0.41349274767477 -0.19215503010301
 6  18.78359872937294  1.20215843284328  0.71625205820582
 6  20.14312298149815  1.40953128662866  0.24462922612261
 6  20.32342369616962  2.03739203640364 -1.19107009970997
 6  21.05599653045305  2.11465440174017  1.25434079747975
 1 -4.13633511801180  3.40585610701070  1.62429701660166
 1 -10.25660605330533  3.93491432643264 -0.72957834933493
 1 -10.36177946734673 -2.36626596739674 -1.32922957515752
 1 -2.59034549144914 -0.85859417331733  1.97619831103110
 1 -2.31801540674067  1.79646322892289  1.25465611601160
 1 -1.96068052555255  0.76910736363636  3.59478319181918
 1 -2.96376143614361  2.25853991149115  3.49453161856186
 1 -3.68053149584959  0.44054873887389  3.34921733453345
 1 -2.17785026992699 -1.49872983338334 -0.37760166936694
 1 -2.14374604710471  0.29157640804080 -0.54587462706271
 1 -0.21889540694069  0.65861047494749  0.90056045514551
 1 -0.20085788778878 -1.23342785798580  1.13676763196320
 1 -5.65012378777878  6.83056170027003  0.28811452065207
 1 -5.59189617901790  6.26638000110011  1.96534283138314
 1 -4.53544750075008  5.88014918131813  0.70192336793679
 1 -9.51739379187919  5.87995414351435 -0.63649387758776
 1 -8.92511372727273  8.02185292419242  0.58228785058506
 1 -7.57094656045605  7.24081048054806  1.61743012851285
 1 -12.13451755685569  3.18540886688669 -2.28701170587059
 1 -13.12502217141714  1.89278316951695 -1.42449364086409
 1 -12.43266499759976  3.11498015271527 -0.45372661666167
 1 -12.33510828922892 -1.60802024712471 -0.82959791469147
 1 -13.41232995189519 -0.20900763756376 -1.45560108760876
 1 -12.96131248384838 -1.90623530973097 -3.34800468496850
 1 -12.08717228142814 -0.50494503210321 -3.69959345504550
 1 -11.26127240654066 -1.86743161026103 -3.14805342534253
 1 -8.84401400440044 -4.96473721662166 -1.99140240434043
 1 -7.96839620442044 -5.65507551175117 -0.46712632563256
 1 -9.55565545044504 -5.03736875817582 -0.33163498609861
 1 -3.29478017391739 -3.55965921662166 -0.10253552505250
 1 -1.71572973947395 -4.26986342604260  3.63478639393939
 1 -3.15987559615962 -5.66837845544554  3.59293213211321
 1 -1.55873398489849 -5.77885715891589  2.89827378027803
 1  2.54985428952895 -1.83589542544254 -1.61934589958996
 1  2.50806828442844 -0.05263098349835 -1.81914506670667
 1  4.26196710231023 -1.16528874407441  0.20420363636364
 1  4.08199716321632  1.52818152855286 -2.68384675437544
 1  5.34982039373937  2.33460371927193 -1.64332080028003
 1  5.70720802840284  1.03296440394039 -2.91713044404441
 1  6.57501956485649  1.36420042004200  0.10519316211621
 1  6.32080620002000  0.07111907450745  0.89487920462046
 1  7.41542892759276 -1.13036227142714 -1.44503582718272
 1  8.06227866376638  0.58079128722872 -1.81502442604260
 1  8.95833788538854  1.13477136213621  0.23124075627563
 1  8.66545503420342 -0.59792529872987  0.87826569026903
 1  10.30739829122912 -0.15818328062806 -1.80715560506051
 1  9.07697268276828 -2.48221619811981 -1.46115204000400
 1  10.84692724842484 -2.33519030293029 -1.82940718461846
 1  10.31433431943194 -2.56240818281828 -0.02612205190519
 1  11.52107978887889  0.95679790999100  0.27688917641764
 1  11.43336639003901 -0.76053201450145  0.97204782638264
 1  12.72306562546255 -1.85118327952795 -0.86215388298830
 1  12.70960471297130 -0.26885619461946 -1.59784314561456
 1  13.82813425012501  1.13458601460146  0.23054039703970
 1  14.06678943204320 -0.45304490919092  1.21617813431343
 1  15.36962025052505  0.45791527652765 -1.38568292629263
 1  15.75058250115011 -2.43501379347935  0.01879042514251
 1  14.73989704040404 -2.26512888848885 -1.46271368646865
 1  16.53644327372738 -1.84999052395240 -1.50496196569657
 1  15.85849104980498  1.16477431113111  0.65514205850585
 1  16.41879632683268 -0.17434660976098  1.33920668186819
 1  18.19967090579058 -0.68848539593959 -0.42457579797980
 1  17.98139520402040  0.94032135103510 -1.11556513231323
 1  18.41030182278228  2.19102326002600  1.04047205250525
 1  18.66540370067007  0.65676985798580  1.61897189748975
 1  20.69866477917792  0.31713786198620  0.18178524252425
 1  19.99234334093409  3.11785534743474 -1.21861545494549
 1  21.34928918101810  2.20840749354935 -1.78320968426843
 1  19.70478438283829  1.50857266806681 -1.94768173717372
 1  21.31961793699370  1.57490559965997  2.31008062526253
 1  22.11575328162816  2.23959518921892  0.82593756005601
 1  20.55609533943394  2.88317840114011  1.67335777627763
>>>>>>> 8e03b5b5abfc0030b3aa597dc0de36371bfbd096

