%nproc=4
%Mem=3GB
# td=(NStates=1) iop(3/107=0140000000,3/108=0140000000) CAM-B3LYP/6-31G(d,p) 

TD

0 1
12 -7.18722341404140  0.61169955345535 -0.05006863686369
 6 -4.78740755725573 -1.95576280688069  0.55198060046005
 6 -4.76707273787379  2.85461417931793  1.10075018021802
 6 -9.42964972947295  3.13732128512851 -0.38056053135314
 6 -9.54705080308031 -1.69548131383138 -1.01435824072407
 7 -5.19721675287529  0.50669676027603  0.73548137213721
 6 -4.36703895119512 -0.70726186938694  0.81962985768577
 6 -2.93223944454445 -0.42487088508851  1.23111878097810
 6 -3.05377860476048  1.00697939953995  1.81654793409341
 6 -4.36578681338134  1.51615626672667  1.23299769366937
 6 -2.92763894469447  1.17488030733073  3.25953126772677
 6 -1.91342707240724 -0.67148313751375  0.07074088438844
 6 -0.55631134033403 -0.39401264926493  0.36356973927393
 6  0.54356627982798 -0.59933655555556 -0.62635242534253
 8  0.25942615941594 -1.04121789948995 -1.81497889098910
 8  1.78125672407241 -0.49983992239224 -0.20994638223822
 7 -7.16721436483648  2.54493770367037  0.27998892299230
 6 -6.07574771857186  3.33304707210721  0.89183505960596
 6 -6.38234314271427  4.77212407600760  0.88281654035404
 6 -7.69480426572657  4.78361016621662  0.45786191259126
 6 -8.16311583908391  3.46423336213621  0.07673567216722
 6 -5.41030306420642  5.93779325302530  1.27479763496350
 6 -8.49694970297030  5.99516978657866  0.01829244174417
 6 -8.32012042204220  7.22450159985999  0.68989304860486
 7 -9.11707074817482  0.63129012341234 -0.68627520142014
 6 -9.80621810811081  1.82845616991699 -0.67185999949995
 6 -11.17485143784378  1.52344178867887 -1.09922478217822
 6 -11.30471995919592  0.21557910371037 -1.34069409770977
 6 -9.89921752535253 -0.34607480088009 -1.01337353865387
 6 -12.30175111281128  2.54431967336734 -1.29064851755175
 6 -12.48039183208321 -0.76926305010501 -1.66702603320332
 6 -12.41031294019402 -1.17906809910991 -3.17035768696870
 7 -7.21720468286829 -1.35777061276128 -0.22413508860886
 6 -8.28790311661166 -2.20922946844684 -0.71568314821482
 6 -7.79451149094909 -3.58640919231923 -0.53275357515752
 6 -6.56831462196220 -3.58077105920592 -0.08952103380338
 6 -6.15875960766077 -2.17810576637664  0.14176601200120
 6 -8.67233957345735 -4.78925502390239 -0.89909329242924
 6 -5.40284574747475 -4.48274183758376  0.22295726982698
 8 -5.05229622192219 -5.60700755775578  0.25412136073607
 6 -4.24222872547255 -3.30510795819582  0.57018534013401
 6 -3.59915409220922 -3.63409135183518  1.90200616911691
 8 -3.73927671107111 -3.12229958785879  2.98953231143114
 8 -2.71140649344935 -4.69720833933393  1.74833387088709
 6 -2.05392434943494 -5.16523172907291  3.01873927432743
 6  2.79265558595860 -0.57734602350235 -1.25744926212621
 6  4.10199108430843 -0.34229949784978 -0.50387295009501
 6  5.16884237553755  0.39860638863886 -0.90713359035904
 6  5.09167289288929  1.18146582188219 -2.19575371037104
 6  6.42074835353535  0.42512312831283 -0.08439896429643
 6  7.68241969456946 -0.13977252525253 -0.83195352405241
 6  8.97608532013201 -0.15415723182318 -0.03500960336034
 6  10.18385384598460 -0.67425908910891 -0.78059377937794
 6  10.11427470407041 -2.11641952185219 -1.27442440844084
 6  11.40532519631963 -0.33524841594159  0.05229726722672
 6  12.74777251275128 -0.46628666216622 -0.70653815891589
 6  14.01811308310831 -0.14385009930993  0.20886729832983
 6  15.39023501450145 -0.13753283688369 -0.49783543604360
 6  15.69996626762676 -1.51696008430843 -1.09473129942994
 6  16.38386537923792  0.41335785308531  0.47609234393439
 6  17.73668125582558  0.42227595719572 -0.11705823282328
 6  18.83978439703970  1.30417849634964  0.72663592029203
 6  20.30373317771777  1.29331876437644  0.10370707670767
 6  20.25670851665167  2.20303760886089 -1.15174987088709
 6  21.22002706970697  1.77384908480848  1.27117105710571
 1 -4.08532889638964  3.39862311371137  1.61075717151715
 1 -10.12036415971597  3.91698397289729 -0.78387291349135
 1 -10.28234265836584 -2.34022955805581 -1.50272809220922
 1 -2.62939022622262 -1.06159636233623  2.06198268896890
 1 -2.42654612091209  1.65435749684968  1.26402005100510
 1 -2.02916600300030  0.61212031843184  3.52473281068107
 1 -3.09413652275228  2.24135335813581  3.64527254945495
 1 -3.88878167866787  0.67759291359136  3.75659734493449
 1 -2.02229734873487 -1.67597826862686 -0.09659766686669
 1 -2.33166953595360 -0.02713509370937 -0.71080781538154
 1 -0.38570399909991  0.72561214851485  0.59123298629863
 1 -0.22944136443644 -0.94155492209221  1.29153261156116
 1 -5.86706088378838  6.77066457845785  0.61555138643864
 1 -5.52624409570957  6.18313119451945  2.30976298879888
 1 -4.29454429902990  5.46316058405841  1.06141687428743
 1 -9.39110937073707  5.73220660266027 -0.58139949264926
 1 -9.00861992569257  7.97433715471547  0.40937071277128
 1 -7.48765669776978  7.69089592599260  1.34560352065207
 1 -12.20149062206221  3.50002915001500 -1.95933176467647
 1 -13.18822612031203  2.11925066746675 -1.76262199039904
 1 -12.56636766946695  3.02267960206021 -0.36610705020502
 1 -12.33179514441444 -1.54979590239024 -1.00304380528053
 1 -13.39068136723672 -0.50668337883788 -1.37034278867887
 1 -13.24684988418842 -1.68342200430043 -3.44967592569257
 1 -12.44592499819982 -0.08171664296430 -3.84991396979698
 1 -11.41170601000100 -1.51973300050005 -3.42637091529153
 1 -9.05913053165316 -4.77437393819382 -1.78988505150515
 1 -8.08371275647565 -5.60196614991499 -0.65209516461646
 1 -9.42429660866087 -5.19712816121612 -0.02341461016102
 1 -3.48901642014201 -3.73334994059406 -0.29204694279428
 1 -1.27417080468047 -4.46829904330433  3.20294201180118
 1 -2.67737417471747 -5.43850337523752  3.85246628432843
 1 -1.41671219171917 -6.10652143694369  2.63785714681468
 1  2.53390144494449 -1.65430205300530 -1.63894534323432
 1  2.53362980428043  0.04277236203620 -2.04707576507651
 1  4.18676916361636 -0.80793920772077  0.37718911911191
 1  4.17543285478548  1.18089363206321 -2.60670115581558
 1  5.40623755595560  2.23304372827283 -2.05590302870287
 1  5.57717728622862  0.86639783068307 -3.04899115601560
 1  6.63052123602360  1.42700268086809  0.17249686358636
 1  6.15637350945094 -0.08482581928193  0.78287448294829
 1  7.35519764256426 -1.12969364236424 -1.01561631883188
 1  7.94992755125513  0.47217632063206 -1.58823964686469
 1  9.19511555585559  0.87546704420442  0.29558198629863
 1  8.90316343714372 -0.87459581228123  1.01768789218922
 1  10.14874950675068 -0.20188404060406 -1.74309946794679
 1  9.20937054615462 -2.25222350585059 -1.98565694759476
 1  11.02742188278828 -2.35448884818482 -1.67011236933693
 1  10.03200539763976 -2.77875198989899 -0.26433382708271
 1  11.45871751335133  0.73700013341334  0.39917768856886
 1  11.40784838033803 -0.88959025662566  0.96409272937294
 1  13.10409836233623 -1.41041846114611 -1.22559483098310
 1  12.70996682658266  0.26224116011601 -1.68296262996300
 1  13.82572399269927  0.87977334063406  0.69874470317032
 1  13.83739204980498 -0.71993837273727  1.10201257525753
 1  15.20817121852185  0.48405180218022 -1.38305957475748
 1  15.70925472227223 -2.22705204640464 -0.30068820432043
 1  14.91375301970197 -1.99763428342834 -1.73443481698170
 1  16.68958723832383 -1.45937683468347 -1.53077959125913
 1  15.93816709020902  1.52241057475748  0.52304822112211
 1  16.42895697349735  0.04838855405541  1.36567506220622
 1  18.19629636733674 -0.51513802780278 -0.24054425002500
 1  17.85755306490649  0.75403429752975 -1.23179892349235
 1  18.45827488438844  2.32506377437744  0.92103405020502
 1  18.86690265276528  0.75564040354035  1.87181042654265
 1  20.52937276957696  0.14633563116312 -0.20159426722672
 1  19.69479629812981  3.12614339083908 -0.90885307000700
 1  21.24679848064806  2.30451159325933 -1.38484646584658
 1  19.72402079967997  1.74923521372137 -1.82540092449245
 1  21.18825267876787  1.14746038693869  2.14583825262526
 1  22.17502539533953  1.80689115981598  0.92035868946895
 1  20.72531260976098  2.70251636883688  1.59483662036204

