%nproc=4
%Mem=2GB
# td=(NStates=1) CAM-B3LYP/6-31G(d,p) 

TD

0 1
<<<<<<< HEAD
12 -7.13285385838584  0.63546229432943 -0.07544985758576
 6 -4.80582520052005 -1.95681686008601  0.47078361106111
 6 -4.70348027692769  2.86301474877488  1.19687605250525
 6 -9.42659739523952  3.15996149164916 -0.40834369406941
 6 -9.43011332503250 -1.73905941694169 -1.03614004310431
 7 -5.12433585818582  0.44945476357636  0.71537195549555
 6 -4.28844855095510 -0.68990881288129  0.78890691389139
 6 -2.88168717411741 -0.43331275697570  1.19922027622762
 6 -3.06074951335134  1.03871653995400  1.65514624532453
 6 -4.34189118401840  1.48195894469447  1.21926895679568
 6 -2.93851893399340  1.21172346044604  3.26186759565957
 6 -1.86102956395640 -0.60927618901890  0.12446640494049
 6 -0.42357978057806 -0.52894724192419  0.61851598089809
 6  0.58033917111711 -0.70412392529253 -0.46714209470947
 8  0.25000624072407 -1.12299770737074 -1.58074440614061
 8  1.89474128462846 -0.43346074247425 -0.11651844074407
 7 -7.04541498939894  2.69038462826283  0.20989968546855
 6 -5.96031531053105  3.39265024082408  0.70327386098610
 6 -6.38766601970197  4.78120240964096  0.84216490369037
 6 -7.67973068006801  4.87944857635764  0.35237362866287
 6 -8.10094436603660  3.54009320462046 -0.02242969666967
 6 -5.44633258995900  5.88831129702970  1.26240100060006
 6 -8.59303710131013  6.04837587128713  0.16944392979298
 6 -8.49980387168717  7.13400951955196  0.91042729252925
 7 -9.08298057065707  0.67446030713071 -0.61658569226923
 6 -9.82526878657866  1.80855080818082 -0.77664398849885
 6 -11.13300239683968  1.49206754585459 -1.23769548904890
 6 -11.25838824272427  0.13723908800880 -1.29534824882488
 6 -9.94845052575258 -0.38617059135914 -1.02677769386939
 6 -12.22091091479148  2.56568713971397 -1.41582835763576
 6 -12.46178072437244 -0.75166257635764 -1.86540734923492
 6 -12.10977846624663 -1.22313472467247 -3.21938705730573
 7 -7.22807227552755 -1.34974458805881 -0.20870554755476
 6 -8.18044828462846 -2.15296046814681 -0.61449640484048
 6 -7.78340448604860 -3.61253952145215 -0.59461673897390
 6 -6.48467235133513 -3.56463080008001 -0.08719045094509
 6 -6.23163575997600 -2.16646492779278  0.16107891209121
 6 -8.64092155955595 -4.85580842324232 -0.77062554095410
 6 -5.27401187148715 -4.35577946144614  0.20859373197320
 8 -5.12636147404741 -5.57939242264226  0.17629466016602
 6 -4.11754533393339 -3.32779856965697  0.59646951225122
 6 -3.55488611951195 -3.74220944224422  1.97446781968197
 8 -3.78734033463346 -3.11967870407041  3.04286696779678
 8 -2.69331052475248 -4.71119584198420  1.90058863976398
 6 -2.13674426232623 -5.12384661376138  3.11258619411941
 6  2.88165067676768 -0.74703249784979 -1.16737793819382
 6  4.15849793879388 -0.51368954525453 -0.47851800080008
 6  5.17528101250125  0.27149341474147 -0.82435220792079
 6  4.92631105410541  1.36925957525753 -2.06945111041104
 6  6.43292762556256  0.41824367456746 -0.13062954815482
 6  7.57078461636164 -0.13918426532653 -0.93469041954195
 6  8.82781465406541 -0.21829696009601 -0.10172198499850
 6  10.12985360986099 -0.67829490119012 -0.91638260876088
 6  9.98320502070207 -2.14532546864686 -1.30603406840684
 6  11.38096097299730 -0.41143492429243 -0.07708684008401
 6  12.67134204190419 -0.61607565866587 -0.82185220812081
 6  13.88470793919392 -0.16274747754776  0.07516458395840
 6  15.25376150105011 -0.15523925302530 -0.56494473427343
 6  15.68940060896090 -1.56161379517952 -0.84119373707371
 6  16.33035714161416  0.54446880688069  0.36020052725273
 6  17.66437102650265  0.65746714511451 -0.28157397199720
 6  18.65936630613061  1.30989920692069  0.72274270727073
 6  20.15252392159216  1.38683901740174  0.19442420562056
 6  20.34062541634163  2.28364666186619 -1.08220921362136
 6  21.10031096189619  1.93749668596860  1.19902526592659
 1 -4.04949643414341  3.53454897629763  1.77191177807781
 1 -10.14516490919092  4.00498133313331 -0.39521491299130
 1 -10.20210349974998 -2.42907224802480 -1.24810146234623
 1 -2.54005046194619 -1.18147646154615  1.90289098029803
 1 -2.21254485968597  1.61702528512851  1.20936158655866
 1 -1.83525798329833  0.92286273917392  3.54623833733373
 1 -3.12685774577458  2.34523858135814  3.38787095249525
 1 -3.66051949464947  0.56848153215322  3.91362377517752
 1 -2.15336782168217 -1.50663062346235 -0.42090599979998
 1 -2.04156582908291  0.00746799719972 -0.72544258385839
 1 -0.14338785618562  0.47077169106911  1.10900129922992
 1 -0.40017781978198 -1.21927644284428  1.30811476667667
 1 -5.85207398279828  6.92320096419642  0.73859956915692
 1 -5.52890988038804  5.84099746284628  2.48607490459046
 1 -4.26997095309531  5.81367253365337  1.02054523012301
 1 -9.44833688618862  5.84479062716272 -0.61745197339734
 1 -9.04780599649965  8.07408814771477  0.49456907870787
 1 -7.95892535833583  7.23435983548355  1.77594598009801
 1 -12.18908301340134  3.37366769276928 -2.00552355705571
 1 -13.16750641984198  1.98332222342234 -1.58939013051305
 1 -12.36240797189719  3.06671532623262 -0.44483572757276
 1 -12.61017579597960 -1.68678812391239 -1.29713466836684
 1 -13.34130284918492 -0.26528326512651 -1.78487401490149
 1 -12.79951630423042 -1.90770545674567 -3.60879076357636
 1 -12.36098966316632 -0.31848638623862 -3.73665716141614
 1 -10.96744302360236 -1.58058292539254 -3.06589520952095
 1 -9.17332693569357 -4.82619336223622 -1.82930619471947
 1 -8.14395376017602 -5.71931193539354 -0.60143975697570
 1 -9.44192407730773 -4.95787080838084 -0.00673249584958
 1 -3.52167286318632 -3.65859911061106 -0.19334460596060
 1 -1.48366653315332 -4.23449988968897  3.33267618291829
 1 -2.96505611421142 -5.29232084968497  3.62894573347335
 1 -1.61670978247825 -6.16815608880888  2.83604755765577
 1  2.66539584368437 -1.82332416831683 -1.46112007700770
 1  2.68702618021802 -0.30850657105711 -2.08560171237124
 1  4.21258216381638 -1.30937315251525  0.37856107210721
 1  3.83001196469647  1.32007071747175 -2.51344971467147
 1  5.24703011471147  2.54011427032703 -1.96351281948195
 1  5.72423973157316  0.95683679117912 -2.79878860986099
 1  6.56346840974097  1.42323632363236  0.09138178097810
 1  6.40902502190219 -0.22340037743774  0.65998571527153
 1  7.36325371007101 -1.02167140234023 -1.42057338093809
 1  7.65424786068607  0.34847805590559 -1.85324824842484
 1  8.94942699429943  0.60666855185519  0.39227685988599
 1  8.68551704040404 -0.98366387258726  0.82720058375838
 1  10.05236278767877 -0.11398886118612 -1.91588647814782
 1  9.07851283678368 -2.48404638113811 -1.95189111391139
 1  10.82477503320332 -2.63676045994599 -1.75569981388139
 1  9.90737362336234 -2.63141508350835 -0.41993143284328
 1  11.48854653555355  0.48096032623262  0.51452293979398
 1  11.33779683308331 -1.43717967926793  0.59766038763876
 1  12.82576589548955 -1.68838699989999 -1.02131979957996
 1  12.65871962446245  0.07663835483548 -1.73065642694269
 1  13.59943137983798  0.76921947794779  0.54944228722872
 1  13.84480723382338 -0.75910551525153  1.05368188468847
 1  15.13897718621862  0.32535202020202 -1.49771412941294
 1  15.74301174407441 -2.14580487258726  0.11485003110311
 1  15.00893394409441 -2.03946632223222 -1.61031844694469
 1  16.79551918131813 -1.70591611651165 -1.11623309280928
 1  16.07306250695069  1.64739257295730  0.82916946124613
 1  16.47957240444044 -0.05964513961396  1.32555531673167
 1  18.11242218091809 -0.50392694009401 -0.46963030343034
 1  17.48203526802681  1.22110942984298 -1.14346792259226
 1  18.14743553615362  2.35479963766377  1.13681168646865
 1  18.45144230453045  0.62437661866187  1.52599259955996
 1  20.39000391309131  0.49604575277528 -0.08698163416342
 1  20.09123322992299  3.39545310721072 -0.92598619201920
 1  21.36703095519552  2.11647830063006 -1.59990135343534
 1  19.48337224162416  2.12960477127713 -1.99202617161716
 1  21.52121809700970  1.04778288738874  2.07476709390939
 1  21.98508021432143  2.20819204890489  0.53407837413741
 1  20.89206893679368  2.83561364466447  1.79725016551655
=======
12 -7.19312988598860  0.53531227932793  0.15334302170217
 6 -4.88851346934693 -1.98895007340734  0.46994352705271
 6 -4.86248617751775  2.88210665796580  1.18714507940794
 6 -9.40261499699970  3.11561705720572 -0.45453831353135
 6 -9.60560087378738 -1.78069358035804 -0.75229165826583
 7 -5.18200162476248  0.46295611371137  0.80421083938394
 6 -4.37819752585259 -0.73033285528553  0.82455047824783
 6 -2.95864486988699 -0.46264569026903  1.25183553775378
 6 -3.00686412481248  1.11314398269827  1.60409113981398
 6 -4.36725372027203  1.51481223002300  1.14781181108111
 6 -2.80491557365737  1.20376266436644  3.15022643154315
 6 -1.99675313631363 -0.73803906530653  0.04632859115912
 6 -0.53576099869987 -0.40920526772677  0.43609773907391
 6  0.48964010121012 -0.60607412031203 -0.68526390689069
 8  0.16110735083508 -1.14433984158416 -1.78181451315132
 8  1.70728253875388 -0.38956635303530 -0.25998278717872
 7 -7.15344579247925  2.54153974377438  0.43799249474947
 6 -6.03033231223122  3.39854082988299  0.74935846944694
 6 -6.42016927002700  4.75617990739074  0.78205889308931
 6 -7.73052575957596  4.78428906040604  0.25752414371437
 6 -8.17628189978998  3.50666986228623  0.06721926822682
 6 -5.55480343704370  5.89745221112111  1.19367412791279
 6 -8.49008680628063  6.04333536723672 -0.02840585518552
 6 -8.53481737303730  7.12820893949395  0.65636188598860
 7 -9.15546781938194  0.66041890299030 -0.43862789648965
 6 -9.90244650435043  1.81926187928793 -0.58964528862886
 6 -11.19687878447845  1.53260159925993 -1.11073279277928
 6 -11.22745514941494  0.11955731983198 -1.24262297629763
 6 -9.94044972567257 -0.37781975627563 -0.82760777687769
 6 -12.31039986368637  2.51163173417342 -1.43177995279528
 6 -12.31569611591159 -0.74337174727473 -1.83199400790079
 6 -12.08107559595960 -0.99313172437244 -3.38224334293429
 7 -7.23171263956396 -1.50240985458546 -0.09068374537454
 6 -8.26929716951695 -2.32808798089809 -0.40580553575358
 6 -7.87699384498450 -3.61384965246525 -0.35309258655866
 6 -6.50084396849685 -3.64112844984498 -0.00794252615262
 6 -6.24593719011901 -2.19877815911591  0.13027583178318
 6 -8.74869233663366 -4.78774161656166 -0.70797927632763
 6 -5.26810128042804 -4.37087097059706  0.18275114771477
 8 -5.16272511041104 -5.59027351075108  0.24806183688369
 6 -4.20293387278728 -3.29780557035704  0.53530339563956
 6 -3.44618524942494 -3.67755297659766  1.86682705560556
 8 -3.58530013061306 -3.13243998019802  3.03436611771177
 8 -2.48733992769277 -4.74242896529653  1.60944952585259
 6 -1.95807639553955 -5.20090431953195  2.97922285778578
 6  2.81425393709371 -0.51949974457446 -1.25513671407141
 6  4.10643273227323 -0.29928810511051 -0.46834698369837
 6  5.11034451885188  0.45596186158616 -1.03656342904290
 6  4.96512493549355  1.20798344764476 -2.38480264556456
 6  6.39460379317932  0.59832168236824 -0.24849133433343
 6  7.52587012491249 -0.05833618051805 -0.94472142264226
 6  8.85000687328733 -0.12823795419542 -0.19445125792579
 6  10.21565218971897 -0.51582865456546 -0.87947891839184
 6  10.15202190239024 -1.99355029112911 -1.31407487248725
 6  11.45327820472047 -0.20230401120112 -0.06251538293829
 6  12.72718762646265 -0.49452350345034 -0.68585860876088
 6  13.98979844824482 -0.21158236103610  0.17834490199020
 6  15.37492361726173 -0.21272500160016 -0.49753799359936
 6  15.70781245014501 -1.69545717951795 -0.90234985268527
 6  16.44666877277728  0.39732409240924  0.45176968416842
 6  17.88198278767877  0.45759715811581 -0.12517833243324
 6  18.84264463396340  1.18990720772077  0.84815524852485
 6  20.25597426662666  1.30444077757776  0.26434119731973
 6  20.28472982678268  2.15725402260226 -1.03755474817482
 6  21.09510044084409  1.87351028732873  1.36516187958796
 1 -4.13422490699070  3.64497001840184  1.57139172607261
 1 -10.09072946564656  3.90815165016502 -0.83850924242424
 1 -10.22703599299930 -2.53951329212921 -1.21297794999500
 1 -2.93165962286229 -1.12130044394439  1.99061975317532
 1 -2.26520012521252  1.65373895649565  1.14116476687669
 1 -1.85659011651165  0.94625507840784  3.41223493699370
 1 -2.72461752175218  2.37372142964296  3.21156332173217
 1 -3.54009745244524  0.86977166116612  3.65982839563956
 1 -1.96642912781278 -1.84293425382538 -0.12345625482548
 1 -2.32273394589459 -0.27789053865387 -0.87020706030603
 1 -0.42487600500050  0.65558017191719  0.91712211131113
 1 -0.06972477447745 -1.25499001420142  1.00336429162916
 1 -5.86043481888189  6.81760040414041  0.56722243144314
 1 -5.58425541494149  6.19687305040504  2.35879217631763
 1 -4.59781373737374  5.48016918331833  1.07666084168417
 1 -9.13034508700870  6.05360150825082 -0.92327255545555
 1 -9.00855207110711  8.01458219711971  0.34025364716472
 1 -7.98037750355036  7.13284968446845  1.81961034653465
 1 -11.96783088818882  3.42797312331233 -2.13366637133713
 1 -13.14197386658666  2.01226511771177 -1.93859505100510
 1 -12.41859359045905  2.92587124182418 -0.38085932993299
 1 -12.29141391979198 -1.65851529662966 -1.18894384928493
 1 -13.29417813671367 -0.42006874367437 -1.71013654115412
 1 -12.81488784138414 -1.60025471167117 -3.90644052855286
 1 -11.98416198039804  0.02753821622162 -3.98946244194419
 1 -11.10938721802180 -1.40207507460746 -3.41358997899790
 1 -8.94727433043304 -4.52690343324332 -1.83507677177718
 1 -8.00503986878688 -5.76399640384038 -0.59067868086809
 1 -10.00469035393539 -4.72692771407141 -0.16444826742674
 1 -3.38254895079508 -3.40377362806281 -0.21363663516352
 1 -1.22953111961196 -4.95384182388239  3.68441135643564
 1 -2.86783639223922 -5.48885050265027  3.59994283318332
 1 -1.43449156065607 -6.02724199739974  2.68377233013301
 1  2.78608791289129 -1.60461229712971 -1.56736070107011
 1  2.64747222482248  0.06749102870287 -1.95619877207721
 1  4.34420532613261 -0.67228944414441  0.47195041104110
 1  3.91700066356636  1.50984969536954 -2.62732110181018
 1  5.47031244294429  2.19043930283028 -2.25813228142814
 1  5.61544885248525  0.45176628412841 -3.14262299329933
 1  6.52105416831683  1.73489748974897 -0.25330268746875
 1  6.31050516991699  0.29621158375838  0.72432214891489
 1  7.11352873757376 -1.21985122032203 -1.26222754635464
 1  7.79293172907291  0.47634084218422 -1.99464238783878
 1  8.98819087068707  0.76356424142414  0.22352998519852
 1  8.63836232493249 -0.71993749995000  0.68596646034603
 1  10.22173972537254  0.07263980168017 -1.90650554005401
 1  9.40694568006801 -2.27068504500450 -1.85988191299130
 1  11.00432298799880 -2.32322910681068 -1.84187843174317
 1  10.16434932093209 -2.70617255925593 -0.27359679937994
 1  11.35074275517552  0.87100933113311  0.46463795129513
 1  11.30143319671967 -1.02596855815582  0.76140676227623
 1  12.87501081998200 -1.60428859005901 -0.94306197379738
 1  12.65015876837684  0.04074476547655 -1.71154451575158
 1  13.91214265096510  0.96104866086609  0.45802314531453
 1  13.93601635473547 -0.59976958165817  1.09310582708271
 1  15.33627691619162  0.24579406440644 -1.55752011001100
 1  15.79177662056206 -2.42786307840784  0.13346189228923
 1  14.89663271397140 -2.07443981958196 -1.67581499659966
 1  16.60919054845485 -1.84238976387639 -1.53407487698770
 1  16.00206540724072  1.39036687038704  0.70792733703370
 1  16.46706115331533 -0.24734390949095  1.38758151935193
 1  18.43132407110711 -0.54011055845585 -0.35944928532853
 1  17.90209727422743  1.09193651255126 -1.13411698749875
 1  18.39088988158816  2.28419257695770  1.21453945924593
 1  18.90277743804381  0.77234141514151  1.82056205650565
 1  20.58244315701570  0.35356150435044  0.05681274527453
 1  19.87213131973197  3.12128569046905 -0.84353794719472
 1  21.40197444954496  2.53168982178218 -1.03885524882488
 1  19.76534043844385  1.69250106090609 -1.87425439443944
 1  21.03183915911591  1.22543065216522  2.36014563176318
 1  22.22190389668967  1.60811204090409  1.11005597189719
 1  20.93173290319032  2.97842792609261  1.41651209170917
>>>>>>> 8e03b5b5abfc0030b3aa597dc0de36371bfbd096

