%nproc=4
%Mem=2GB
# td=(NStates=1) CAM-B3LYP/6-31G(d,p) 

TD

0 1
12 -7.20077065006501  0.70209895799580  0.12864055145515
 6 -4.90269488748875 -1.91798297669767  0.46737327002700
 6 -4.83337326622662  2.88347679497950  1.03149951485148
 6 -9.44214895039504  2.98864435993599 -0.34808766846685
 6 -9.59438975267527 -1.77821333233323 -0.84934136323632
 7 -5.13453687828783  0.44610442854285  0.66588700700070
 6 -4.34259396549655 -0.64851467346735  0.74570259345935
 6 -2.87901690709071 -0.33539296499650  1.11302165636564
 6 -2.92317575597560  1.09893256155616  1.53939467016702
 6 -4.33914090899090  1.50378112691269  1.04467149704970
 6 -2.96111119321932  1.35184747284728  3.07935934483448
 6 -1.89057251825183 -0.64489975137514 -0.03062910461046
 6 -0.54238166076608 -0.40344469166917  0.59094322362236
 6  0.55488662586259 -0.68132164506451 -0.56860224072407
 8  0.26822806290629 -0.97933334093409 -1.75825215691569
 8  1.79507131763176 -0.48001539793979 -0.12872966186619
 7 -7.19252970087009  2.55665125492549  0.28765746124612
 6 -6.08178745774577  3.34358533433343  0.65398893249325
 6 -6.45878313141314  4.73246753615362  0.74208489568957
 6 -7.80914362136214  4.82555318681868  0.43519191049105
 6 -8.28799307090709  3.42495169046905  0.09480202650265
 6 -5.51800975767577  5.83663612951295  1.25533029352935
 6 -8.64106190379038  5.96653768746875  0.32784977037704
 6 -8.54244813611361  7.11886800540054  1.03567981778178
 7 -9.16695896849685  0.59633249434943 -0.50487452115212
 6 -9.94264052375237  1.73920387348735 -0.69138546264626
 6 -11.27322641924192  1.40026836593659 -1.11067278677868
 6 -11.26798920282028  0.10585594969497 -1.35576429042904
 6 -9.93124880558056 -0.51781375567557 -0.89018403450345
 6 -12.28147697139714  2.49555012601260 -1.41207798259826
 6 -12.41977652395239 -0.78139554965497 -1.88491930043004
 6 -12.37912540094009 -0.99313172437244 -3.38523364196420
 7 -7.30286975527553 -1.43096270987099 -0.21749642664266
 6 -8.28562880268027 -2.27689286138614 -0.52939789498950
 6 -7.84837098269827 -3.58606687418742 -0.47991526882688
 6 -6.56214009810981 -3.58694303130313 -0.06938867076708
 6 -6.28686128252825 -2.20128841014101  0.09524232843284
 6 -8.59149661706171 -4.91816465886589 -0.83729220762076
 6 -5.33458792909291 -4.37088097159716  0.27222009460946
 8 -5.13488232613261 -5.48973345674567  0.29433646434643
 6 -4.20525410481048 -3.28576436623662  0.55110497579758
 6 -3.61695232613261 -3.62916813811381  1.90460083298330
 8 -3.79329092969297 -3.02771950815082  2.97546022712271
 8 -2.74867606130613 -4.67685240764076  1.85992457335734
 6 -2.05062565046505 -4.98716294539454  3.11376631213121
 6  2.88890140184018 -0.67717551215121 -1.09305050545054
 6  4.18332042104210 -0.30001817811781 -0.48444859385939
 6  5.22003548794879  0.25719198459846 -1.00446021872187
 6  5.23123154615462  1.14810746004600 -2.14248841414141
 6  6.48114244704470  0.46327817801780 -0.21641812701270
 6  7.73133067096710 -0.24200454735474 -0.95945289578958
 6  8.93060493309331 -0.27243237363736 -0.12072388518852
 6  10.26674729922992 -0.66522359405941 -0.84510548104810
 6  10.13406010621062 -2.09472040814081 -1.29229269426943
 6  11.49223210011001 -0.30484426522652  0.01805267386739
 6  12.73894880258026 -0.40456450755075 -0.79105912881288
 6  13.92376184458446  0.01717051425143  0.01890895839584
 6  15.42427855275528 -0.14771850095009 -0.54100234003400
 6  15.67760942984298 -1.54756239003900 -0.86677629532953
 6  16.47451155705571  0.41617597759776  0.43845835303530
 6  17.93515810521052  0.45811721012101 -0.11929774437444
 6  18.96793716321632  1.20734895189519  0.77312774577458
 6  20.26020468966897  1.29901023452345  0.18632339553955
 6  20.35734708850885  2.08465676287629 -1.10200119281928
 6  21.22512344314432  1.96420935723572  1.33988935233523
 1 -4.18038952345235  3.62571809320932  1.53041762866287
 1 -9.98453884658466  3.79220005500550 -0.59951534303430
 1 -10.37639092849285 -2.41451079187919 -1.19296594879488
 1 -2.86878333523352 -0.93608192209221  1.95779647084708
 1 -2.02197580278028  1.69376295889589  1.11239188958896
 1 -1.96446090359036  1.00634108700870  3.50860457395740
 1 -3.05157021702170  2.35939999749975  3.53309547494749
 1 -3.59103254595460  0.68316300030003  3.69514192699270
 1 -2.01549403430343 -1.61878183858386 -0.34229813901390
 1 -2.06228790129013  0.04548179857986 -0.76886692629263
 1 -0.30801431883188  0.57467208110811  1.01625202430243
 1 -0.15475327732773 -1.23979849504951  1.34759871507151
 1 -5.97938671407141  6.68378702280228  0.76607231643164
 1 -5.71085807520752  5.72528589168917  2.35413171027103
 1 -4.62470642664266  5.68145931233123  0.82387556315632
 1 -9.42291434393439  6.06241238933893 -0.48851908010801
 1 -9.19972118801880  7.91323206210621  0.84377399919992
 1 -7.57771723752375  7.47336373587359  1.52428081358136
 1 -12.06269037413741  2.96062638863886 -2.40747375207521
 1 -13.31854152335233  2.21896578777878 -1.67775896739674
 1 -12.40086181728173  3.13024167886789 -0.53382462646265
 1 -12.89903468186819 -1.58540798589859 -1.18499345424542
 1 -13.18452717161716  0.02463572677268 -1.62432796029603
 1 -13.04013036563656 -1.75041972817282 -3.88456834133413
 1 -12.47436100030003 -0.09340387798780 -4.14358785448545
 1 -11.42823910321032 -1.59565443254325 -3.51630025002500
 1 -8.86359596259626 -5.07017776067607 -1.85666893099310
 1 -7.76264562936293 -5.51882188638864 -0.69770938393839
 1 -9.48198808370837 -4.85006002730273 -0.25521734433443
 1 -3.40778147404740 -3.39798304900490 -0.35747101860186
 1 -1.43557172367237 -4.16742318201820  3.55131804710471
 1 -2.81869147774777 -5.07987960556056  3.85615845474547
 1 -1.32402051355136 -5.75629490269027  2.72892684558456
 1  3.03162246634663 -1.70460229612961 -1.43095706070607
 1  2.45580305790579 -0.06563228362836 -2.01522467466747
 1  4.07247815341534 -0.90790300550055  0.45174839083908
 1  4.26983594709471  1.23609231963196 -2.61673004270427
 1  5.57111252295230  2.20402066096610 -1.99339580778078
 1  6.00758806640664  0.80089119661966 -2.88711744274427
 1  6.77883994689469  1.41762576257626  0.08431107390739
 1  6.41743586298630  0.22649461206121  0.81023073977398
 1  7.39649703440344 -1.17635687088709 -1.38450977457746
 1  7.94677711361136  0.23892710081008 -1.92211513511351
 1  9.07316936853685  0.67188507350735  0.40315794799480
 1  8.90312880158016 -1.00626613281328  0.72028989268927
 1  10.45052260366037  0.11005354305431 -1.76139102860286
 1  9.45768075357536 -2.42422039853985 -1.97103302810281
 1  10.98522107780778 -2.63510029392939 -1.74201844574457
 1  9.91212409840984 -2.83373531553155 -0.39288872857286
 1  11.25457313821382  0.66783901410141  0.43530501800180
 1  11.61168422182218 -1.05144110541054  0.80963158475848
 1  12.75767908680868 -1.40856901810181 -1.04310197779778
 1  12.69794354685468  0.24355504650465 -1.73756711801180
 1  13.66906834353435  1.12504506050605  0.39370671367137
 1  13.93204595769577 -0.67051665636564  1.00978749524953
 1  15.64751804030403  0.37527701270127 -1.59476383438344
 1  15.74396183908391 -2.30381067316732  0.00141868796880
 1  15.05653870457046 -1.88802117771777 -1.72528994409441
 1  16.72873250265027 -1.53587911281128 -1.35078654815481
 1  16.08993419411941  1.39332716641664  0.62792933723372
 1  16.27936238343834 -0.22253142824282  1.26238900010001
 1  18.27876881558156 -0.51641818921892 -0.51369470987099
 1  17.83575063956396  1.07772509140914 -1.08211178697870
 1  18.59529032163216  2.12710686838684  1.23920192549255
 1  18.96894405470547  0.53904808580858  1.69060906120612
 1  20.58092300500050  0.32966911511151  0.16034309830983
 1  19.98372247884788  3.06690025192519 -0.92312590599060
 1  21.35450970307031  2.22438909170917 -1.53795515881588
 1  19.60464436883689  1.57631944274427 -2.03137010601060
 1  21.30089606480648  1.37174528362836  2.23946356355636
 1  22.13467517381738  1.89482071177118  1.07312227852785
 1  20.68384811471147  2.87556764006401  1.37602804330433

