%nproc=4
%Mem=2GB
# td=(NStates=1) CAM-B3LYP/6-31G(d,p) 

TD

0 1
<<<<<<< HEAD
12 -7.16544711771177  0.61219996809681  0.00356804420442
 6 -4.89863448144814 -2.04231540994099  0.48359489218922
 6 -4.83716364526453  2.83027147444744  1.10210657555756
 6 -9.53038777427743  3.09946544204420 -0.35719857955796
 6 -9.53781409510951 -1.76174168516852 -0.79557598669867
 7 -5.05548897349735  0.38291810991099  0.57247766606661
 6 -4.36211591769177 -0.72437225922592  0.74292231543154
 6 -2.95218422382238 -0.37926735243524  1.28998935313531
 6 -3.07194063246325  1.02691535983598  1.72398312901290
 6 -4.34778177307731  1.50847159595960  1.09823685358536
 6 -2.96887196929693  1.13731601970197  3.14277568646865
 6 -1.98095155615562 -0.57670293169317  0.04691865016502
 6 -0.53850127272727 -0.44361870907091  0.58319244854485
 6  0.50493163036304 -0.62501601450145 -0.56667204770477
 8  0.33881512161216 -0.85111051865187 -1.79823615531553
 8  1.78973078357836 -0.57767516391639 -0.01859864876488
 7 -7.12252270017002  2.64197978777878  0.18485718121812
 6 -6.05299457845785  3.43337431323132  0.65411894549455
 6 -6.45758301140114  4.77207149654966  0.62986367356736
 6 -7.83613632063206  4.80926155765577  0.34529292059206
 6 -8.16369064066407  3.48535773107311 -0.01094854855486
 6 -5.45199315601560  5.82328479437944  1.11942670317032
 6 -8.52692048964896  6.01105213891389  0.10473745914591
 6 -8.40378426972697  7.24614073267327  0.63603985378538
 7 -9.09016128872887  0.65542840394039 -0.50592462616262
 6 -9.91142740244024  1.80057001010101 -0.54796112021202
 6 -11.24200329692969  1.44039237833783 -1.16408812831283
 6 -11.26186859075908  0.03467883198320 -1.27146586058606
 6 -9.94654033473347 -0.38136011031103 -0.82922793889389
 6 -12.29714853855386  2.40768133913391 -1.39170594539454
 6 -12.36671121742174 -0.68468587868787 -1.76127693619362
 6 -12.48064555295530 -0.98171058225823 -3.20953607220722
 7 -7.21530099839984 -1.38663827742774 -0.07559223622362
 6 -8.29540978077808 -2.23698887098710 -0.46103105830583
 6 -7.83586973257326 -3.65390365786579 -0.49635691299130
 6 -6.57089097319732 -3.63453779077908 -0.18286001790179
 6 -6.19382197859786 -2.17104538583858  0.12986579077908
 6 -8.67853532093209 -4.71168401080108 -0.90673915231523
 6 -5.33028749904990 -4.43431731523152  0.14810768336834
 8 -5.15180401830183 -5.65920040344034  0.14493152385239
 6 -4.15749932933293 -3.35565135493549  0.60742060736074
 6 -3.52924355525553 -3.77308252955296  1.88381875477548
 8 -3.71585318591859 -3.17840457665767  2.96975965706571
 8 -2.75557675137514 -4.86236095849585  1.70653923482348
 6 -2.20440102800280 -5.38169239833983  3.02160709620962
 6  2.81219373107311 -0.61793958855886 -1.06337753815382
 6  4.12247433643364 -0.35385356165617 -0.29667981698170
 6  5.17389087348735  0.37575384078408 -0.80097987068707
 6  5.04977340034003  1.06414906420642 -2.15620978627863
 6  6.48332266506651  0.56090794099410 -0.11050753595360
 6  7.68799633753375  0.03518317141714 -0.91110806130613
 6  8.99049092169217  0.13805867546755 -0.10022183498350
 6  10.27345797029703 -0.41691876357636 -0.89837080758076
 6  10.08986568676868 -1.85341627772777 -1.08951241624162
 6  11.46071894879488 -0.11691547234723 -0.06856598799880
 6  12.82054696239624 -0.41610566166617 -0.61739176207621
 6  14.04161362976298 -0.02309351215122  0.24336140364036
 6  15.41783790869087 -0.31114484358436 -0.42986122592259
 6  15.61301297019702 -1.77673530733073 -0.76966658435844
 6  16.45719982588259  0.28976333633363  0.41340584778478
 6  17.84821941134113  0.39012041044104 -0.27718353295330
 6  18.87024739423942  1.16459467646765  0.60611104410441
 6  20.27945661486148  1.30996132963296  0.06173093629363
 6  20.21764311811181  2.29643794099410 -1.24314530723072
 6  21.28229916071607  1.77017995429543  1.18530389378938
 1 -4.24152563706371  3.57357287868787  1.52802738963896
 1 -9.97818821152115  4.03837467246725 -0.25961135263526
 1 -10.43265655505551 -2.35775511631163 -1.03870052225223
 1 -2.47268372527253 -1.05258357225723  2.10582127332733
 1 -2.26731033623362  1.80087366996700  1.43411406180618
 1 -1.93559801730173  0.84133458635864  3.50926463996400
 1 -3.28762382238224  2.12143620112011  3.40612277767777
 1 -3.71468491119112  0.59433411741174  3.91577399019902
 1 -1.98143062796280 -1.57032699309931 -0.24784869406941
 1 -2.35936760926093  0.04688193859386 -0.66187622722272
 1 -0.28605212261226  0.55220983488349  1.13367376647665
 1 -0.33379118111811 -1.07330184538454  1.29042299749975
 1 -5.78538731413141  6.81408005210521  0.72822853205321
 1 -5.63928091749175  5.96686004910491  2.06742303940394
 1 -4.38088204420442  5.61881304770477  1.12241541714171
 1 -9.21395344784478  6.06730287838784 -0.62321254945495
 1 -9.00812202810281  7.95076581548155  0.41015063686369
 1 -7.68623808960896  7.37805420492049  1.46964535003500
 1 -12.06268037313731  2.84329465546555 -2.50365337003700
 1 -13.26192586178618  1.90876476767677 -1.29272046354635
 1 -12.18861059215922  3.47061571627163 -0.85858710271027
 1 -12.44362914131413 -1.59424886998700 -1.15759071397140
 1 -13.30045876477648 -0.19477621442144 -1.56531205870587
 1 -13.25457180978098 -1.64389907610761 -3.54446433093309
 1 -12.48963252745275 -0.03331786938694 -3.81247474317432
 1 -11.38524480378038 -1.20524539163916 -3.74474309430943
 1 -9.04525412841284 -4.60434117701770 -1.90994425852585
 1 -8.10854021882188 -5.72916292049205 -0.62049166216622
 1 -9.55000488538854 -4.98834385568557 -0.27698952155216
 1 -3.41804250015001 -3.33863711441144 -0.11430670217022
 1 -1.63163132963296 -4.72232867256726  3.51017393269327
 1 -2.97484709330933 -5.65679729732973  3.72848568746875
 1 -1.43417152865287 -6.11071034423442  2.47097105000500
 1  2.94573387748775 -1.71907374327433 -1.32896686168617
 1  2.44832230983098 -0.00181590199020 -1.82101525372537
 1  4.07665857145715 -0.85224743994399  0.82960617661766
 1  4.06565552905291  1.39126783718372 -2.55792416211621
 1  5.70689610131013  1.97220747964796 -2.06607307550755
 1  5.44596190379038  0.36785789328933 -2.89426815781578
 1  6.62985504840484  1.58471247124712  0.12237488028803
 1  6.23840796019602 -0.10493853125313  0.83411312801280
 1  7.37678506320632 -0.85550478567857 -1.27592891649165
 1  7.91642407830783  0.66730993909391 -1.69827275087509
 1  9.06864891649165  1.23173105810581  0.26218385058506
 1  9.05452394109411 -0.31616712291229  0.83568143184318
 1  10.41619917131713  0.14111664936494 -1.86370125962596
 1  9.08320330583058 -2.35633360986099 -1.49139506430643
 1  10.68287084278428 -2.28616540044004 -1.84487873177318
 1  10.00843372937294 -2.43471541354135 -0.27934737443744
 1  11.38997667856786  0.96626885708571  0.13206469396940
 1  11.40680373377338 -0.51997795909591  0.93175379697970
 1  13.01594491339134 -1.37223538473847 -0.95456312391239
 1  12.89785353785378  0.12834352535254 -1.75060842214221
 1  14.05473691039104  1.14042659865987  0.51515885888589
 1  14.15610836393639 -0.56541614631463  1.18249476597660
 1  15.53402669116912  0.31474095909591 -1.43937829582958
 1  15.37037448034804 -2.33446373847385  0.16985553165317
 1  14.74286733743374 -2.12796517211721 -1.34650206530653
 1  16.53059268866887 -2.02443796869687 -1.51200266976698
 1  16.11835703640364  1.41613944764477  0.61393793809381
 1  16.50512495969597 -0.27325650075007  1.41080384158416
 1  18.29892083078308 -0.58686523392339 -0.68700204060406
 1  17.80808787328733  1.03014033293329 -1.26030960676068
 1  18.36594738733874  2.10575473317332  0.70451845714571
 1  18.83299045934594  0.59967414841484  1.67515751605160
 1  20.95193010571057  0.46575272347235 -0.15318825482548
 1  19.55188929552955  3.15128869076908 -0.93332692609261
 1  21.29057330943094  2.58593524632463 -1.45390675397540
 1  19.90720462486249  1.63724553535354 -2.08313528252825
 1  21.40734670987099  0.95805391449145  2.02459207640764
 1  22.17345905220522  2.10655188488849  0.79051401770177
 1  20.97487721762176  2.83827391069107  1.66953739423942
=======
12 -7.12232280528053  0.61848059615962  0.11658934633463
 6 -4.85823044104410 -1.91380255865587  0.64200073277328
 6 -4.80402033093309  2.88883733103310  1.08816518141814
 6 -9.43648838433843  3.03612910841084 -0.53045590529053
 6 -9.45406572027203 -1.84982049304931 -0.86927335643564
 7 -5.15513893849385  0.46275609370937  0.73770418871887
 6 -4.34074378047805 -0.66253607560756  0.86263428662866
 6 -2.95108411381138 -0.26595602130213  1.30295064926493
 6 -3.05768920732073  1.12692536083608  1.65215594629463
 6 -4.44425142004200  1.48161891069107  1.09270630053005
 6 -3.16445152725273  1.39833212131213  3.21264267316732
 6 -1.90743420442044 -0.53974923632363  0.20520447874787
 6 -0.54141156375638 -0.41134548174817  0.56634076337634
 6  0.44466560376038 -0.61578509140914 -0.64529991049105
 8  0.16808804890489 -1.17897330493049 -1.74380071177118
 8  1.73166497699770 -0.38594599099910 -0.33775056395640
 7 -7.10850129802980  2.62912850265027  0.33656235173517
 6 -5.99069834883488  3.35346632243224  0.74299783338334
 6 -6.45710296339634  4.68284257365737  0.81674236143614
 6 -7.79607231423142  4.79184981648165  0.41530992229223
 6 -8.18524279587959  3.47322651795180  0.09492203850385
 6 -5.42441039773977  5.71331379727973  1.20248500900090
 6 -8.50436823442344  6.00956198989899  0.19271625702570
 6 -8.42820671197120  7.17342346094609  0.93594984478448
 7 -9.05134740734073  0.63911677277728 -0.53289732343234
 6 -9.80346660636063  1.79069902300230 -0.69188551265126
 6 -11.00946004260426  1.42660099919992 -1.27399911941194
 6 -11.19548195209521  0.05245060916092 -1.32337105110511
 6 -9.86509218991899 -0.44127610191019 -0.91882689878988
 6 -12.23503232693269  2.39809038003800 -1.43089986478648
 6 -12.37327187348735 -0.77707511761176 -1.75831664016402
 6 -12.12346983538354 -1.07105951715172 -3.27663278187819
 7 -7.17533700200020 -1.44117373097310 -0.09638431543154
 6 -8.24439467926793 -2.26698187028703 -0.53013796899690
 6 -7.72775892149215 -3.67616588408841 -0.52991026832683
 6 -6.42303618771877 -3.57813215021502 -0.07496922882288
 6 -6.11116371277128 -2.20481876317632  0.08169097329733
 6 -8.53789125652565 -4.84255709810981 -0.89329780818082
 6 -5.28495296559656 -4.37051093459346  0.19323219581958
 8 -5.09845868376838 -5.58665314871487  0.29275630633063
 6 -4.14125770517052 -3.23727951775178  0.64657452275228
 6 -3.48395902680268 -3.63236845814581  1.97982835573557
 8 -3.70546214681468 -3.05298203440344  2.99986266736674
 8 -2.62502369606961 -4.64085880828083  1.83653223412341
 6 -2.00115070297030 -5.24053828292829  2.98816375187519
 6  2.71543405510551 -0.60918871347135 -1.30460166056606
 6  4.05936802580258 -0.22505068136814 -0.66821697069707
 6  5.13074655905590  0.44797106250625 -1.05366513921392
 6  5.04910333333333  1.31314396369637 -2.24132829812981
 6  6.35244957775778  0.47675952615262 -0.30310679587959
 6  7.52450998889889 -0.09829017591759 -0.99878682918292
 6  8.87695956855686 -0.07940307070707 -0.13973578637864
 6  10.16814743924392 -0.64601167286729 -0.89570054055406
 6  10.00444714491449 -2.16462739883988 -1.28498196319632
 6  11.34967784468447 -0.45985976677668 -0.07603673507351
 6  12.75321022872287 -0.50244429552955 -0.78498852175218
 6  13.86599606800680 -0.05973717651765  0.10290735823582
 6  15.26771289618962 -0.18888261736174 -0.56213445324532
 6  15.58432010091009 -1.70020765456546 -0.79922954065407
 6  16.36564066996700  0.41800616061606  0.37315182238224
 6  17.81573616301630  0.55542694109411 -0.24729054365437
 6  18.70869123862386  1.20742895989599  0.77196762976298
 6  20.19899856905690  1.26938727222722  0.34218898209821
 6  20.48157951175117  2.15362365956596 -1.05090608330833
 6  21.10641157195720  1.80805374167417  1.49042440584058
 1 -3.88230971547155  3.57383290469047  1.39425401230123
 1 -10.24428482118212  3.83703453845385 -0.85328071957196
 1 -9.96170946034603 -2.71412075287529 -1.18229488168817
 1 -2.52616907380738 -0.88140645454545  2.16183687488749
 1 -2.30576418161816  1.73779736233623  1.26549720012001
 1 -1.96407086458646  1.31331178407841  3.66493020652065
 1 -3.53496855685569  2.39614367186719  3.35262742814281
 1 -3.73406684938494  0.48541322532253  3.60364277707771
 1 -2.13647613251325 -1.64897485788579 -0.19244315351535
 1 -2.07484915741574  0.25633288368837 -0.74690473007301
 1 -0.35638915631563  0.69715432933293  0.78678907800780
 1 -0.45405320732073 -1.10138465366537  1.28882283748375
 1 -5.92267104250425  6.78380702480248  0.84295000420042
 1 -5.39357634703470  5.87766112921292  2.43599989708971
 1 -4.53139709570957  5.57018818521852  0.95729890549055
 1 -9.28876092859286  6.07983413151315 -0.49464969316932
 1 -8.92667388328833  8.01403214211421  0.57648727052705
 1 -7.79993945974598  7.51424782428243  1.82601098659866
 1 -12.02544664976498  3.12212253825383 -2.47011001570157
 1 -13.12187185638564  1.99396328752875 -1.77016820832083
 1 -12.51068279937994  3.24074272897290 -0.69701094509451
 1 -12.33920869926993 -1.76693613871387 -1.17099205410541
 1 -13.48281700060006 -0.19595633243324 -1.48883441094109
 1 -13.26431278387839 -1.63765845204520 -3.46693657815782
 1 -12.06601016521652 -0.14007854545455 -3.81589508520852
 1 -11.28445472477248 -1.63811867896790 -3.56360498049805
 1 -8.69694929792979 -4.86474721762176 -1.98904216831683
 1 -7.87893725852585 -5.88690869506951 -0.59092870587059
 1 -9.36800668556856 -4.87312233353335 -0.30152197479748
 1 -3.36905760166017 -3.32601585228523 -0.07395266676668
 1 -1.13451161766177 -4.59523596329633  3.46800971627163
 1 -2.81185079367937 -5.63207482508251  3.63418625752575
 1 -1.36162427392739 -6.03552282548255  2.68710266316632
 1  2.80661996609661 -1.81985382128213 -1.60197416241624
 1  2.38881635923592 -0.26963268366837 -2.44530768296830
 1  4.22131303690369 -0.89368158335834  0.19142235823582
 1  4.01880084358436  1.62556126652665 -2.55648401810181
 1  5.39646505820582  2.30454071297130 -2.09247571577158
 1  5.61459876747675  0.76011711921192 -3.04642337333733
 1  6.68223028592859  1.48749274927493 -0.05949330653065
 1  6.07718183758376  0.01543350595060  0.73236295299530
 1  7.28731611631163 -1.15433466866687 -1.28296962056206
 1  7.69880231613161  0.69985319341934 -1.89381230483048
 1  8.92842489408941  1.09577746274627  0.07239487168717
 1  8.72236072477248 -0.56447195339534  0.94763262696270
 1  10.24180173157316 -0.14185164746475 -1.82313720322032
 1  9.09966495199520 -2.43076105260526 -1.80051597639764
 1  10.87269982568257 -2.52140892479248 -1.98129237313731
 1  9.98739162516252 -2.77191913391339 -0.40358979867987
 1  11.30758843974397  0.53435566576658  0.39381086858686
 1  11.33716677007701 -1.17210317161716  0.77958858045805
 1  12.86523984288429 -1.35391355255526 -0.99897756535654
 1  12.75594934743474  0.22802349334934 -1.80213357465747
 1  13.44361579827983  1.01933448944894  0.21616895989599
 1  13.88916166926693 -0.73772337703770  0.84502101860186
 1  15.11507479597960  0.39554903990399 -1.49164352235224
 1  15.69630707360736 -2.18920921302130  0.14125267136714
 1  14.83289634033403 -2.10529290489049 -1.33532094719472
 1  16.57070670007001 -1.71975750065006 -1.46839830933093
 1  15.98642384308431  1.36157399109911  0.67548409270927
 1  16.51833628082808 -0.16760593569357  1.19870263146315
 1  17.97095803450345 -0.42137868526853 -0.46834017441744
 1  17.66405346984699  1.00955827472747 -1.30899447524752
 1  18.50896168876888  2.42554671237124  0.83918192349235
 1  18.73143030333033  0.56166034703470  1.64272427272727
 1  20.51688660136014  0.26349249744974  0.18540560456046
 1  20.12220632723272  3.15308887078708 -0.79780337373737
 1  21.62653690579058  2.32005865866587 -1.20835219851985
 1  19.99448335273528  1.70634244504450 -1.86730369936994
 1  21.12326830203020  0.98914702380238  2.17744736193619
 1  22.22740444674467  2.13567479717972  0.97247221352135
 1  20.50583031293129  2.62370245354535  1.80661110161016
>>>>>>> 8e03b5b5abfc0030b3aa597dc0de36371bfbd096

