%nproc=4
%Mem=2GB
# td=(NStates=1) CAM-B3LYP/6-31G(d,p) 

TD

0 1
12 -7.17735830883088  0.58753750185019  0.11073876127613
 6 -4.82484710271027 -2.03155433383338  0.58483501620162
 6 -4.76790671957196  2.73957240454045  1.19542590749075
 6 -9.35287002250225  3.18423391889189 -0.58585144484448
 6 -9.45145545924592 -1.66924243524352 -0.89142557165717
 7 -5.02964638923892  0.35449526762676  0.70307072537254
 6 -4.36697640374037 -0.76432625462546  0.81002902610261
 6 -2.83403240864086 -0.43202262796280  1.22297265146515
 6 -2.95792923132313  1.09162183048305  1.66653738443844
 6 -4.28009500440044  1.50068081688169  1.13112014191419
 6 -2.79891497359736  1.45070735883588  3.13457486638664
 6 -1.91394485548555 -0.67496275767577  0.14336829512951
 6 -0.45504292689269 -0.56323067026703  0.57043117241724
 6  0.49316045324532 -0.72914642754275 -0.54642002250225
 8  0.13648488858886 -1.08798420602060 -1.64658098979898
 8  1.80745255575558 -0.51173857025703 -0.17418420732073
 7 -7.12079252715272  2.62541813161316  0.35229392489249
 6 -5.97072635163516  3.31640261606161  0.75663919751975
 6 -6.32116937003700  4.69754404380438  0.74544523172317
 6 -7.69438214521452  4.80059069056906  0.36294468576858
 6 -8.12468674027403  3.46427562286229  0.03343588988899
 6 -5.45087304400440  5.84053651955196  1.17457221772177
 6 -8.52194999259926  6.06325735943594  0.14318130353035
 6 -8.32428631993199  7.15329144774477  0.87463371317132
 7 -9.15840811341134  0.72383524462446 -0.52646668036804
 6 -9.86659291899190  1.80139009210921 -0.69072539663966
 6 -11.22221131773177  1.45974431353135 -1.26786850635064
 6 -11.22522492639264  0.15213057715772 -1.26688540254025
 6 -9.93277895859586 -0.32952492679268 -0.89103411951195
 6 -12.26456528022802  2.57158772977298 -1.45307208200820
 6 -12.38123266956696 -0.69392680278028 -1.78359916841684
 6 -12.22054954335434 -1.16666907810781 -3.30278539713971
 7 -7.18537800610061 -1.37351696529653 -0.22256693369337
 6 -8.23173341314131 -2.19757492959296 -0.52419737493749
 6 -7.81078722432243 -3.57280554805481 -0.55268254555456
 6 -6.50610449454946 -3.58010234723472 -0.07232896479648
 6 -6.19923251965196 -2.17331561286129  0.15662846704670
 6 -8.51803927132713 -4.86917976037604 -0.96601507990799
 6 -5.37893236353635 -4.38704258775878  0.13156602920292
 8 -5.28672751065107 -5.57132161556156  0.07027405810581
 6 -4.21737531693169 -3.37656344614461  0.67930779607961
 6 -3.68411904280428 -3.71798702000200  2.02008238113811
 8 -3.83537513811381 -3.21457819401940  3.06093877497750
 8 -2.85672686638664 -4.81681640404040  1.89147772867287
 6 -2.19492007990799 -5.20837506660666  3.05926086158616
 6  2.83136564826483 -0.69308710331033 -1.19110031043104
 6  4.10308239723972 -0.37002517881788 -0.51381153015302
 6  5.10741422582258  0.37244350975098 -0.92582235493549
 6  4.97780620362036  1.23627627692769 -2.24906907220722
 6  6.45128946174617  0.46751860206021 -0.29507599279928
 6  7.68995653355336  0.03427308040804 -1.06918386888689
 6  8.88084995759576  0.00354522412241 -0.16518833163316
 6  10.18061868636864 -0.43988105980598 -0.95873684418442
 6  10.02826952715271 -1.96540747684768 -1.30623408840884
 6  11.37031990889089 -0.22126590739074  0.13212408100810
 6  12.72202711041104 -0.45484953605361 -0.62376239913991
 6  14.04519398779878 -0.03612481528153  0.19032610011001
 6  15.36691281618162 -0.33547727682768 -0.54439267906791
 6  15.74368603750375 -1.76875450925092 -0.66490610831083
 6  16.35340944684468  0.42404676467647  0.44615912311231
 6  17.73467805720572  0.66476787518752 -0.21246706130613
 6  18.80164053355336  1.25847406440644  0.73394382738274
 6  20.27397606680668  1.34876521002100  0.12720748394839
 6  20.26449780358036  2.14171246844684 -1.17086807950795
 6  21.10111104190419  1.94627756405641  1.11772713611361
 1 -3.99629111361136  3.44136965836584  1.51053564046405
 1 -10.13702409510951  3.83928476347635 -0.54028942044204
 1 -10.14916820622062 -2.42344168496850 -1.11622827502750
 1 -2.58117457435744 -0.94817313121312  2.08569926112611
 1 -2.16141974717472  1.63307689028903  1.08988963936394
 1 -1.78305276277628  1.19272972587259  3.54201791529153
 1 -3.12876793679368  2.47997205470547  3.25841800720072
 1 -3.46424986768677  0.64266895089509  3.71589400220022
 1 -2.09826231113111 -1.67724768516852 -0.30365427462746
 1 -2.05356702920292  0.07782503290329 -0.58069810941094
 1 -0.50694421182118  0.23973858775878  0.94580497959796
 1 -0.35034283628363 -1.44747926312631  1.25368932413241
 1 -5.75111388678868  6.77148579267927  0.65411112031203
 1 -5.58198518791879  6.18447181028103  2.16637293439344
 1 -4.43149710571057  5.60495166156616  0.85042821842184
 1 -9.40781283378338  5.95047119521952 -0.53761398959896
 1 -8.78755997189719  7.90889162806281  0.61352097389739
 1 -7.66348581438144  7.28546494599460  1.80025841134113
 1 -11.98593269836984  3.54298462446245 -1.99821282598260
 1 -13.07408707790779  1.92875676687669 -1.95190638213821
 1 -12.70950268136814  2.81485013971397 -0.24163540754075
 1 -12.42084686308631 -1.45427487258726 -1.08168312321232
 1 -13.51535025392539 -0.21886862366237 -1.68040356785679
 1 -13.10900725332533 -1.55312999919992 -3.60482036653665
 1 -11.79117268146815 -0.37467200480048 -3.98041153685369
 1 -11.32035831513151 -2.03495836293629 -3.49284790479048
 1 -9.04543414641464 -4.65515625852585 -1.81526479057906
 1 -7.84307367216722 -5.74771477567757 -1.04079369236924
 1 -9.35510539543954 -5.13946896819682 -0.40393221582158
 1 -3.27686838273827 -3.40589384008401  0.08818354685469
 1 -1.61044921142114 -4.49659609930993  3.45604852015202
 1 -3.03206281488149 -5.67883950155016  3.77423026192619
 1 -1.70039815131513 -6.18040731393139  2.76614056695670
 1  2.86729603370337 -1.74302613851385 -1.71533549854985
 1  2.32956043364336 -0.03050877127713 -1.97144029622962
 1  4.27388829442944 -1.08140035523552  0.37671088708871
 1  3.83191215471547  1.15527423782378 -2.44916328602860
 1  5.29348476017602  2.28166842574257 -1.90370683888389
 1  5.48499580718072  0.91547265476548 -3.26136486748675
 1  6.46694875777578  1.37132113211321 -0.03960131733173
 1  6.18292241164116 -0.03049108650865  0.62148186488649
 1  7.43730111481148 -0.85495473067307 -1.65588691229123
 1  8.00442287818782  0.58506171427143 -1.94383730733073
 1  9.07380943254325  1.02254013901390  0.33497112931293
 1  8.82499098779878 -0.64306981318132  0.74440230393039
 1  10.35494304570457  0.18405094279428 -2.06387127662766
 1  9.09480446594659 -1.96707468396840 -1.99666559135914
 1  10.92613516921692 -2.36578336223622 -1.73181742564256
 1  9.85309819581958 -2.61488343034303 -0.43831327102710
 1  11.26061374227423  0.94925715591559  0.45259674717472
 1  11.27609066246625 -0.92172813411341  0.96268689028903
 1  12.83279659855986 -1.48919708090809 -0.71825949354935
 1  12.77053080558056  0.17982867386739 -1.55345870717072
 1  13.83640507720772  0.98473102910291  0.40378772177218
 1  14.15585833893389 -0.50594019871987  1.26300281678168
 1  15.57805109360936  0.18047753275327 -1.54272863086309
 1  15.78517596049605 -2.42805309740974  0.32352089818982
 1  15.07960101080108 -2.29415179077908 -1.29678709380938
 1  16.62490211961196 -1.77703322822282 -1.12537400690069
 1  16.03699890059006  1.37259509320932  0.67171371567157
 1  16.35896034323432 -0.39232840794079  1.22287504870487
 1  18.21735267396740 -0.34512105950595 -0.11469480988099
 1  17.67687475197520  1.15008232713271 -1.02984656045605
 1  18.47549834243424  2.31369552725273  0.97914591989199
 1  18.91797895819582  0.76362054305431  1.50196019631963
 1  20.67473238593859  0.25280142834283  0.11128819281928
 1  19.58071217781778  3.06396995889589 -0.81271486488649
 1  21.35204945704571  2.51725837863786 -1.68429979327933
 1  19.59015291969197  1.72430424122412 -1.74904187318732
 1  21.10835681088109  1.40943905300530  2.10931054825482
 1  22.15905761206120  2.30357158685869  0.82029699599960
 1  20.76206593649365  2.85889597289729  1.52788322882288

