%nproc=4
%Mem=2GB
# td=(NStates=1) CAM-B3LYP/6-31G(d,p) 

TD

0 1
<<<<<<< HEAD
12 -7.12302287528753  0.59416816491649  0.09376706410641
 6 -4.81855647364736 -1.89010018841884  0.40243677637764
 6 -4.85162509140914  2.86048449574957  1.21280764566457
 6 -9.53216795229523  3.12700819631963 -0.37582044174417
 6 -9.52866318001800 -1.75938144914491 -0.67808423752375
 7 -5.10691411601160  0.43922374047405  0.60006042434243
 6 -4.24190389648965 -0.68055787778778  0.69359738293829
 6 -2.92909191459146 -0.40838026372637  1.14351470567057
 6 -3.06188962736274  1.14813748204821  1.54603533423342
 6 -4.39535653055306  1.45959670847085  1.07835486538654
 6 -2.70544562666267  1.30527281538154  3.08784019291929
 6 -1.84530799179918 -0.67805306670667  0.03900785908591
 6 -0.41945936853685 -0.47689203640364  0.52422655195520
 6  0.53217435463546 -0.93452696559656 -0.66400178067807
 8  0.17394863496350 -1.23128853645365 -1.76890322202220
 8  1.81172298279828 -0.60113751015102 -0.37078386728673
 7 -7.13962441034103  2.71981757155716  0.22057075257526
 6 -6.08179745874587  3.35885686148615  0.76799033263326
 6 -6.46352360546055  4.82678696809681  0.74739542674267
 6 -7.75045775277528  4.89697032853285  0.37003539483948
 6 -8.14108838043805  3.55347454275428  0.03284583088309
 6 -5.51128908560856  5.93278574447445  1.09598435893589
 6 -8.63781157875787  6.08005903960396  0.11283826922692
 6 -8.65535942724273  7.21684780338034  0.80910716051605
 7 -9.13139541214121  0.68195105620562 -0.45657969166917
 6 -9.92942920262026  1.82033198629863 -0.62881920602060
 6 -11.22290138673867  1.33291163026303 -0.97337905740574
 6 -11.21227363126313  0.03187855195520 -1.12685139913991
 6 -9.89513519421942 -0.39858183248325 -0.77803281938194
 6 -12.24520334403440  2.34782535353535 -1.21806858165817
 6 -12.39312385868587 -0.76039344944494 -1.71655246374637
 6 -12.10640812921292 -1.10190260146015 -3.17374249284928
 7 -7.15916538483848 -1.31424103770377 -0.15248992599260
 6 -8.33938417821782 -2.20641581368137 -0.38928388358836
 6 -7.86475262086209 -3.65325359285929 -0.35937321462146
 6 -6.54093797789779 -3.55495983298330 -0.07622935483548
 6 -6.20471306770677 -2.16492477377738  0.12450525472547
 6 -8.60185765316532 -4.86028887128713 -0.62906138453845
 6 -5.29320379067907 -4.36288017151715  0.10672354495450
 8 -5.12625146304631 -5.56418090149015  0.12531956265627
 6 -4.19091267066707 -3.35416120592059  0.50826069136914
 6 -3.51512214311431 -3.68111333263326  1.78250862376238
 8 -3.77440904150415 -3.10397713391339  2.84617729882988
 8 -2.68569976367637 -4.63926864926493  1.75060364126413
 6 -2.05210579847985 -4.91408563766377  3.05604053955396
 6  2.86507901960196 -0.73222101670167 -1.34718591899190
 6  4.20133222222222 -0.57796597289729 -0.61076122512251
 6  5.06660014441444  0.28740500590059 -0.98786855955596
 6  5.01019944294429  1.34708735803580 -2.15930009530953
 6  6.35566989978998  0.33305515571557 -0.16576306150615
 6  7.60682822072207 -0.19385973287329 -0.97139408990899
 6  8.92573444604460 -0.01943707410741 -0.13155496829683
 6  10.10467109160916 -0.45882295399540 -0.92706367686769
 6  10.05453215341534 -1.86745768186819 -1.55527899289929
 6  11.36342921982198 -0.23218699949995 -0.11365049644965
 6  12.75570047774777 -0.48503255435544 -0.80117013991399
 6  13.96591606000600 -0.04570577337734  0.19776684418442
 6  15.39669579447945 -0.23362709180918 -0.45826406620662
 6  15.81983365226523 -1.69584721852185 -0.73116273397340
 6  16.35272937883789  0.39354371437144  0.47162166936694
 6  17.85648023742374  0.41754315271527 -0.04408022262226
 6  18.76345671517152  1.25000321732173  0.85196562956296
 6  20.18863753295329  1.35685601910191  0.34919968316832
 6  20.26740809460946  2.21451974917492 -0.95563655635564
 6  21.21386231703170  1.77525046134613  1.36958232163216
 1 -4.20457194169417  3.71963748514851  1.76638122502250
 1 -10.31364175687569  3.91896273127313 -0.70223561506151
 1 -10.30998428782878 -2.48615795659566 -1.03293994619462
 1 -2.69047550445044 -1.00301861576158  2.08288898009801
 1 -2.47036064126413  1.67566114871487  0.70299094949495
 1 -1.67063152065206  1.00972142504250  3.42392610611061
 1 -2.77481254125413  2.42116617411741  3.48582074747475
 1 -3.46312975567557  0.72837752175218  3.82197461026103
 1 -1.98824130903090 -1.80663062346235 -0.32036594579458
 1 -1.91223289578958  0.00859811021102 -0.95272531213121
 1 -0.23478699609961  0.95889050295029  0.36339673877388
 1 -0.33862166416642 -1.05339985518552  1.60378433363336
 1 -5.78472724812481  6.81808045214521  0.54696040524052
 1 -5.79135612501250  6.01198456155616  2.15975227232723
 1 -4.50618457445745  5.55607677407741  1.05841901750175
 1 -9.35060711321132  5.88628477657766 -0.61226145434543
 1 -9.30323153905391  8.10627136603660  0.56139576137614
 1 -7.86739620542054  7.51450785028503  1.65273365886589
 1 -11.95888999409941  3.12100242624262 -1.82670567526753
 1 -13.22581225042504  2.02866675787579 -1.61585277677768
 1 -12.64419615071507  2.83134178887889 -0.29602084608461
 1 -12.57096187458746 -1.57689713481348 -1.19172412731273
 1 -13.29806852575257  0.01104436763676 -1.74311983948395
 1 -13.06409276187619 -1.76685137133713 -3.51827171167117
 1 -12.02813637783778 -0.32826736433643 -3.86256975267527
 1 -11.21846812611261 -1.41726659375938 -3.38735735573557
 1 -8.98279788278828 -4.85383612651265 -1.60184344844484
 1 -8.00473983878388 -5.81039104330433 -0.51745135813581
 1 -9.48916880178018 -4.83592861416142 -0.09518134073407
 1 -3.40015071097110 -3.47064031473147 -0.22144741624162
 1 -1.60197836433643 -3.99504594429443  3.54437735303530
 1 -3.01953156175618 -5.29177079467947  3.51357419631963
 1 -1.25077318881888 -5.60450972417242  2.85352930583058
 1  2.66959626372637 -1.73526536243624 -1.90487445244525
 1  2.79827730533053 -0.07860358075808 -2.20920407260726
 1  4.24813571917192 -1.17401961716172  0.18470168616862
 1  3.83701266476648  1.50424913531353 -2.34917328702870
 1  5.57391280298030  2.17982824172417 -1.85946241444144
 1  5.68849615721572  0.98098920642064 -3.06626535753575
 1  6.52467453035303  1.38707270727073  0.15669831263126
 1  6.24990911031103 -0.16646468386839  0.79044876157616
 1  7.53733111781178 -1.32116135133513 -1.37685900950095
 1  7.67035947184718  0.33636684478448 -1.82617554115412
 1  8.98718076967697  1.19903778877888 -0.07621998979898
 1  9.08373686238624 -0.43927943414342  0.82308017171717
 1  10.15871342274227  0.34871740944094 -1.90159504900490
 1  9.47050203570357 -2.13046102260226 -2.40827675247525
 1  10.89435199089909 -2.02769955385539 -2.27294153805381
 1  10.13095598159816 -2.67995993799380 -0.80290973067307
 1  11.16685436633663  0.67105933613361  0.43236472397240
 1  11.35189824322432 -0.91888785008501  0.70529115071507
 1  12.92209552845284 -1.52992115331533 -1.08759642724272
 1  12.78174192669267  0.28423911491149 -1.69703306460646
 1  13.75805724242424  0.89340189618962  0.52029937293729
 1  13.79567232033203 -0.68384798949895  0.96116263276328
 1  15.42106539503950  0.37900738573857 -1.27792215021502
 1  15.68232567546755 -2.36534682678268  0.27273581968197
 1  15.33825687638764 -2.34268664426443 -1.55489290439044
 1  16.84668429782979 -1.56859238413841 -1.10271174067407
 1  15.93691889258926  1.42547038073807  0.55545208950895
 1  16.39288373557356 -0.13810298539854  1.44243700490049
 1  18.46076701540154 -0.44006055345535 -0.05422876327633
 1  17.89013607810781  0.99751707060706 -0.97268084388439
 1  18.39409020162016  2.35572973067307  1.02313031833183
 1  18.87625478577858  0.78930311131113  1.83672367266727
 1  20.53830874357436  0.33147929612961  0.06350341434143
 1  20.02831693829383  3.23976753865387 -0.57304089748975
 1  21.34043829592959  2.40890754355436 -1.33112447574757
 1  19.70575447984799  1.90134194499450 -1.80373734273427
 1  21.06298227342734  0.98252636173617  2.33447306450645
 1  22.26136784308431  1.85091632133213  1.05144011031103
 1  21.00100983088309  2.85081516481648  1.50619105960596
=======
12 -7.19866043904390  0.61675042314231  0.07559524692469
 6 -4.84241885988599 -1.90344152255225  0.42875940864086
 6 -4.80302023092309  2.84534298159816  1.23665002990299
 6 -9.37503223872387  3.10480597609761 -0.37691055075508
 6 -9.53621393509351 -1.73305881688169 -1.00441687078708
 7 -5.07746117071707  0.44549436753675  0.82262268056806
 6 -4.27934764086409 -0.75679550155015  0.73958198139814
 6 -2.86742574797480 -0.41149057475748  1.27004735893589
 6 -2.96645008340834  1.06727939623962  1.60076080678068
 6 -4.33460045494549  1.50570131893189  1.15716274617462
 6 -2.95610069216922  1.22909519761976  3.17251866076608
 6 -1.90833429442944 -0.69453471487149  0.03426738503850
 6 -0.47042446504650 -0.42691703890389  0.43216734603460
 6  0.60243138033803 -0.74582809570957 -0.60862624312431
 8  0.30860210031003 -1.03218862646265 -1.73483981568157
 8  1.86567837833783 -0.53935133153315 -0.14887167606761
 7 -7.11966241414141  2.60678626842684  0.27765646114611
 6 -6.03388266726673  3.41243221902190  0.75768930253025
 6 -6.40741799489949  4.80460474987499  0.81564225142514
 6 -7.68403111011101  4.80893152465246  0.28957734903490
 6 -8.13186745834584  3.54536373167317  0.00000254655466
 6 -5.53349130583058  5.89640210611061  1.13644840534053
 6 -8.47777557515752  6.06492752645265  0.21939892529253
 6 -8.38317220852085  7.18819493809381  0.99111536133613
 7 -9.08622089468947  0.71198405950595 -0.59110314401440
 6 -9.86587284698470  1.79749970307031 -0.63815013911391
 6 -11.16387548414841  1.52994133323332 -1.12610432993299
 6 -11.23963636753675  0.12206757085709 -1.28239695369537
 6 -9.97562324302430 -0.36592856715672 -1.07843285938594
 6 -12.33345216891689  2.56100667166717 -1.37327410221022
 6 -12.34989953625363 -0.75955336543654 -1.70847165566557
 6 -12.29001649004901 -1.02503491469147 -3.33170828942894
 7 -7.17760722902290 -1.32700231383138 -0.11478615561556
 6 -8.33342358215822 -2.15879105120512 -0.57504245944594
 6 -7.78914506010601 -3.49895816331633 -0.42889016631663
 6 -6.49648353245325 -3.50873521052105 -0.04398613051305
 6 -6.22331492789279 -2.14017229852985  0.12138494269427
 6 -8.60971843924392 -4.70676351875188 -0.93504198259826
 6 -5.36841131143114 -4.34931881538154  0.25907878047805
 8 -5.32882172007201 -5.55812029542954  0.52986001670167
 6 -4.17123070247025 -3.26421221102110  0.57484735003500
 6 -3.56149678057806 -3.65017023832383  1.90844121702170
 8 -3.78221982258226 -3.14946168236824  2.98209089018902
 8 -2.62325351905191 -4.62315703810381  1.68806738763876
 6 -1.96473706160616 -5.22272650175017  2.89191412691269
 6  2.84029654135414 -0.92655044964496 -1.10093129352935
 6  4.18639072807281 -0.65467364366437 -0.46622677167717
 6  5.17827131153115  0.09926619201920 -0.99751952465246
 6  5.03101152415242  0.87997064636464 -2.35812997829783
 6  6.45861019381938  0.34216606680668 -0.25128161336134
 6  7.63440097799780 -0.29790013691369 -1.06689363986399
 6  8.89673154575458 -0.21908703910391 -0.17249906270627
 6  10.24329495399540 -0.65863293499350 -0.89857082758276
 6  10.09471617181718 -2.12553348944894 -1.35372883788379
 6  11.39670254715472 -0.42211599239924  0.01235210381038
 6  12.77288219591959 -0.72926697779778 -0.66574659755976
 6  14.01858132653265 -0.26133733653365  0.15602266976698
 6  15.33102922782278 -0.25488921802180 -0.54674291409141
 6  15.72091376027603 -1.64259189298930 -0.89330894859486
 6  16.35276938283828  0.37321168116812  0.43897840504050
 6  17.70224481388139  0.67429882828283 -0.31634744934493
 6  18.58585895539554  1.51245946294629  0.74287472047205
 6  20.09183785298530  1.62279261276128  0.38280304350435
 6  20.29297065086509  2.35814411161116 -1.05773676637664
 6  20.93823475427543  2.29244218051805  1.43832919631963
 1 -4.22458394289429  3.59106462786279  1.73455804270427
 1 -10.04357475017502  3.96363719871987 -0.50385577707771
 1 -10.24621791119112 -2.58708804960496 -1.29087573977398
 1 -2.44440089698970 -0.90282859675968  2.18553924512451
 1 -2.18740234543454  1.63881746434643  1.08790944134413
 1 -1.90068452595259  0.98949940284028  3.65814952845284
 1 -3.17644270427043  2.18611266876688  3.38649081448145
 1 -3.65046848954896  0.42497718171817  3.86058847164716
 1 -1.97602008690869 -1.69565952635264 -0.46840074927493
 1 -2.37088876137614 -0.03442619221922 -0.82238227782778
 1 -0.35985950335033  0.59828444234423  0.89621002010201
 1 -0.21975977797780 -0.94150866606661  1.40967492269227
 1 -5.74732350775077  6.96811545564556  0.60268597779778
 1 -5.59132612201220  6.11948531163116  2.15244154125413
 1 -4.55284924092409  5.47791895829583  0.94734791039104
 1 -9.16725877837784  6.21438758685869 -0.53458368656866
 1 -9.17128834473447  8.03343408230823  0.65883550535054
 1 -7.77431689748975  7.24501090059006  1.76176456195620
 1 -12.22427653275328  3.20136046204620 -2.18445144984498
 1 -13.20775044424442  1.93024691589159 -1.49699089058906
 1 -12.28993072417242  3.21373002770277 -0.42126337033703
 1 -12.22574735313531 -1.79730917601760 -1.26890184508451
 1 -13.21453017191719 -0.28181491829183 -1.21516704420442
 1 -13.01400775337534 -1.66635132133213 -3.67466735123512
 1 -12.10027359155916  0.09631509390939 -3.67613110881088
 1 -11.24020029932993 -1.52670753785379 -3.44757337733773
 1 -8.55361496449645 -4.54293503640364 -2.00650391449145
 1 -8.14955432023202 -5.75354535873587 -0.58435804880488
 1 -9.82070195509551 -4.92303732503250 -0.47468929152915
 1 -3.50277097299730 -3.56701995269527 -0.34926019751975
 1 -1.21329949644964 -4.46104254395440  3.24640755605561
 1 -2.65308491709171 -5.34103572117212  3.78587142604260
 1 -1.53131124262426 -6.30553982718272  2.64172812571257
 1  2.72830213431343 -1.91942377827783 -1.46246021102110
 1  2.63782125972597 -0.60259597999800 -1.97283043524352
 1  4.38887979357936 -0.99416163136314  0.53720693669367
 1  3.96964592809281  0.99846855725573 -2.52909127882788
 1  5.22514792649265  2.04082434133413 -2.24548101630163
 1  5.42729003660366  0.51729283678368 -3.34242297329733
 1  6.56897896079608  1.42295629562956 -0.10650800800080
 1  6.18372249164917 -0.36547458485849  0.43271298799880
 1  7.53192057675768 -1.31890112531253 -1.10658198179818
 1  7.85215765166517  0.27525073317332 -1.94746767036704
 1  9.13546559815981  0.76272415741574  0.18394602680268
 1  8.60440892959296 -0.77473297949795  0.82618048174818
 1  10.30113766516652  0.07888042574257 -1.71066595609561
 1  9.07454243974397 -2.17318529502950 -1.72934885968597
 1  10.89184173987399 -2.42337912181218 -2.06464070797080
 1  10.07764065006501 -2.77101904390439 -0.56349578927893
 1  11.29533721462146  0.75910814101410  0.15822731023102
 1  11.34755780918092 -0.88488444974497  1.14318494009401
 1  12.96887020592059 -1.73321148234823 -0.97821548914891
 1  12.93714746724672 -0.21958126712671 -1.65208857015702
 1  13.79933136983698  0.80536309230923  0.59242658565857
 1  14.22388514161416 -0.87782738743874  0.98595511201120
 1  15.39289257775777  0.44378386338634 -1.55014937293729
 1  15.77467491039104 -2.26499679177918 -0.10094154805481
 1  14.69799284998500 -2.02973534913491 -1.59151656675668
 1  16.65281491089109 -1.59029455435544 -1.48183965346535
 1  15.89137433813381  1.25043287698770  0.87439398369837
 1  16.53224767196719 -0.40637981308131  1.18563132433243
 1  18.29252019071907 -0.24127067446745 -0.81032437283728
 1  17.47690475497550  1.43087040594059 -1.13355693149315
 1  17.96556734933493  2.45946010371037  0.66550455575558
 1  18.40744790509051  1.11288546954695  1.84414441474147
 1  20.48309322202220  0.51430757895790  0.30944800880088
 1  19.66987109370937  3.40713427532753 -1.04275786918692
 1  21.30627487958796  2.51448810161016 -1.39760112341234
 1  19.95472937733773  1.78708051885189 -1.91884885388539
 1  21.12339831503150  1.62174028312831  2.23423304050405
 1  21.97634934123412  2.56530776047605  1.02666763306331
 1  20.49542927282728  3.17128721202120  1.63815425592559
>>>>>>> 8e03b5b5abfc0030b3aa597dc0de36371bfbd096

