%nproc=4
%Mem=2GB
# td=(NStates=1) CAM-B3LYP/6-31G(d,p) 

TD

0 1
12 -7.14750532353235  0.64229297739774  0.10129781718172
 6 -4.77807242524252 -1.77174835323532  0.39810634333433
 6 -4.80426035493549  2.84727317461746  1.16174253915392
 6 -9.44134887038704  3.04650014551455 -0.29510236993699
 6 -9.49825013871387 -1.81612712371237 -0.87864429352935
 7 -5.13655708030803  0.50255007310731  0.83477389568957
 6 -4.31029073517352 -0.58693851585158  0.75750377357736
 6 -2.90621962736274 -0.34101352705271  1.12937329152915
 6 -3.04104754315432  1.08473114141414  1.73549428012801
 6 -4.30474746964696  1.54786553535354  1.14438146804680
 6 -2.91611669376938  1.23774606270627  3.22730413931393
 6 -1.95058851985199 -0.49685494689469  0.03167712601260
 6 -0.41442886548655 -0.47843219041904  0.43748787808781
 6  0.47789892709271 -0.73492700560056 -0.71069645014501
 8  0.16532777287729 -1.01091649924993 -1.89060539223922
 8  1.66920873137314 -0.62112950935094 -0.28822561146115
 7 -7.10594104200420  2.61822741254125  0.38430712621262
 6 -6.04372365136514  3.39789076487649  0.86452998659866
 6 -6.40041729482948  4.74639892929293  0.67527821502150
 6 -7.68619132613261  4.84838547004700  0.25794418571857
 6 -8.11749602120212  3.44055325062506  0.07145969226923
 6 -5.58156611331133  5.94906737263726  0.93764852535254
 6 -8.50681847944794  5.97904893859386  0.07133411881188
 6 -8.43406729802980  7.01310742934293  0.80737698749875
 7 -9.10614288688869  0.62789565066507 -0.51886592029203
 6 -9.90043630333033  1.75607556065607 -0.67262358645865
 6 -11.18180727732773  1.37683602270227 -1.06078779827983
 6 -11.21410381428143  0.06756212031203 -1.17421613561356
 6 -9.87139281998200 -0.43407538183818 -0.82689770587059
 6 -12.24930375407541  2.26310688168817 -1.33811058585859
 6 -12.28899344564456 -0.74072148224822 -1.65448625712571
 6 -12.24862235063506 -1.02253466466647 -3.26275139373937
 7 -7.19402887118712 -1.43009262286229 -0.02963764076408
 6 -8.19610985078508 -2.25676084818482 -0.48752370757076
 6 -7.78098424402440 -3.59426769426943 -0.47552482978298
 6 -6.51327521162116 -3.56147048404840 -0.02186391829183
 6 -6.19691228762876 -2.19869815111511  0.10810361456146
 6 -8.56621408880888 -4.93352619501950 -0.69560803920392
 6 -5.30801527182718 -4.30815469896990  0.22737561016102
 8 -5.12404124202420 -5.51964644804480  0.29594662536254
 6 -4.13710729012901 -3.18255404520452  0.50881074637464
 6 -3.55032566346635 -3.60723594489449  1.85576594949495
 8 -3.78759035963596 -3.10413714991499  2.88589127022702
 8 -2.58512970667067 -4.61972669506951  1.70889947084708
 6 -2.04313490139014 -5.18645287438744  2.87783271877188
 6  2.78947145884588 -0.62375016961696 -1.24945614601460
 6  4.09564165316532 -0.38795697199720 -0.69937008600860
 6  5.09286277067707  0.43739000440044 -0.97207698039804
 6  5.07273569656966  1.52174482378238 -2.12334649994999
 6  6.42609694249425  0.42443429362936 -0.18418490369037
 6  7.61846938483848 -0.07929827672767 -0.93802075257526
 6  8.94018589118912 -0.16742187258726 -0.17235904870487
 6  10.16337696219622 -0.52187925962596 -0.92817378787879
 6  10.06342304250425 -2.07960889698970 -1.27932139713971
 6  11.37311018791879 -0.30531431223122  0.01415228382838
 6  12.73970887858786 -0.55151920302030 -0.74053407630763
 6  13.93252272067207 -0.14815601840184  0.21432850035003
 6  15.25463158805881 -0.29273300240024 -0.43531177097710
 6  15.69027069596960 -1.71364899869987 -0.87191680938094
 6  16.32079618551855  0.28593295329533  0.54648915611561
 6  17.77755234463446  0.43843524192419 -0.03236905150515
 6  18.73594396389639  1.20933915091509  0.85753618661866
 6  20.20110878007801  1.37711804530453  0.14900966416642
 6  20.10929228302830  2.24177247444744 -1.01890288298830
 6  21.22961389218922  1.93076601290129  1.20643600700070
 1 -4.04593607810781  3.63410893229323  1.49129371627163
 1 -10.14350474317432  3.88480931593159 -0.48427381888189
 1 -10.18232152155215 -2.61232057285729 -1.38493514571457
 1 -2.71681813871387 -1.01741005490549  1.95661635283528
 1 -2.19312291749175  1.49526310891089  1.23170382078208
 1 -2.09877433493349  0.83382383528353  3.54698841234123
 1 -3.13162822282228  2.15667972547255  3.52579474487449
 1 -3.72096553925393  0.54184886888689  3.70783319611961
 1 -1.94662714761476 -1.30494045444544 -0.47397130633063
 1 -2.21437310981098  0.29462671307131 -0.76963700330033
 1 -0.12762628002800  0.55979059295930  0.81929232833283
 1 -0.30653845584558 -1.25069958515852  1.24644860006001
 1 -5.80675945134514  6.78496714081408  0.54287999719972
 1 -5.37342433183318  6.17366072917292  1.83150944804480
 1 -4.27921187718772  5.97195836223622  0.63982715831583
 1 -9.22571462396240  5.90771691979198 -0.84328455665567
 1 -9.12317353325333  7.86939767866787  0.29708933073307
 1 -7.92921238703870  7.20341674117412  1.80552893839384
 1 -11.91350545564556  2.89168949494950 -2.06893989868987
 1 -13.12474214341434  1.86863075427543 -1.81112230373037
 1 -12.67776950805081  2.75738439313931 -0.36997824182418
 1 -12.57058183658366 -1.59639908500850 -1.17553250815082
 1 -13.26000471937194 -0.06167290409041 -1.70026555405541
 1 -13.21632798539854 -1.56138082428243 -3.53723360786079
 1 -12.47298086228623 -0.01420595819582 -3.95283877957796
 1 -11.19556583588359 -1.49308417551755 -3.50537915791579
 1 -9.17356695969597 -4.93338408130813 -1.52426569066907
 1 -7.91920128492849 -5.57266727092709 -0.61958157115712
 1 -9.25971585648565 -5.40711573287329  0.15465364276428
 1 -3.29660035593559 -3.64377762846285 -0.11046631813181
 1 -1.44373253975398 -4.42498893859386  3.49103201850185
 1 -2.72131173977398 -5.80807242484248  3.58275111401140
 1 -1.20911902340234 -5.92480175337534  2.46562051495149
 1  2.55307461156116 -1.46146798269827 -1.79522348734874
 1  2.59573705130513  0.14093837343734 -2.05570872307231
 1  4.13802470807081 -1.00854306950695  0.25256847284729
 1  4.21331029452945  1.45689439983998 -2.54874324402440
 1  5.24376978867887  2.50278053695370 -1.67742421062106
 1  6.01548885648565  1.34096520402040 -2.78211694269427
 1  6.60029209210921  1.47357135713571 -0.01703906110611
 1  6.16453057245725 -0.11162920032003  0.91236095279528
 1  7.26478386308631 -1.07504673987399 -1.44818614221422
 1  7.96827926382638  0.35824903300330 -1.84321724532453
 1  9.01953400500050  1.02587047204720  0.43528116031603
 1  8.67529601830183 -0.87972347854786  0.64861272497250
 1  10.16437398879888  0.04441697939794 -1.84002889238924
 1  9.10448543404340 -2.30689866636664 -1.79175510031003
 1  10.98578113381338 -2.33773055695570 -1.93458770267027
 1  10.16767965396540 -2.67273921592159 -0.37733717341734
 1  11.51934961586159  0.63498572877288  0.16276776427643
 1  11.31085413881388 -0.80318627992799  0.95668629022902
 1  12.87664098299830 -1.65032319351935 -0.88297596519652
 1  12.66376012851285  0.12171286228623 -1.72853621492149
 1  13.79556099279928  0.70784334033403  0.82057940094009
 1  13.94845759885989 -1.04405401010101  0.90777729422942
 1  15.42887617611761  0.39545903090309 -1.21239559755976
 1  15.68164560746075 -2.33359365146515  0.15519406550655
 1  14.89420247094709 -2.33457583318332 -1.23151056615662
 1  16.57860749014901 -1.70627615251525 -1.17026849634964
 1  16.08541374207421  1.45646348004800  0.90618716301630
 1  16.46439088628863 -0.52161133623362  1.15609837103710
 1  18.12980391909191 -0.53860040744074 -0.36274961536154
 1  17.58971603610361  0.86752407130713 -0.99614319011901
 1  18.36192698529853  2.25041919961996  1.02408041334133
 1  18.91835899619962  0.54076825782578  1.66103610391039
 1  20.36514142684268  0.25171131933193 -0.04557749374937
 1  19.75229933653365  3.14710827272727 -0.85077867126713
 1  21.10969522162216  2.47573422622262 -1.41874323762376
 1  19.56416032043204  1.72698450925093 -1.61338830783078
 1  21.31793776897690  1.41848995809581  2.12685230243024
 1  22.32052375867586  1.67949917961796  1.15581054735474
 1  20.92999272917292  2.96132621592159  1.17747818831883

