%nproc=4
%Mem=2GB
# td=(NStates=1) CAM-B3LYP/6-31G(d,p) 

TD

0 1
12 -7.17543811681168  0.56378512661266  0.21142883028303
 6 -4.92202682068207 -2.00355153355336  0.48512504520452
 6 -4.80794072297230  2.78847729502950  1.24436080098010
 6 -9.27996273177318  3.06725222072207 -0.49840269997000
 6 -9.54841515521552 -1.80211572257226 -0.75987241634163
 7 -5.11953537813781  0.36388620672067  0.70268068636864
 6 -4.28294800090009 -0.76536635863586  0.77645566876688
 6 -2.91760076547655 -0.37560698639864  1.12282263646365
 6 -2.99717315571557  1.04336700500050  1.68385911661166
 6 -4.45033202810281  1.41385213401340  1.18789581948195
 6 -2.90075515761576  1.33041532963296  3.17449885878588
 6 -1.93799726072607 -0.57486274767477  0.03725768406841
 6 -0.44887230983098 -0.35624997219722  0.43425755505551
 6  0.51233237043704 -0.53883739663966 -0.69203458395840
 8  0.25321656175618 -1.06072147974797 -1.77800413211321
 8  1.78914072457246 -0.45011240764076 -0.34599138803880
 7 -7.01828227612761  2.55335092489249  0.17177587308731
 6 -5.98877815681568  3.31187216301630  0.81478501210121
 6 -6.42709996309631  4.68541283068307  0.84906559375938
 6 -7.65684839183918  4.82346297779778  0.28405679697970
 6 -8.07138140974097  3.40728992429243 -0.05524297799780
 6 -5.52694065076508  5.87268973487349  1.25780054055406
 6 -8.54569236683668  5.94419545324532  0.37203418881888
 6 -8.51845573687369  7.13376949554956  1.00715696549655
 7 -9.11706397899790  0.55067792889289 -0.45968000170017
 6 -9.82188844854485  1.76919687278728 -0.70955727982798
 6 -11.09315841244124  1.47824616371637 -1.16691841134113
 6 -11.30161256515652  0.11094645874587 -1.26976569056906
 6 -9.95506118681868 -0.45917789208921 -0.80259527562756
 6 -12.10737956165617  2.55727629862986 -1.60255703050305
 6 -12.45760030633063 -0.67707511761176 -1.89105991449145
 6 -12.18858634703470 -0.86738915011501 -3.47259237783778
 7 -7.22654212251225 -1.41337095069507 -0.11538621562156
 6 -8.32281252105211 -2.27493266536654 -0.39212416761676
 6 -7.84240038563856 -3.66898516601660 -0.50872815011501
 6 -6.53463734783478 -3.58088242524252 -0.08440017191719
 6 -6.20526312271227 -2.19382766406641  0.12341514571457
 6 -8.72218968636864 -4.79511235363536 -0.83679215761576
 6 -5.37630210051005 -4.34719860336034  0.26410928352835
 8 -5.30257909580958 -5.50210469386939  0.34990202090209
 6 -4.20818439783978 -3.23936972677268  0.64650451575158
 6 -3.68222885378538 -3.67907312861286  1.95528590149015
 8 -3.94009561016102 -3.03366010221022  3.04333701480148
 8 -2.69675086878688 -4.61266598899890  1.87382596349635
 6 -2.16513710161016 -5.10495472457246  3.04629956545655
 6  2.78016052775277 -0.80691848644864 -1.27132833323332
 6  4.19359144814481 -0.59914809110911 -0.63987413641364
 6  5.07984146854685  0.16239250465047 -1.10603037573757
 6  5.04707313031303  1.05433808310831 -2.29553371867187
 6  6.37795212801280  0.42162401260126 -0.32325881108111
 6  7.66927446534653 -0.11311165806581 -1.04776172667267
 6  8.99711158375838  0.02910778037804 -0.21174298709871
 6  10.26530715521552 -0.45591266296630 -0.90888185868587
 6  10.11481818201820 -1.96676761286129 -1.34559802480248
 6  11.40879375627563 -0.20086386718672 -0.02446157755776
 6  12.79121402910291 -0.42121617271727 -0.76991701460146
 6  13.93559302770277 -0.09537073987399  0.19329639713971
 6  15.27205333023302 -0.27114084318432 -0.34575281508151
 6  15.67074874377438 -1.73381101490149 -0.82833245094509
 6  16.39547365326533  0.37534189418942  0.51899640684068
 6  17.84963955335533  0.56874827322732 -0.16061187578758
 6  18.84138450795080  1.34697291429143  0.76431686468647
 6  20.19950862006201  1.32734306780678  0.21754651785179
 6  20.36067742154215  2.21090938813881 -1.07265825852585
 6  21.28873980478048  1.96033897019702  1.27407277067707
 1 -4.04712619711971  3.21022654405440  1.83027761466147
 1 -9.98547894059406  3.86154698969897 -0.54818020952095
 1 -10.24541783118312 -2.61075041584158 -0.89485613781378
 1 -2.52936939383938 -0.97507582148215  2.08786947814781
 1 -2.19559316451645  1.61937552015202  1.31193184358436
 1 -2.07479193669367  0.73381383428343  3.80053376687669
 1 -2.84044910491049  2.36420047754775  3.51725389078908
 1 -3.91310475317532  1.06226091009101  3.70593300610061
 1 -1.98611109600960 -1.60998095849585 -0.32985689488949
 1 -2.33487516001600 -0.02132488208821 -0.95611565116512
 1 -0.16263978137814  0.66906152005201  0.78404880398040
 1 -0.03395119711971 -1.06219073427343  1.28159211441144
 1 -5.78375715111511  6.77730637473747  0.94422013121312
 1 -5.91046803620362  6.05504886798680  2.24816111321132
 1 -4.40744470047005  5.66433760016001  1.24247742334233
 1 -9.43144519701970  5.77251339943994 -0.25275550375038
 1 -9.43806502240224  7.58806954585459  0.48894851665166
 1 -7.84457392319232  7.27452385188519  1.82032041754175
 1 -11.84297840294029  2.89754008000800 -2.80892389708971
 1 -13.07185685488549  2.11957584878488 -1.72479367086709
 1 -12.22713444454446  3.46020467516752 -1.03560480448045
 1 -12.29708448684869 -1.66722616771677 -1.41042599749975
 1 -13.30303902280228 -0.05643238003800 -1.72894842234223
 1 -13.01378773137314 -1.72163684988499 -3.78190807530753
 1 -12.43478704290429  0.11623708610861 -3.92408590429043
 1 -11.19491577087709 -1.18877374447445 -3.64167278727873
 1 -9.07220682368237 -4.73323406630663 -1.95920918501850
 1 -8.15829519431943 -5.71557156135614 -0.70275988898890
 1 -9.59123900880088 -4.68923394469447 -0.01765358795880
 1 -3.40381107700770 -3.80385363606361 -0.15828109960996
 1 -1.58862702920292 -4.30374681438144  3.46628954425442
 1 -2.97859746834683 -5.30080169776978  3.71541438033803
 1 -1.57714582608261 -5.82153142634263  2.87386133903390
 1  2.70590989508951 -1.76055789168917 -1.78332229722972
 1  2.55848332593259 -0.16607232763276 -2.12625577777778
 1  4.15347625322532 -1.06468868406841  0.30146336233623
 1  4.03320228372837  1.32389109950995 -2.67055542524252
 1  5.34553996569657  1.99416967586759 -1.78612508070807
 1  5.80259756735674  0.77756886438644 -3.09033776477648
 1  6.62086414931493  1.40081408140814  0.04477712051205
 1  6.39918403780378 -0.17576561396140  0.68592830953095
 1  7.75921330603060 -1.27549678487849 -1.28433975757576
 1  7.81588402430243  0.33885709380938 -1.99911283488349
 1  9.09416146774677  1.04300218521852  0.02537016921692
 1  9.05179366806681 -0.10993649984998  0.89973783748375
 1  10.61944949634963  0.21652419011901 -1.78950383988399
 1  9.44647963346335 -2.04064204070407 -2.17574349914991
 1  11.14470702640264 -2.13771055495550 -1.51670591449145
 1  9.68404129012901 -2.50574251625163 -0.48064750445045
 1  11.49330701160116  0.82777500770077  0.38803029052905
 1  11.28828188158816 -0.95497145844584  0.79546016761676
 1  13.08777209610961 -1.50395855705571 -1.14196186378638
 1  12.86405015751575  0.21266195719572 -1.83937729902990
 1  13.84594603130313  1.02540509650965  0.54937228022802
 1  13.93211596469647 -0.61792139683968  1.28095461196120
 1  15.30197348584858  0.34415390039004 -1.45353971197120
 1  15.68014545744574 -2.40287057915792  0.07528607470747
 1  14.82570562126213 -2.03023539913991 -1.44902231733173
 1  16.70835046444645 -1.72535806070607 -1.43154462396240
 1  16.12363756445644  1.48890672437244  0.87939448374838
 1  16.34532898009801 -0.07009618471847  1.54471723292329
 1  18.05183612231223 -0.38555510291029 -0.46563990439044
 1  17.71035810031003  1.42115943484348 -0.88297187298730
 1  18.44200499309931  2.42411656935694  1.13315132043204
 1  19.00996815711571  0.90852503350335  1.81869186948695
 1  20.34780969366937  0.30392654085409  0.01396846084608
 1  20.24834894149415  3.37110067196720 -0.92657625102510
 1  21.34688894099410  2.20068672147215 -1.46263762706271
 1  19.66813071747175  1.79699150995100 -1.82839980898090
 1  21.19103507870787  1.49642775187519  2.24510412761276
 1  22.37043875017502  1.42271350105010  1.08579354565457
 1  21.18157788768877  3.07399748304831  1.38898933943394

