%nproc=4
%Mem=3GB
# td=(NStates=1) iop(3/107=0140000000,3/108=0140000000) CAM-B3LYP/6-31G(d,p) 

TD

0 1
12 -7.16701139283928  0.65057344084408  0.19196556655666
 6 -4.89160797729773 -1.97395462606261  0.53189859225923
 6 -4.81875790639064  2.89643836173617  1.07769787498750
 6 -9.32166893139314  3.17609516251625 -0.43556603190319
 6 -9.53973007100710 -1.73276504220422 -0.78575538043804
 7 -5.05888291949195  0.42995908650865  0.74370219421942
 6 -4.30138238553855 -0.65059620282028  0.76649454415442
 6 -2.91207742834283 -0.31340973897390  1.18189385848585
 6 -2.96262948984899  1.09595829742974  1.65939221852185
 6 -4.40524075877588  1.54665931703170  1.07158155205521
 6 -3.04864104490449  1.28725154445445  3.17831314591459
 6 -1.86546227592759 -0.53516950615062  0.00436424672467
 6 -0.47286299549955 -0.41761500950095  0.42084546684668
 6  0.57064898809881 -0.62876949884988 -0.65727551765177
 8  0.25364558135814 -1.03488726642664 -1.79224661776178
 8  1.83114171257126 -0.56499643804380 -0.16313170077008
 7 -7.04950259365937  2.66572978287829  0.40287121122112
 6 -5.99094923872387  3.41988575597560  0.73682955905591
 6 -6.40448535693569  4.78904576817682  0.73064132283228
 6 -7.68497328262826  4.82790459565957  0.43348947534753
 6 -8.06293582108211  3.47988492729273  0.07422542114211
 6 -5.46053808770877  5.83155262896290  1.18174833003300
 6 -8.48845885388539  6.01222149174917  0.07568818131813
 6 -8.28021643164316  7.20917006670667  0.75757981728173
 7 -9.13370241134113  0.75126212061206 -0.41584815871587
 6 -9.89488697499750  1.81448477277728 -0.68802161566157
 6 -11.23939789248925  1.42978242274227 -1.08962382208221
 6 -11.24033352055205  0.12867041284128 -1.24256428472847
 6 -9.93509111271127 -0.39904009740974 -0.80941314261426
 6 -12.30861179887989  2.45486072747275 -1.38197765046505
 6 -12.34718851175118 -0.78221434523452 -1.70957028762876
 6 -12.30763267216722 -1.20923111541154 -3.09319997119712
 7 -7.33029599199920 -1.36154098979898 -0.02255493059306
 6 -8.25749007530753 -2.24821336683668 -0.45203678357836
 6 -7.83431547134713 -3.58561911331133 -0.51553185298530
 6 -6.50207799829983 -3.55246822892289 -0.07072915461546
 6 -6.24183791549155 -2.13428138393839  0.15728756415642
 6 -8.64964730423042 -4.80945704410441 -0.79505288838884
 6 -5.32951841474147 -4.35365892929293  0.15300027412741
 8 -5.17527852015202 -5.53147000400040  0.02569851845185
 6 -4.16693119571957 -3.30022747014701  0.52264058565857
 6 -3.67126130293029 -3.77990593329333  1.87533350185018
 8 -3.76329911331133 -3.26573393129313  2.98891224942494
 8 -2.74464981778178 -4.74020263876388  1.69969900740074
 6 -2.12330128712871 -5.29156436233623  2.94842224262426
 6  2.85559187958796 -0.84380266916692 -1.20975449264926
 6  4.12065295049505 -0.53949921782178 -0.65451801460146
 6  5.06431192249225  0.27407393539354 -1.05016789378938
 6  4.88593231883188  1.33139081438144 -2.20498463346335
 6  6.36470274897490  0.39848046404640 -0.30167069146915
 6  7.59607105970597 -0.21958050605061 -1.15646597529753
 6  8.85014272587259 -0.10704252035204 -0.26033213561356
 6  10.19516497709771 -0.50395205840584 -0.83703942394239
 6  10.28029130573057 -1.97566544644464 -1.32084905090509
 6  11.43138780258026 -0.06085097619762 -0.05159312181218
 6  12.71397913341334 -0.40807084058406 -0.66320382548255
 6  13.96772804460446 -0.03240895519552  0.07391380298030
 6  15.38933492449245 -0.38723780738074 -0.57199285178518
 6  15.75078134913491 -1.77546593489349 -0.78394022032203
 6  16.40644763746375  0.31430794809481  0.43937867256726
 6  17.85695328302830  0.49755348494849 -0.08732525952595
 6  18.68107852645264  1.24439251775178  0.86614987168717
 6  20.20695349974998  1.33659309180918  0.22551925792579
 6  20.42609545534554  2.14470177527753 -0.98217291319132
 6  21.06827189418942  1.89420112001200  1.41284522452245
 1 -3.72324268776878  3.56065931733173  1.22606870267027
 1 -10.08471059435944  3.88490076457646 -0.69958448464846
 1 -10.25395982008201 -2.47415295039504 -1.14682250165017
 1 -2.66375366256626 -0.86536673937394  2.09187567826783
 1 -2.17670113641364  1.53594565566557  1.17675132413241
 1 -2.15375846224622  0.96577568396840  3.80307064446445
 1 -3.01951906100610  2.42698192099210  3.13414143634363
 1 -3.92973577407741  0.85481063536354  3.61128281348135
 1 -1.88573369236924 -1.43131380218022 -0.66289429652965
 1 -2.22628899789979  0.20053767356736 -0.68854558915892
 1 -0.22254768346835  0.45819540684068  1.09937380038004
 1 -0.46659507980798 -1.23380414701470  1.37437089538954
 1 -5.70353453115311  6.96564407640764  0.76863669496950
 1 -5.70399187048705  5.93179606100610  2.21525353785379
 1 -4.41203604820482  5.78495276327633  1.04991572417242
 1 -9.33962422222222  5.98033141514151 -0.62894424712471
 1 -9.04281334503450  8.02263198419842  0.64760453615361
 1 -7.69520745284528  7.38245508190819  1.49120808110811
 1 -11.89197967096710  3.36986613371337 -1.92660849234923
 1 -13.23127042474247  2.14619336173617 -2.17673340154015
 1 -12.66705773847385  2.79842717681768 -0.29191963146315
 1 -12.53670563546355 -1.62985390819082 -1.01219472037204
 1 -13.28902120122012 -0.11079378987899 -1.79968572297230
 1 -13.09469466866687 -2.00097375947595 -3.17388834693469
 1 -12.48157856355635 -0.29003747504750 -3.83130210861086
 1 -11.40495533493349 -1.75210623782378 -3.22380065826583
 1 -8.98805342394239 -4.74497099789979 -1.89954601760176
 1 -8.06457084228423 -5.70501645494549 -0.61175113021302
 1 -9.50696487548755 -5.00880932933293 -0.08490075877588
 1 -3.51766928542854 -3.29574618021802 -0.42685042314231
 1 -1.79035242284228 -4.37730994439444  3.45773749134913
 1 -3.11597803510351 -5.96743626852685  3.50155119281928
 1 -1.28097861836184 -5.96411719651965  2.49763312441244
 1  2.54881293609361 -1.81132775557556 -1.41156260496050
 1  2.48237467876788 -0.06643855905591 -2.08378943644364
 1  4.21362184888489 -1.25144355815582  0.23081448164816
 1  4.04409972147215  1.30301584428443 -2.77954844054405
 1  4.90842777497750  2.42502292619262 -1.60460789918992
 1  5.82452202070207  1.48868005890589 -3.12498875577558
 1  6.56899508340834  1.44797477807781 -0.26873725982598
 1  6.29026689878988 -0.10448778547855  0.51007720322032
 1  7.27404952775278 -0.98536920992099 -1.47708246544654
 1  7.54811737023702  0.51789089208921 -1.90596141904190
 1  8.84199024332433  0.91629112661266  0.10726315441544
 1  8.73338645944595 -0.76760511321132  0.82893901730173
 1  10.23160779257926  0.29056520432043 -1.71736689468947
 1  9.63682329142914 -2.49679796329633 -2.18194657655766
 1  11.32756189678968 -2.34942834213421 -1.52050740884088
 1  10.17609980708071 -2.49892400710071 -0.48284567826783
 1  11.33462510411041  1.03231966536654  0.22247001780178
 1  11.39053664916492 -0.52503380098010  1.07305362546255
 1  12.57637559005901 -1.53265068436844 -0.72928520002000
 1  13.07177300720072  0.22858779477948 -1.67157149084909
 1  13.83518493879388  1.01137650095010  0.30789561826183
 1  14.12512082268227 -0.17991437033703  1.18046042004200
 1  15.37927832923292  0.16501989898990 -1.36420768956896
 1  15.74695849264926 -2.24918425962596  0.13991585608561
 1  15.02242388678868 -2.07094161416142 -1.53506487998800
 1  16.57562584218422 -2.06385728272827 -1.36809332263226
 1  15.91455472897290  1.40715904960496  0.53788970527053
 1  16.49296337413741 -0.29238552335233  1.38354684938494
 1  18.11657839553956 -0.66423293729373 -0.19857005260526
 1  17.81038834843484  1.08997789188919 -1.04868061166117
 1  18.35988504540454  2.24038530653065  1.03885583238324
 1  18.79569553205321  0.58954379387939  1.72011525702570
 1  20.53428326062607  0.31687268486849  0.27038293049305
 1  19.99487630613061  3.14469524602460 -0.60780296499650
 1  21.41098489928993  2.18051919401940 -1.31480946214621
 1  19.91577997559756  1.90054034423442 -1.88295668006801
 1  21.04187804130413  1.24852049294930  2.30623429222922
 1  22.20790868366836  1.90520099079908  1.13244989858986
 1  20.88635871437144  3.03581969916992  1.72641977867787

