%nproc=4
%Mem=2GB
# td=(NStates=1) CAM-B3LYP/6-31G(d,p) 

TD

0 1
12 -7.04482505550555  0.57259600770077  0.02289997739774
 6 -4.85318993699370 -1.97039821822182  0.52902943564356
 6 -4.80382031093109  2.82945139243924  1.10462682758276
 6 -9.39556429192919  3.11365686118612 -0.35966882658266
 6 -9.49399971367137 -1.76447195819582 -0.95030145924592
 7 -5.09777320192019  0.49906972507251  0.69861027932793
 6 -4.29000870697070 -0.68181800380038  0.73391141434143
 6 -2.89830883628363 -0.35082450815082  1.22338269246925
 6 -2.99751318971897  1.11755442374237  1.66917764846485
 6 -4.35149214411441  1.49742049084908  1.09521655155516
 6 -3.12977805990599  1.33389567766777  3.25309671857186
 6 -1.85788924992499 -0.60607586898690  0.06821077937794
 6 -0.40119754235424 -0.43149749694970  0.57751188048805
 6  0.55488662586259 -0.73586709960996 -0.51115649614962
 8  0.21562280238024 -1.16733214081408 -1.61822815451545
 8  1.75824763526353 -0.39704710111011 -0.29520630953095
 7 -7.11140158805881  2.64110970077008  0.43168186368637
 6 -6.01437071607161  3.41329230503050  0.77689122272227
 6 -6.44617187028703  4.82180647004700  0.67300798799880
 6 -7.77272997999800  4.82212284378438  0.38031642294229
 6 -8.09617388898890  3.53496269156916  0.02078462476248
 6 -5.51428938563856  5.93214568046805  1.24451921242124
 6 -8.66529432703270  5.93155418911891  0.29670665606561
 6 -8.65243913521352  7.06950306890689  0.89368561836184
 7 -9.08502077467747  0.72020488158816 -0.51813584728473
 6 -9.90706696639664  1.75502545564556 -0.73691001510151
 6 -11.20680977757776  1.44063240234023 -1.18189990949095
 6 -11.11464386828683  0.03052841694169 -1.44147286128613
 6 -9.91141682238224 -0.39041101540154 -0.98139315541554
 6 -12.33915273897390  2.43112368336834 -1.44127090189019
 6 -12.30659520582058 -0.79555696579658 -1.81323213171317
 6 -12.39553704210421 -1.17048946014601 -3.28798391699170
 7 -7.24863433173317 -1.34840445404540 -0.17846252325233
 6 -8.25585582538254 -2.25180035213521 -0.54760971617162
 6 -7.80785693129313 -3.61685995349535 -0.45166244354435
 6 -6.49207309140914 -3.48348268526853 -0.02845457735774
 6 -6.21648424482448 -2.18938722002200  0.12498530273027
 6 -8.60927839523952 -4.79683252565257 -0.67949642804280
 6 -5.47395186548655 -4.32989687318732  0.26699957255726
 8 -5.19898873677368 -5.54100858425843  0.05492252295230
 6 -4.20960453985399 -3.30089587938794  0.63888375367537
 6 -3.62809344024402 -3.66293151445145  2.03269364226423
 8 -3.90308190879088 -3.12537927412741  3.05387806890689
 8 -2.84946614031403 -4.76097081948195  1.89850843174317
 6 -2.28410899879988 -5.14166839593959  3.08427336283628
 6  2.79170168186819 -0.61580937553755 -1.33758495889589
 6  4.15724781378138 -0.42402057835784 -0.70482063106311
 6  5.15163864826483  0.37732399779978 -0.97287706040604
 6  5.09047747074708  1.27689033833383 -2.15321948724872
 6  6.53867820062006  0.36784863506351 -0.25096158135814
 6  7.75983352125213 -0.16328667556756 -1.07990494099410
 6  9.00076194879488 -0.08996412681268 -0.20648246104610
 6  10.25874649914991 -0.56817388908891 -0.98183915441544
 6  10.15943264346435 -2.13225416151615 -1.38527199219922
 6  11.45044792169217 -0.21827560836084 -0.11311044244424
 6  12.80753566126613 -0.48641269236924 -0.81942196509651
 6  13.97477694609461 -0.12682388518852  0.08303537103710
 6  15.29936606150615 -0.25503923302330 -0.49551779157916
 6  15.66148781768177 -1.63081071487149 -0.94818443614361
 6  16.44989909580958  0.26612097209721  0.46026053325333
 6  17.94455904530453  0.44397579597960 -0.07629344394439
 6  18.84743511301130  1.29720793779378  0.82859329232923
 6  20.27965663486349  1.41952228572857  0.25494025722572
 6  20.25182653645365  2.19798809600960 -1.00846183888389
 6  21.34832576337634  1.92411534783478  1.32633799719972
 1 -4.03230471497150  3.70974649604960  1.50445503240324
 1 -10.17558795149515  3.86659749474947 -0.32402779427943
 1 -10.27016030543054 -2.44708404920492 -1.18724537673767
 1 -2.69617607450745 -0.99875818971897  2.05563625482548
 1 -2.04991859705971  1.59448303090309  1.27003765416542
 1 -2.15810026752675  1.10228068096810  3.65445915941594
 1 -3.36849190919092  2.42374643214321  3.49772193759376
 1 -3.93977742044204  0.64737942194219  3.62134454725473
 1 -2.21066355125512 -1.48627858825883 -0.33024693389339
 1 -2.05522719521952  0.23117036743674 -0.67082712231223
 1 -0.03255677307731  0.51690630453045  1.00159055815582
 1 -0.22829063106311 -1.22609712491249  1.43073702890289
 1 -5.75913468886889  6.97417606170617  0.85086079527953
 1 -5.70722771217122  6.14036739983998  2.25574187128713
 1 -4.49511346734673  5.78767993439344  0.94071724732473
 1 -9.60137218971897  5.57822397049705 -0.36537676587659
 1 -9.47949916581658  7.86484722362236  0.76148577037704
 1 -7.94437390319032  7.33631003050305  1.60303868936894
 1 -12.01728583368337  3.05244557055706 -2.47159016371637
 1 -13.20632030123012  1.80437432863286 -1.58895008650865
 1 -12.46831856295630  3.09122777747775 -0.61327257125713
 1 -12.16679145754576 -1.82116156125613 -1.39769472437244
 1 -13.32253097199720 -0.32978971577158 -1.32253778127813
 1 -13.11164751735174 -1.92054674087409 -3.35848573307331
 1 -12.32614617881788 -0.33368790639064 -3.90967446314631
 1 -11.52062834213421 -1.78249311641164 -3.57137575757576
 1 -9.01210081308131 -4.65989673257326 -1.58654191829183
 1 -7.91515087988799 -5.62283228742874 -0.68784839783978
 1 -9.29534941984198 -4.83339836113611 -0.00069189178918
 1 -3.34280497639764 -3.43772702340234 -0.04265953745374
 1 -1.38599676617662 -4.56108254795480  3.49091200650065
 1 -3.09055866446645 -5.09854147174717  3.89536237513751
 1 -1.99375748724872 -6.26450572377238  2.75693964686469
 1  2.46713601770177 -1.46402823872387 -1.73524748974898
 1  2.37412489008901  0.05702998259826 -2.12131528372837
 1  4.46058696429643 -1.11444365956596  0.22619583558356
 1  4.22534149764976  1.08690740114011 -2.55726409610961
 1  5.34066947864786  2.48033829272927 -2.07600406860686
 1  5.72625993359336  0.76910801830183 -2.92451118211821
 1  6.67862992589259  1.35739973997400  0.40422306510651
 1  6.23575769516952 -0.31807984538454  0.58273799049905
 1  7.59366675137514 -1.23110234543454 -1.37380870447045
 1  7.87141957785779  0.58560176827683 -1.92556548014801
 1  9.04848690029003  0.98688657365737 -0.04381674947495
 1  8.73671215991599 -0.61119662586259  0.64768263196320
 1  10.29256680808081  0.19142167986799 -1.87950283978398
 1  9.20782576807681 -2.24097207370737 -1.96881280608061
 1  10.84073662936294 -2.49056584048405 -2.09115335923592
 1  10.13504639063907 -2.80868281028103 -0.61633107280728
 1  11.42777045794579  0.74507673787379  0.33059454695469
 1  11.24615766916692 -0.76842280358036  0.92360298189819
 1  12.97560087898790 -1.55521368256826 -0.84769243684368
 1  12.95905965846585 -0.04553386238624 -1.70434379567957
 1  13.71346278297830  0.88247080308031  0.46920426342634
 1  14.02760551365137 -0.66762636733673  1.05815233173317
 1  15.21114440294029  0.30862034703470 -1.34036839483948
 1  16.03526096899690 -2.15966625872587  0.08291683778378
 1  14.93012606330633 -2.14861723732373 -1.66025344044404
 1  16.62389201860186 -1.55299082398240 -1.66190766026603
 1  16.02554775547555  1.20195802950295  0.73693023732373
 1  16.55312976017602 -0.11153032813281  1.45968873007301
 1  18.60851178987899 -0.49802635003500 -0.24323766416642
 1  17.95584264876488  0.87895521442144 -0.99265284108411
 1  18.51507229982998  2.29296345404540  1.18414641994200
 1  18.84192135243525  0.83715789678968  2.04702470277028
 1  20.49205411811181  0.40835698389839 -0.15578851485149
 1  19.99791389798980  3.32301586348635 -0.86429002240224
 1  21.31228548064806  2.08413506630663 -1.62511387468747
 1  19.58876278067807  2.03528533933393 -1.68967593659366
 1  21.27846382158216  1.44112222132213  2.24985460266027
 1  22.36239794609461  1.94066529622962  1.04105907220722
 1  21.06753648354836  3.02429251255125  1.63483392389239

