%nproc=4
%Mem=2GB
# td=(NStates=1) CAM-B3LYP/6-31G(d,p) 

TD

0 1
<<<<<<< HEAD
12 -7.10745131813181  0.59271801990199  0.11996968436844
 6 -4.85761037903790 -1.92024320272027  0.49926645934593
 6 -4.76431636053605  2.89034748204820  1.01211757665767
 6 -9.39939467496750  3.08724421992199 -0.24127698739874
 6 -9.38019833353335 -1.72092760376038 -0.93135956505651
 7 -5.02221564616462  0.50194001210121  0.75991640994099
 6 -4.30643034913491 -0.60392021402140  0.85060308350835
 6 -2.91804080948095 -0.38634806050605  1.23715406960696
 6 -2.96460989938994  1.06532920122012  1.71325205590559
 6 -4.36807380228023  1.55411616041604  1.05513254315432
 6 -3.07745282738274  1.17587987608761  3.33547495639564
 6 -1.91934539553955 -0.49969523092309 -0.03104914661466
 6 -0.46286370897090 -0.49167351455146  0.39502363166317
 6  0.50158129532953 -0.64160767366737 -0.83185856635664
 8  0.10471171127113 -0.97549295689569 -1.91208754045405
 8  1.75226703720372 -0.37753514991499 -0.39458624752475
 7 -7.10254070197020  2.60798638843884  0.31317001250125
 6 -6.03700297929793  3.40232120792079  0.77286081968197
 6 -6.34074132723272  4.81318560796080  0.85195588278828
 6 -7.80125283228323  4.87474810631063  0.44586297759776
 6 -8.10025429702970  3.51783097839784  0.09680222652265
 6 -5.39304726142614  5.89111157705771  1.06898165866587
 6 -8.68441623922392  6.02318335203520  0.21400838623862
 6 -8.58167205850585  7.26203232183218  0.80901715151515
 7 -9.12271454405441  0.66213907500750 -0.58309234293429
 6 -9.79097535723572  1.84157411051105 -0.64105042914291
 6 -11.14978407500750  1.42727106620662 -1.03663538303830
 6 -11.16908931283128  0.05838120222022 -1.26758547254725
 6 -9.91598727942794 -0.43318529282928 -0.92156717281728
 6 -12.22686150985098  2.52413298429843 -1.34148092289229
 6 -12.31114566086609 -0.76785419551955 -1.81634244274427
 6 -12.20784827322732 -0.98581099229923 -3.35262038063806
 7 -7.19543901220122 -1.34862447604760 -0.04060873787379
 6 -8.15010525032503 -2.16974214631463 -0.52421737693769
 6 -7.76208235383538 -3.59941820932093 -0.42922019931993
 6 -6.43070695479548 -3.50053439043904 -0.02356408830883
 6 -6.14298689508951 -2.14446272757276  0.21945474967497
 6 -8.64698216561656 -4.74741758415842 -0.83738221662166
 6 -5.27844231453145 -4.39276315981598  0.23257613021302
 8 -5.20504934283428 -5.54326881028103  0.29252628332833
 6 -4.08729230863086 -3.34275006480648  0.58222808810881
 6 -3.53939457035704 -3.67499272057206  1.95532590549055
 8 -3.79613121372137 -3.18996573277328  3.04982766386639
 8 -2.71563275697570 -4.79052377477748  1.87535611651165
 6 -2.18247883578358 -5.27419164826483  3.08772370787079
 6  2.76391890359036 -0.83520131473147 -1.24748594899490
 6  4.13027511651165 -0.63476165246525 -0.59020916991699
 6  5.04935842024202  0.16983324872487 -1.10588036073607
 6  5.07269569256926  1.09833248254825 -2.28241240654065
 6  6.26128046084608  0.21243309350935 -0.25780226542654
 6  7.51753929182918 -0.35646599349935 -1.06025297579758
 6  8.80305217781778 -0.29709483988399 -0.21048286108611
 6  10.14187481198120 -0.65999307100710 -0.89732070257026
 6  10.17519421962196 -2.12424336043604 -1.32822628762876
 6  11.35383826072607 -0.30887466826683 -0.12245137653765
 6  12.71037594529453 -0.45708976007601 -0.79706972987299
 6  13.91010047844784 -0.06479768256826  0.08953602110211
 6  15.31793791869187 -0.20755448454845 -0.47784602440244
 6  15.74041571047105 -1.64377201100110 -0.87836745444544
 6  16.43507761366137  0.35582994299430  0.48518302550255
 6  17.79371396079608  0.64640603900390 -0.17914372897290
 6  18.67096746624663  1.40099831683168  0.78974940794079
 6  20.22591126032603  1.50461079457946  0.43210797399740
 6  20.46705805960596  2.21494979217922 -0.96311730443044
 6  21.10651158195820  2.22786572287229  1.44103946734673
 1 -4.10835231973197  3.62230775217522  1.31081566846685
 1 -10.19396978967897  3.98205904090409 -0.44169956145615
 1 -10.11938522792279 -2.45764510531053 -1.02886953915391
 1 -2.39256571347135 -1.14143245714572  1.99899059025903
 1 -1.98718232343234  1.50112369496950  1.41361201160116
 1 -2.12670712821282  0.83507396029603  3.76460017351735
 1 -3.35616067606761  2.17359141664166  3.60012217761776
 1 -4.06731017371737  0.67119180318032  3.85196760956096
 1 -2.18440092499250 -1.45286524692469 -0.47646155535554
 1 -2.28980065256526  0.13857110751075 -0.90966100570057
 1 -0.12952647004700  0.33656827072707  1.01081148024802
 1 -0.17045484748475 -1.42060657585759  0.91158511371137
 1 -5.50611938733873  6.75448409250925  0.44070978017802
 1 -5.38080506990699  6.27802116521652  2.07428372547255
 1 -4.42085604160416  5.52145331173117  1.05591876747675
 1 -9.37203925642564  5.94449059715972 -0.58238846704670
 1 -9.08161937783778  8.17195793469347  0.38266788858886
 1 -7.81152061786179  7.49036543604360  1.49485787128713
 1 -11.96217032213221  3.16728705470547 -2.14652765746575
 1 -13.21105077427743  1.96602049324932 -1.70709190069007
 1 -12.46987871897190  3.12643129782978 -0.39189043304330
 1 -12.24165894429443 -1.80130957605761 -1.34895985088509
 1 -13.22043076197620 -0.17582431923192 -1.57006253375338
 1 -13.21810816341634 -1.42599728592859 -3.49298918341834
 1 -12.32924648884889 -0.21007554515452 -3.94640813651365
 1 -11.37942422172217 -1.32870773787379 -3.81169978997900
 1 -9.08493809680968 -4.44705544844484 -1.72902616671667
 1 -8.07587695249525 -5.73926393059306 -1.03530314331433
 1 -9.45282516741674 -4.82842786408641 -0.12415423802380
 1 -3.48454915081508 -3.43952720342034 -0.41677694919492
 1 -1.42755092159216 -4.41575801550155  3.51080399569957
 1 -2.90553016161616 -5.75000661826183  3.80667350625063
 1 -1.42778088958896 -6.03879315251525  2.88470242314231
 1  2.71600090419042 -1.93702553845385 -1.48759272427243
 1  2.57157463506351 -0.24791051145114 -2.27305045724572
 1  4.38060896649665 -1.37738995419542  0.18920213621362
 1  4.14163312681268  0.95421413181318 -2.91834020372037
 1  5.58653406510651  2.08492875177518 -2.30056652485249
 1  5.84635194279428  0.55446655415542 -2.89194792579258
 1  6.67766982988299  1.21042504250425 -0.21292865006501
 1  6.17413153255325 -0.39721775917592  0.62098181488149
 1  7.37552493719372 -1.28867810301030 -1.41561288488849
 1  7.60904334023402  0.19648285638564 -2.09585250885088
 1  8.90201225282528  0.76446433143314  0.03316094829483
 1  8.71321981068107 -1.02469797599760  0.60879874357436
 1  10.46830438183818 -0.00284774707471 -1.78515340484048
 1  9.33286827232723 -2.55877385388539 -2.06300222502250
 1  11.05620817651765 -2.33983076697670 -1.71982622652265
 1  9.98847173317332 -2.77518946094609 -0.38563800350035
 1  11.17999568046805  0.67431966216622  0.23432491999200
 1  11.53305635903590 -1.14285024632463  0.80022064366437
 1  12.80111343024302 -1.58191635283528 -1.10046771437144
 1  12.67458121062106  0.15697638863886 -1.57082044334433
 1  13.72778421512151  0.97249980598060  0.26607395039504
 1  13.62691544464447 -0.70709031373137  0.98655517201720
 1  15.31119440794079  0.32276176117612 -1.30337469546955
 1  15.64466190909091 -2.20205049714971 -0.02909436333633
 1  14.91352440314031 -2.06658903450345 -1.67173458855886
 1  16.73921355075508 -1.92352787768777 -1.16097756725673
 1  15.90426562726273  1.12033986768677  1.10926747104710
 1  16.73548799599960 -0.51915109020902  1.21111387258726
 1  18.27174811351135 -0.32787933533353 -0.25942928332833
 1  17.76060312481248  1.04988230713071 -1.17159073487349
 1  18.43273406600660  2.38846300400040  0.89000700600060
 1  18.60459762006201  1.23250743174317  1.81060106040604
 1  20.63378829152915  0.51906805500550  0.32211927592759
 1  20.26736084268427  3.35479904180418 -0.79732332573257
 1  21.50006425852585  2.09553620642064 -1.27054841814181
 1  19.71803570797080  1.75437724852485 -1.55022199119912
 1  21.03065904110411  1.67313542264226  2.51873149034903
 1  22.23180488678868  2.19240046974697  1.16085105140514
 1  20.86035576547655  3.31871195449545  1.33657409790979
=======
12 -7.02802337533753  0.59063781188119 -0.07779009160916
 6 -4.83005762376238 -1.91863304170417  0.70999753245325
 6 -4.92208213711371  2.82614106140614  1.20534689958996
 6 -9.37392212771277  3.05185068056806 -0.36226908660866
 6 -9.49917023072307 -1.73077858885889 -0.92476890599060
 7 -5.12388581318132  0.44245406350635  0.72731314961496
 6 -4.32247195329533 -0.66344616661666  0.74245226842684
 6 -2.95831483688369 -0.36387581328133  1.37381773597360
 6 -2.99708314671467  1.09754242254225  1.81594232493249
 6 -4.41180817571757  1.51601235003500  1.08334536443644
 6 -3.16768185028503  1.35146743484348  3.30288169706971
 6 -1.93962742374237 -0.56184144554455  0.17523148144814
 6 -0.53229065166517 -0.37375172237224  0.55069919921992
 6  0.55308644584458 -0.72045555845585 -0.49433481398140
 8  0.29672091219122 -1.10414582218222 -1.62251858355836
 8  1.79071088158816 -0.55097249364937 -0.11965875477548
 7 -7.13343379127913  2.65291088088809  0.14087278277828
 6 -6.12296157515752  3.41878285408541  0.79776330993099
 6 -6.43687094019402  4.79194348374837  0.75597628482848
 6 -7.75180788778878  4.80391102260226  0.41485987728773
 6 -8.22110638223822  3.49188838413841  0.05595814211421
 6 -5.56225418211821  5.90156262216222  1.21002576307631
 6 -8.62063986158616  5.97906894059406  0.25775276067607
 6 -8.49447333863386  7.10170628922892  0.97878412821282
 7 -9.04841711431143  0.59293215431543 -0.67043107680768
 6 -9.84829108880888  1.74658461156116 -0.67102342644264
 6 -11.19766886348635  1.35151349044904 -1.20733245274527
 6 -11.18140054395439  0.05149051315132 -1.45218393239324
 6 -9.85844152485248 -0.44458643294329 -0.97674269036904
 6 -12.16037486118612  2.44719529052905 -1.48902567736774
 6 -12.36309085538554 -0.70454786488649 -1.94055486398640
 6 -12.21999948834883 -0.69392180338034 -3.49155427402740
 7 -7.27743721202120 -1.44177379097910 -0.11048572557256
 6 -8.27169740954095 -2.24934010611061 -0.50734568976898
 6 -7.81950809640964 -3.55216348384839 -0.43065034233423
 6 -6.53124700880088 -3.51366570357036  0.00897916601660
 6 -6.10857345374537 -2.12040032133213  0.23646645084508
 6 -8.67881534893489 -4.76779962236224 -0.80836931533153
 6 -5.28013248354836 -4.38999288278828  0.29960283288329
 8 -5.22900173807381 -5.60989547294729  0.37547457815782
 6 -4.11332491189119 -3.36312210201020  0.62837270257026
 6 -3.49808043894389 -3.67745296659666  1.89101947484748
 8 -3.59159075967597 -3.02661939813981  2.92414509560956
 8 -2.69610080378038 -4.75813053545355  1.73263184408441
 6 -2.02766335423542 -5.18590281938194  2.86256119161916
 6  2.75884839653965 -0.85502329692969 -1.11887308770877
 6  4.05557764676468 -0.63820199649965 -0.49117926692669
 6  5.12878636303630  0.16080234563456 -1.00123989668967
 6  4.97527595059506  1.02777542684268 -2.26911107640764
 6  6.41899623242324  0.45267711791179 -0.29137562276228
 6  7.57085462336234 -0.12074242114211 -1.01215816631663
 6  8.90700257285729  0.04783965356536 -0.17942975577558
 6  10.13352397689769 -0.51455852755276 -1.04130510101010
 6  10.05702240244024 -2.02246318241824 -1.31495496049605
 6  11.40399327622762 -0.16389016981698 -0.14045317671767
 6  12.78109301700170 -0.45128918001800 -0.76674669756976
 6  13.95269473787379 -0.12365356815682  0.20900796829683
 6  15.35660178507851 -0.25173890299030 -0.38755699549955
 6  15.74403607250725 -1.72580021382138 -0.78161777947795
 6  16.43074718061806  0.35345970597060  0.44908941614161
 6  17.79897448684869  0.66950834923492 -0.26499231383138
 6  18.86490686018602  1.21845006200620  0.71906233923392
 6  20.30428909810981  1.37638797229723  0.09026378957896
 6  20.26975832963296  2.29961825902590 -1.15894688738874
 6  21.11673260406041  1.83734667096710  1.31635699909991
 1 -4.11968345284529  3.66816233763376  1.56221080798080
 1 -10.28601899459946  4.01837267226723 -0.49874526602660
 1 -10.27850113951395 -2.63157249804980 -1.33097975017502
 1 -2.63257971487149 -1.01584989888989  2.05353604480448
 1 -2.25734934013401  1.60664424702470  1.16189684008401
 1 -2.11141559905991  1.31389184208421  3.91862557605761
 1 -3.66681174117412  2.35940999849985  3.46735890129013
 1 -3.79928337103710  0.84104878887889  3.75940835363536
 1 -2.04296678157816 -1.70506046644664 -0.00516442564256
 1 -2.21509318181818  0.19505675607561 -0.54899493909391
 1 -0.28699221662166  0.62710732463246  0.85795619471947
 1 -0.19527732973297 -0.96639115431543  1.37227118231823
 1 -5.76508528392839  6.80326897099710  0.77272298149815
 1 -5.61160815021502  6.39405276837684  2.23005930303030
 1 -4.41608556455646  5.47846901330133  1.14202737833783
 1 -9.67143919641964  5.76099224732473 -0.28548877707771
 1 -9.14029524542454  7.95089582848285  0.98177779957996
 1 -7.65697516331633  7.32737913741374  1.73915230073007
 1 -11.59109321442144  2.92361268726873 -2.27247025172517
 1 -13.19380905010501  1.97432132333233 -1.83172436393639
 1 -12.37999973107311  3.09895855055505 -0.66726797079708
 1 -12.31355613401340 -1.66626607170717 -1.39345430033003
 1 -13.12951167006701 -0.03097983478348 -1.89813534103410
 1 -13.02968932153215 -1.21927661386139 -3.84157404190419
 1 -11.97072063626363  0.25985144754475 -3.84076757245725
 1 -11.31167744704470 -1.54536940404040 -3.83360198019802
 1 -8.98567817081708 -4.37154789768977 -1.80123338743874
 1 -8.06765613041304 -5.59898990319032 -0.62814242724272
 1 -9.47866775167517 -4.96712173347335 -0.17183900650065
 1 -3.19590028592859 -3.32198544924492  0.09899462796280
 1 -1.50404857135714 -4.43422986268627  3.28902181748175
 1 -2.82465207380738 -5.71374299189919  3.55212805170517
 1 -1.25665377687769 -5.84669394259426  2.60425437833783
 1  2.59112841694169 -1.95683751965197 -1.38997296229623
 1  2.43344082168217 -0.20146586698670 -1.98405155735574
 1  4.33114402000200 -1.36326854205421  0.41298451445145
 1  3.97417638113811  0.95212392279228 -2.80364873457346
 1  5.22981839353935  2.12360261916192 -1.94477094529453
 1  5.57382469006901  0.42612371987199 -3.14286301730173
 1  6.55922798569857  1.39856385638564 -0.20400775797580
 1  6.42463658305831 -0.00307834523452  0.70931064776478
 1  7.23826121082108 -1.24553378857886 -1.35720704430443
 1  7.60771320722072  0.22798600670067 -2.01360428402840
 1  9.23752580418042  1.06467435243524  0.10609824202420
 1  8.80417890659066 -0.47369287548755  0.73966182988299
 1  10.28422597399740 -0.12207967026703 -2.03985887538754
 1  9.30449543504350 -2.49596757325733 -1.97010293509351
 1  11.05334789048905 -2.42187897179718 -1.81342558645865
 1  10.19469235523552 -2.47554949694970 -0.28044748444844
 1  11.19781746264626  0.96288851905191  0.13700518801880
 1  11.29684273767377 -0.55394135543554  0.88456907850785
 1  12.85652897179718 -1.43523168436844 -0.90959862746275
 1  13.06056980948095 -0.01887119611961 -1.69159252055205
 1  13.74034547124712  0.96844940094009  0.52477982098210
 1  13.65356810991099 -0.58751835653565  1.15203171967197
 1  15.08903219171917  0.37394687968797 -1.31448580658066
 1  15.80592803570357 -2.26792708480848  0.27151569766977
 1  14.94857790849085 -2.42687506310631 -1.30436785188519
 1  16.58694832423242 -1.87059258415842 -1.40776224572457
 1  16.17565276597660  1.46090392409241  0.50943748804881
 1  16.36099054625462 -0.01944111921192  1.54551731293129
 1  18.00299123782378 -0.32852940034003 -0.63351669206921
 1  17.54605166966697  1.37902522142214 -1.10274385018502
 1  18.49546033863386  2.30944510221022  1.19604761006101
 1  18.63545070537054  0.57720190119012  1.59312931323132
 1  20.54450936363637  0.32041819001900 -0.36393932993299
 1  19.65366947354735  3.28203176507651 -0.97408100150015
 1  21.31170542264227  2.58512516531653 -1.50440180348035
 1  19.82854675907591  1.54398620942094 -1.89733670267027
 1  21.05799177437744  1.09707781688169  2.17459707690769
 1  22.15797750405040  1.90822205190519  0.96838180448045
 1  20.96328605850585  2.94602468576858  1.78234867536754
>>>>>>> 8e03b5b5abfc0030b3aa597dc0de36371bfbd096

