%nproc=4
%Mem=2GB
# td=(NStates=1) CAM-B3LYP/6-31G(d,p) 

TD

0 1
12 -7.09547012001200  0.63706245434543 -0.15686799939994
 6 -4.83910852885288 -1.95637681608161  0.54352088478848
 6 -4.81823175207521  2.82257070437044  1.07525389028903
 6 -9.35163989948995  3.06183167866787 -0.47418027772777
 6 -9.51098141184118 -1.75205071607161 -0.87983441254125
 7 -5.07724114871487  0.42273209130913  0.66597701600160
 6 -4.35191489758976 -0.66713653565357  0.66374439763976
 6 -2.83403240864086 -0.36991641734173  1.14300465466547
 6 -3.00504394279428  1.07027969626963  1.63817454815482
 6 -4.32752974787479  1.40642139093909  1.12870990089009
 6 -2.87062214431443  1.23154544264426  3.18251966086609
 6 -1.94562802380238 -0.67083234463446 -0.01053709540954
 6 -0.51043846644664 -0.39850419761976  0.50183431273127
 6  0.52438357555756 -0.67024053695370 -0.46404178467847
 8  0.24066530663066 -1.07072247984799 -1.63481981368137
 8  1.81338314881488 -0.31962935933593 -0.17302409130913
 7 -7.04788523642364  2.65126071587159  0.18920761626163
 6 -6.01642092109211  3.34267524332433  0.65064859845985
 6 -6.35631288438844  4.74702899229923  0.69385007220722
 6 -7.62217492449245  4.77017764926493  0.22265065636564
 6 -8.13456772837284  3.38502769806981 -0.01354880858086
 6 -5.41114907160716  5.91423388928893  0.91260602110211
 6 -8.58901669926993  5.97305833953395  0.30200718611861
 6 -8.43311720302030  7.02243836243624  1.02438868866887
 7 -9.19693196579658  0.58312117321732 -0.46105013871387
 6 -9.91291755145514  1.77925787888789 -0.65065138923892
 6 -11.25941503810381  1.45805414451445 -1.00251197069707
 6 -11.30256266016602  0.02828819291929 -1.10243895789579
 6 -9.95281096179618 -0.38647062136214 -0.92198721482148
 6 -12.44398322202220  2.43191376237624 -1.20478725352535
 6 -12.43778832513251 -0.72669007910791 -1.74205501400140
 6 -12.19322681108111 -0.96388880008001 -3.24233935253525
 7 -7.29405887418742 -1.37421703530353 -0.04582925992599
 6 -8.33032327212721 -2.27942311441144 -0.54160911611161
 6 -7.81878802440244 -3.60057832533253 -0.51736901420142
 6 -6.53252713681368 -3.56995133213321 -0.18808053995400
 6 -6.20186278267827 -2.17958623992399  0.07848065226523
 6 -8.68311577897790 -4.72983582598260 -0.81850032843284
 6 -5.29218368866887 -4.36615049854985  0.04543741634163
 8 -5.27094593249325 -5.54642912631263  0.30937796849685
 6 -4.20814439383938 -3.39562535233523  0.51818168346835
 6 -3.60689132003200 -3.80889611091109  1.93980435333533
 8 -3.94544614521452 -3.23693042924292  2.98649133023302
 8 -2.70162135583558 -4.71654637703770  1.76236481738174
 6 -2.07914850275027 -5.03326755585559  3.04245918141814
 6  2.83316582828283 -0.42769056365637 -1.22494369476948
 6  4.10256234523452 -0.36057423372337 -0.51116126512651
 6  5.16915039943994  0.40624689008901 -0.87529730243024
 6  5.03373179617962  1.31790443974397 -2.08152231753175
 6  6.43919825262526  0.60477232743274 -0.17678416361636
 6  7.69153669156916  0.02949260236024 -0.81393834433443
 6  8.95617749034903  0.01044591419142 -0.07972978577858
 6  10.25059568406841 -0.56790386208621 -0.81042201270127
 6  10.16293299349935 -2.06938787488749 -1.23178664366437
 6  11.39943282018202 -0.38046182698270  0.05426629522952
 6  12.76051095879588 -0.67687173827383 -0.51365138803880
 6  13.90976044444444 -0.13716491929193  0.37611467896790
 6  15.24940106500650 -0.28960268936894 -0.42687092689269
 6  15.75125679457946 -1.66477411121112 -0.81533115081508
 6  16.39117322322232  0.42941730173017  0.38842334953495
 6  17.81074566396640  0.58658005640564 -0.35954176877688
 6  18.87602797229723  1.16759497649765  0.66568700170017
 6  20.17206587578758  1.35994632813281  0.06019078227823
 6  20.37237859165917  2.20071836903690 -1.20614160686069
 6  21.12918384918492  1.93033596989699  1.14060942434243
 1 -3.89733121762176  3.22949847124712  1.30617520442044
 1 -10.15344573727373  3.73865470047005 -0.62088748024802
 1 -10.32330561996200 -2.56925626642664 -0.99718637083708
 1 -2.47028348524852 -1.05160347424742  1.88243893509351
 1 -2.13385699089909  1.78945252785279  0.99116976737674
 1 -1.90821527902790  0.89760021292129  3.50448416191619
 1 -3.15771083108311  2.26505056255626  3.55731789718972
 1 -3.55176861956196  0.43095777977798  3.43556596939694
 1 -2.01799428432843 -1.63371333173317 -0.20377428662866
 1 -2.12132380488049  0.07308455885589 -0.72652269186919
 1 -0.21770528792879  0.42956757065707  1.24608500760076
 1 -0.28950675267527 -1.26752126732673  1.12659661486149
 1 -5.54066284168417  6.78601724582458  0.28276398559856
 1 -5.45604259365937  6.27230059315932  2.09326562366237
 1 -4.24422837883788  5.68495966236624  0.87903107870787
 1 -9.22744479697970  5.88097424552455 -0.49666989518952
 1 -9.29413062896290  7.88784952385238  1.05504512631263
 1 -7.66729619541954  6.96324272377238  1.73078146364636
 1 -12.25361946704670  2.76328665466547 -2.22028503320332
 1 -13.42831250045004  1.96124001520152 -1.12417360886089
 1 -12.45008673977398  3.40179883458346 -0.60406165016502
 1 -12.58641341974197 -1.81117056215622 -1.36249120402040
 1 -13.41917063596360 -0.09273601040104 -1.61643717121712
 1 -13.01703805640564 -1.53964865106511 -3.68149803430343
 1 -12.15460902510251 -0.21542608020802 -4.00950444614461
 1 -11.25936221552155 -1.66565143224322 -3.06647526752675
 1 -8.91886148914891 -4.92510325322532 -1.98943220732073
 1 -8.09012837763776 -5.66589659385939 -0.53275288828883
 1 -9.76005589048905 -4.61319634093409 -0.29622144474447
 1 -3.37108780468047 -3.59036228692869 -0.09389466096610
 1 -1.69778794529453 -4.12250869056906  3.67006992229223
 1 -2.75719532813281 -5.75206682428243  3.57709054795480
 1 -1.17690580208021 -5.76405567876788  2.80139409230923
 1  2.88655795989599 -1.59942177807781 -1.64895886088609
 1  2.58609608720872  0.30360464006401 -1.80659381158116
 1  4.22969387498750 -0.78628084328433  0.57163037903790
 1  4.05041400490049  1.47737644804480 -2.40837920762076
 1  5.60024543624362  2.35015527442744 -1.80812728092809
 1  5.71829913751375  0.74668577607761 -2.81207993899390
 1  6.46893895679568  1.54440844084408  0.22012465526553
 1  6.20706482588259 -0.18695673307331  0.67425714241424
 1  7.55947333203320 -0.87710694589459 -1.27706903050305
 1  7.75807824372437  0.93338654675468 -1.59320224382438
 1  9.05777782938294  0.95309319431943  0.13666129832983
 1  8.72411089978998 -0.44734024022402  0.92849071277128
 1  10.39875742714271  0.07186972467247 -1.60013490299030
 1  9.37143212871287 -2.12032000850085 -1.82811873667367
 1  11.11784434013401 -2.43751053495350 -1.77126137003700
 1  10.12409529552955 -2.70594253625362 -0.33336277597760
 1  11.39308698959896  0.56423865406541  0.52443393089309
 1  11.37765081848185 -1.09059502080208  0.92729335093509
 1  12.75486880578058 -1.78420658185819 -0.81908957655766
 1  12.91271502400240 -0.34000330933093 -1.57123048434844
 1  13.87251868856886  0.86583913991399  0.49761710471047
 1  13.95173792689269 -0.71116072077208  1.33922043854385
 1  15.01275456395640  0.25692517751775 -1.36157051505151
 1  15.58553599649965 -2.33553384548455  0.07896644274427
 1  15.13323637433743 -2.27252962856286 -1.64544195929593
 1  16.70142977237724 -1.70324584948495 -1.13298476797680
 1  16.00845604630463  1.31607944164416  0.81482802710271
 1  16.47615206240624 -0.31462063716372  1.26190895209521
 1  17.87123806250625 -0.57745429282928 -0.73278661906191
 1  17.88167523202321  1.42717003590359 -1.25245882168217
 1  18.49493028562856  1.97467162486249  0.96611461676168
 1  18.69728688898890  0.48131231223122  1.52509250955096
 1  20.50690560326032  0.34932108030803 -0.16604954095410
 1  19.82686679327933  3.07419098099810 -0.95180877427743
 1  21.37333158525853  2.52144879767977 -1.49081044434443
 1  19.93912781718172  1.78122993379338 -2.11483845284528
 1  20.98005398059806  1.48156626572657  2.33205282248225
 1  22.25123682998300  1.91073230293029  1.06659162546255
 1  20.91301103100310  2.93061314461446  1.32006244674467

