%nproc=4
%Mem=2GB
# td=(NStates=1) CAM-B3LYP/6-31G(d,p) 

TD

0 1
12 -7.12748332133213  0.56515526362636 -0.00777308990899
 6 -4.90806542454245 -1.87343852225222  0.55725225792579
 6 -4.85183511241124  2.83874232153215  1.09720608550855
 6 -9.46333106860686  3.10216571207121 -0.29982284198420
 6 -9.48883919761976 -1.79563507450745 -0.98454488358836
 7 -5.12115554015402  0.53628344644464  0.73117353565357
 6 -4.32430213631363 -0.61288111011101  0.77497552075208
 6 -2.82916192159216 -0.32300172587259  1.23261361556156
 6 -2.99934337273727  1.13597626592659  1.65452618331833
 6 -4.47854484938494  1.52261301010101  1.10956798669867
 6 -2.77463254535454  1.38774106220622  3.16191760066007
 6 -1.90873433443344 -0.53067832923292  0.09565352365237
 6 -0.52423984658466 -0.24815916311631  0.54238836813681
 6  0.53467460466047 -0.53620713361336 -0.51815719621962
 8  0.26232747284728 -1.00996640424042 -1.66688302000200
 8  1.82460427092709 -0.41116851325133 -0.15025181408141
 7 -7.19262971087109  2.57076266606661  0.41787048254825
 6 -6.15342462146215  3.36083705950595  0.67692122572257
 6 -6.52512976607661  4.73148743814381  0.74112479967997
 6 -7.81317402440244  4.78091872337234  0.49025741704170
 6 -8.18672294389439  3.45726492179218  0.09668221452145
 6 -5.61757971467147  5.82643510941094  1.16409116961696
 6 -8.70774857245724  5.98109914361436  0.26181316671667
 6 -8.65766965826583  7.11888800740074  0.91761801160116
 7 -9.09394166676668  0.63715657675768 -0.63014704840484
 6 -9.86620287998800  1.78471842494249 -0.73752007610761
 6 -11.26094519111911  1.43865220432043 -1.08821054055406
 6 -11.21801420532053  0.07201256535654 -1.27813652765277
 6 -9.93334901560156 -0.47372934723472 -0.90074509060906
 6 -12.40698952265227  2.36827739873987 -1.23118989378938
 6 -12.37712225852585 -0.76053346344634 -1.84527533603360
 6 -12.24157164556456 -1.00966337753775 -3.43089820842084
 7 -7.27000646894690 -1.34549416301630 -0.21925660266027
 6 -8.22656289608961 -2.22285745784578 -0.63751870707071
 6 -7.73865001060106 -3.56888515601560 -0.55873315061506
 6 -6.50493437753775 -3.49910424742474 -0.07874960686069
 6 -6.20645324172417 -2.11589987128713  0.07754055825583
 6 -8.49777724512451 -4.90146298869887 -0.83808228662866
 6 -5.27500197049705 -4.23374725822582  0.19110198279828
 8 -5.13671250915092 -5.42155663906391  0.19913694439444
 6 -4.24228780818082 -3.25556134593459  0.59938980428043
 6 -3.54841547244724 -3.56784200550055  1.90845121802180
 8 -3.89965156575658 -3.08605534173417  2.90493317441744
 8 -2.56400759445945 -4.64720944334433  1.75351393229323
 6 -2.06596718461846 -5.15743997309731  2.98776371187119
 6  2.79607211891189 -0.80308810341034 -1.25064626502650
 6  4.17729981898190 -0.60964914121412 -0.52435258425843
 6  5.19048253265326  0.18408467386739 -0.84876464916492
 6  5.08954737773777  1.04267691699170 -2.16043020832083
 6  6.40088442124212  0.34112596279628 -0.02895938113811
 6  7.64364190209021 -0.26088643554355 -0.87685463596360
 6  8.95954782738274 -0.08206333673367 -0.11391320412041
 6  10.25261588608861 -0.71191826352635 -0.75280625112511
 6  10.04721142134213 -2.20747168326833 -1.20831429642964
 6  11.49506238313831 -0.29198297909791 -0.00823995539554
 6  12.82502741044104 -0.47193124422442 -0.69540956385639
 6  14.00176964536454 -0.13880508330833  0.13900096759676
 6  15.43359948484849 -0.28000172927293 -0.46214445424542
 6  15.66308797769777 -1.73721135493549 -0.76527614531453
 6  16.42229633553355  0.44654901490149  0.41048555575558
 6  17.79668425782578  0.50545194359436 -0.19307512211221
 6  18.82549291879188  1.36068428542854  0.70688112111211
 6  20.26773544274428  1.34619495299530  0.12331709490949
 6  20.41172252605261  2.16725502270227 -1.23196418911891
 6  21.13811474227423  1.99552248854885  1.14553991739174
 1 -4.33583506800680  3.70393591499150  1.55646023292329
 1 -10.09327972067207  3.76227706270627 -0.45267065856586
 1 -10.30777406680668 -2.52398173897390 -1.32641929412941
 1 -2.47659411631163 -1.00480879477948  2.01532222342234
 1 -2.35211881708171  1.77374095669567  0.96514716511651
 1 -1.71370582808281  1.22444289718972  3.43122683618362
 1 -3.08928398839884  2.44914897239724  3.39369153455346
 1 -3.53522696539654  0.60025470947095  3.85510792359236
 1 -1.87819030393039 -1.54376433683368 -0.17624153335334
 1 -2.05846751925192 -0.06931968156816 -0.90861090069007
 1 -0.35209872727273  0.82277689158916  0.95459585868587
 1 -0.10971877387739 -0.79901441664166  1.34532848804880
 1 -5.73298207360736  6.71141978607861  0.65599130833083
 1 -5.78458544794479  5.98980234333433  2.19479577667767
 1 -4.64491844784478  5.61512267866787  1.07600077567757
 1 -9.39792184468447  5.85623177127713 -0.47110733893389
 1 -9.35663687958796  8.00596133503350  0.60889051085108
 1 -7.81522098789879  7.53188958845885  1.70174856035604
 1 -12.25854996009601  2.96354668066807 -2.25311831653165
 1 -13.34599426862686  1.88740263146315 -1.31358254975498
 1 -12.51061279237924  2.90867952265226 -0.26952819681968
 1 -12.14465924432443 -1.86229567466747 -1.53707866276628
 1 -13.33069178807881 -0.55457219401940 -1.49288481598160
 1 -13.10478683128313 -1.83724841104110 -3.55328521302130
 1 -12.47423098729873 -0.11120565816582 -4.08108160386039
 1 -11.26762304160416 -1.35116998409841 -3.78830745074507
 1 -9.18653825682568 -5.25775651855186 -1.84781804590459
 1 -7.63310267506751 -5.79632963716372 -0.88151776477648
 1 -9.22065195009501 -5.19843486478648  0.05997417481748
 1 -3.46786748264826 -3.23048629932993 -0.19244451595160
 1 -1.60106827332733 -4.40024646434643  3.56187910321032
 1 -2.83354296289629 -5.57580919851985  3.51472431133113
 1 -1.42628073957396 -5.84613388658866  2.50828478137814
 1  2.64045334943494 -1.81738357425743 -1.62900686568657
 1  2.71867934553455  0.03292757235724 -2.03125627782778
 1  4.34184509010901 -1.26338855405541  0.32935615161516
 1  4.10462942644264  1.30752946334634 -2.68605697539754
 1  5.61785719741974  2.09740999989999 -2.13745021322132
 1  5.81433874147415  0.46044715221522 -2.88645737673767
 1  6.68197025992599  1.28105210521052  0.21243388618862
 1  6.28350246964697 -0.29851788918892  1.03009272597260
 1  7.42885026972697 -1.26156539173917 -1.25958728232823
 1  7.76877931383138  0.27279048714871 -1.70126304990499
 1  8.90342239383938  1.02184006900690  0.00001763396340
 1  8.79357784648465 -0.54206971317132  1.15535339903990
 1  10.40622817421742 -0.23809127142714 -1.73651854135414
 1  9.19085407090709 -2.15728370487049 -2.00818674347435
 1  11.07382993869387 -2.48191497539754 -1.73605784968497
 1  9.84276716271627 -2.78508045004500 -0.50149958965897
 1  11.55816349724973  0.70238246844684  0.25379686718672
 1  11.42622567596760 -0.70383634493449  1.06353697529753
 1  12.76511983088309 -1.60507866906691 -1.03395106270627
 1  13.03030678317832  0.03364405540554 -1.75941930323032
 1  13.76144758145815  0.84638719471947  0.67914525752575
 1  14.30471322442244 -0.93357296199620  1.08377489398940
 1  15.41201448994899  0.29995948094809 -1.27336169416942
 1  15.65509295219522 -2.22642293439344  0.28070661676168
 1  14.87672072277228 -2.10613298889889 -1.53602101720172
 1  16.80654028342834 -1.77772329722972 -1.27402887238724
 1  15.96815201590159  1.48969680338034  0.64372091639164
 1  16.46551099829983 -0.15031420652065  1.47640040124012
 1  18.46183712241224 -0.56967351475148 -0.42143548394839
 1  17.84780184468447  0.88358567746775 -1.20290386618662
 1  18.49180997359736  2.44044820252025  0.70059806510651
 1  18.83235039533954  0.79904408540854  1.55838583888389
 1  20.58466337903791  0.29948609680968 -0.21964490049005
 1  19.85803991059106  3.21427498939894 -0.86171976537654
 1  21.42719697179718  2.26580323312331 -1.41419278257826
 1  19.75619952435244  1.82669448024803 -2.08891586058606
 1  21.06619259445944  1.37527563666367  2.11722133933393
 1  22.13257496379638  1.97309853955396  0.74700966726673
 1  20.66474620452045  2.98269835313531  1.07360780128013

