%nproc=4
%Mem=2GB
# td=(NStates=1) CAM-B3LYP/6-31G(d,p) 

TD

0 1
<<<<<<< HEAD
12 -7.21602217521752  0.63120186828683  0.08473616101610
 6 -4.80382500050005 -1.95259643804380  0.46844337703770
 6 -4.76188611751175  2.87685613291329  1.09142550745075
 6 -9.45678041354135  3.12443793929393 -0.48792165186519
 6 -9.57092740644064 -1.71945745674567 -0.81191762086209
 7 -5.23172659725973  0.46581639973997  0.71763218151815
 6 -4.36791649774978 -0.76096591859186  0.74737276047605
 6 -2.93793279867987 -0.36343576927693  1.23774412861286
 6 -3.12753619201920  1.00121278957896  1.61209193989399
 6 -4.44257125202520  1.49836058485849  1.17690472037204
 6 -3.02107718981898  1.41029331743174  3.13806521542154
 6 -1.96809027002700 -0.72564782618262  0.04777873617362
 6 -0.55039246184618 -0.39392373957396  0.42025615491549
 6  0.47923906110611 -0.67583109600960 -0.59074445494549
 8  0.20518175827583 -0.99080448804880 -1.76702303400340
 8  1.72415422592259 -0.53881127752775 -0.20247703660366
 7 -7.03349379727973  2.59750534033403  0.23756245174517
 6 -6.00856013501350  3.38512948874888  0.66056959055906
 6 -6.44321157425743  4.75761005040504  0.66097678487849
 6 -7.64566727372737  4.87199783128313  0.10369876117612
 6 -8.08551282288229  3.48757795309531 -0.02914036773677
 6 -5.42204016071607  5.91158362426243  1.07238199869987
 6 -8.50193799139914  5.97749878357836  0.17133411881188
 6 -8.36556044734474  7.14701081968197  0.83587983778378
 7 -9.13091536413641  0.67237009810981 -0.41720575427543
 6 -9.86114237393739  1.77369732283228 -0.68409473357336
 6 -11.22200129672967  1.43404174327433 -1.10082180168017
 6 -11.28174057795779  0.15054041814181 -1.13779249324932
 6 -9.99691537223722 -0.43665563986399 -0.77554257035704
 6 -12.35431425512551  2.48511908290829 -1.19761653645365
 6 -12.38974352065206 -0.71239864996500 -1.75044585308531
 6 -12.18940642904290 -1.08219063026303 -3.20266538513851
 7 -7.30363983228323 -1.41822143574357 -0.11802647964796
 6 -8.24234447424742 -2.28300347244724 -0.45251020622062
 6 -7.87568371397140 -3.58517678517852 -0.36110338763876
 6 -6.53889777387739 -3.59066340334033 -0.02979471137114
 6 -6.17786038243824 -2.23516179747975  0.07439024322432
 6 -8.58669613701370 -4.77401024342434 -0.69138761716172
 6 -5.26430090039004 -4.35274915841584  0.25137801040104
 8 -5.10394923282328 -5.49534401780178  0.28650568126813
 6 -4.14090767016702 -3.35922171197120  0.53094295959596
 6 -3.43212384328433 -3.63310853215322  1.84190456335634
 8 -3.58634023462346 -3.17907464366437  2.98664134523452
 8 -2.54838603230323 -4.67330205260526  1.62595117601760
 6 -2.09427001490149 -5.26666089518952  2.91022595809581
 6  2.78550106180618 -0.62893068766877 -1.10974217461746
 6  4.05954804380438 -0.48526670297030 -0.52918306730673
 6  5.02098558295830  0.36738300370037 -0.99306907960796
 6  5.11853027602760  1.25171782108211 -2.22308647394739
 6  6.44017835063506  0.24964681488149 -0.17316380158016
 6  7.61801933983398 -0.20606095299530 -1.05076202670267
 6  8.90587245984599 -0.13662879327933 -0.17536934973497
 6  10.18963958845885 -0.50975804750475 -0.90302127262726
 6  10.11220792099210 -2.00596153225323 -1.43604706970697
 6  11.43227610451045 -0.31819560036004 -0.01498062946295
 6  12.79862477017702 -0.49555360646065 -0.78549857275728
 6  14.00957042544254 -0.14833603640364  0.13594066156616
 6  15.41906803170317 -0.16896062516252 -0.50795903570357
 6  15.72685435433543 -1.58599623342334 -1.18071768946895
 6  16.50036414231423  0.30710507050705  0.46465097229723
 6  17.76913150255026  0.46569796819682 -0.13664947954795
 6  18.65205557505751  1.31565978297830  0.82269270227023
 6  20.19445811501150  1.38620895439544  0.45767053025303
 6  20.35086644044404  2.13528182538254 -0.90363135583558
 6  21.04461539233924  2.02949588588859  1.46643200660066
 1 -4.09385086958696  3.41039656105611  1.47591217811781
 1 -10.08661905460546  4.01458229322932 -0.81592698419842
 1 -10.45680897029703 -2.37202654345435 -1.01089774197420
 1 -2.61148760566057 -1.06789510341034  2.18590928212821
 1 -2.33765737093709  1.75527911051105  1.11412206260626
 1 -2.10694515201520  1.17216766966697  3.49875358885889
 1 -3.12331739173917  2.50284434193419  3.40169233463346
 1 -3.66792023472347  0.81915659965997  3.67274968776878
 1 -2.20695318021802 -1.74920488088809 -0.17566147534753
 1 -2.40439211171117 -0.14960771037104 -0.76781682128213
 1 -0.46386990439044  0.68443305720572  0.80472087118712
 1 -0.12621042304230 -0.93887840304030  1.40320427562756
 1 -5.56708548394839  6.87707635173517  0.69524523372337
 1 -5.74961195059506  6.08716207930793  2.20246654375438
 1 -4.49080303630363  5.71129229562956  0.85621879747975
 1 -9.31283333583358  5.85977212531253 -0.56494672287229
 1 -9.04198541444144  8.03819455835584  0.83089271107111
 1 -7.57752721852185  7.27858425792579  1.62123050855085
 1 -12.07094119921992  3.26275660166017 -2.01667467216722
 1 -13.31195086428643  2.04133802500250 -1.54199539103910
 1 -12.40021175227523  3.03719237393739 -0.11831307530753
 1 -12.40854563296330 -1.53357280238024 -1.05798075297530
 1 -13.33119183808381 -0.24947168396840 -1.55808133563356
 1 -13.11391774437444 -1.91756644284428 -3.46309619411941
 1 -12.32468603280328 -0.08057259485949 -3.87186068176818
 1 -11.25034131343134 -1.68396326342634 -3.45136375637564
 1 -8.98021762476248 -4.93717446034604 -1.58162142624262
 1 -7.85140450525052 -5.60544054825483 -0.65771538453845
 1 -9.32089197409741 -4.87263228452845 -0.20329215181518
 1 -3.31824252015202 -3.59839309000900 -0.09523479497950
 1 -1.40693886038604 -4.37352379207921  3.41332424772477
 1 -2.84112372097210 -5.60147176477648  3.44207704660466
 1 -1.36106421792179 -6.05926519971997  2.72374632753275
 1  2.68719802390239 -1.68117995389539 -1.72316628162816
 1  2.54936241384138  0.12475675527553 -1.92986613881388
 1  4.36418732433243 -1.03650586578658  0.43383659965997
 1  4.08834779827983  1.43968267866787 -2.65121349104911
 1  5.51164657635764  2.23375363426343 -2.06265273347335
 1  5.67137444504450  0.72498360586059 -3.18854758575858
 1  6.59335139803980  1.33144714471447  0.32068471127113
 1  6.49197331673167 -0.33115115251525  0.72493220992099
 1  7.39163654835484 -1.26018525372537 -1.21930325392539
 1  7.80374281018102  0.24716792489249 -1.98282120572057
 1  8.99011106270627  1.02802068706871  0.19797742994299
 1  8.76913540224022 -0.67926343254325  0.66342420612061
 1  10.35662321372137  0.15326786448645 -1.77417230673067
 1  9.16375136063606 -2.06243421992199 -1.91725765056506
 1  10.83442599829983 -2.32814959885989 -2.02110635453545
 1  9.99850273627363 -2.56500844284428 -0.67053649334933
 1  11.59312699359936  0.67789001920192  0.45751723922392
 1  11.47157021042104 -1.07415337663766  0.73779440104010
 1  13.07888120702070 -1.52766092729273 -1.28416608420842
 1  12.86951070357036  0.18112880388039 -1.66462982428243
 1  13.78537997469747  0.82779533553355  0.51580892389239
 1  13.79279203230323 -0.98492809750975  1.06374289078908
 1  15.46705999449945  0.62826231123112 -1.32928728672867
 1  15.87567501040104 -2.42464275637564 -0.33460491439144
 1  14.82958600930093 -1.69497187278728 -1.87311472657266
 1  16.48637826722672 -1.69768529342934 -1.81338280778078
 1  16.15252045274528  1.30442827652765  1.09102564686469
 1  16.38415286248625 -0.33135231033103  1.26164892609261
 1  18.30868180688069 -0.51204775217522 -0.26181952235224
 1  18.03161022552256  0.71431875077508 -1.27564113991399
 1  18.18002879547955  2.19812397009701  0.90437844314431
 1  18.52190935123512  0.88358253925393  1.76380638093809
 1  20.73985889858986  0.43506965516552  0.41745880988099
 1  19.71253536013601  3.02705626752675 -0.81581517491749
 1  21.45053930603060  2.28648530133013 -1.22321368466847
 1  19.91872577697770  1.59585139593959 -1.80694766376638
 1  20.85202117731773  1.72969107820782  2.37661727892789
 1  22.10408211451145  2.03231446114611  1.29575454175418
 1  20.71959168906891  3.11384146744674  1.66036647714771
=======
12 -7.22036260926093  0.57985673377338  0.10229791719172
 6 -4.89979459745975 -1.90145132353235  0.52232876557656
 6 -4.87481741064106  2.78413686098610  1.08312467736774
 6 -9.45341007650765  3.02121761726173 -0.27357021672167
 6 -9.56955726942694 -1.78687419841984 -0.80008643774377
 7 -5.11542496709671  0.49352917101710  0.75314573287329
 6 -4.32846255235524 -0.64219404140414  0.79007703090309
 6 -2.92316132153215 -0.40175960166017  1.07931828602860
 6 -3.06380981938194  1.15514818311831  1.52614334503450
 6 -4.42432942784278  1.52473322212221  1.09731676157616
 6 -2.92988807090709  1.34882717081708  3.10624203310331
 6 -1.95650911191119 -0.56055131653165 -0.04210025172517
 6 -0.52426984958496 -0.42572691989199  0.45725985528553
 6  0.54954609180918 -0.64640815371537 -0.65597097759776
 8  0.28921016111611 -0.98120352795280 -1.83562989468947
 8  1.74760657115712 -0.29883728012801 -0.28449523842384
 7 -7.13343379127913  2.61951754155416  0.22212090759076
 6 -6.02916219521952  3.38636961276128  0.59770330393039
 6 -6.42145939903990  4.70898518791879  0.63855454265427
 6 -7.71267397439744  4.87674830633063  0.29664805610561
 6 -8.17323159475948  3.48067726302630  0.01402394869487
 6 -5.56562451915191  5.82307477337734  1.09360412091209
 6 -8.54461225882588  6.04001503520352  0.05734271967197
 6 -8.62379627092709  7.04327044564456  0.91589783958396
 7 -9.14897717031703  0.68650151125113 -0.39313334703470
 6 -9.86176243594359  1.75833578667867 -0.56497282138214
 6 -11.15811490809081  1.41252959205921 -1.09086080558056
 6 -11.25928833273327  0.06017138123812 -1.23674238823882
 6 -9.89489517021702 -0.45277725202520 -0.80556557265727
 6 -12.27724654835484  2.38870944194419 -1.24237101190119
 6 -12.32304685098510 -0.79563697379738 -1.69123993249325
 6 -12.29049653805381 -1.08890130133013 -3.22760787938794
 7 -7.27682715101510 -1.34551416501650 -0.15153983098310
 6 -8.25970621042104 -2.31237640974097 -0.39641459665967
 6 -7.88376452205221 -3.63619188668867 -0.33531080838084
 6 -6.43893777787779 -3.58830316731673 -0.06418815071507
 6 -6.14693729012901 -2.20103838513851  0.10267307150715
 6 -8.67960542794279 -4.95152799519952 -0.63372185058506
 6 -5.29065353565357 -4.40187407090709  0.15674854745475
 8 -5.11483032093209 -5.58885336873687  0.13336036673667
 6 -4.22033561296130 -3.36626241604160  0.60275014031403
 6 -3.59592022292229 -3.68997421872187  1.91238161106111
 8 -3.66215781638164 -3.10362709890989  2.98332101320132
 8 -2.76099729342934 -4.71195591799180  1.82894147504750
 6 -2.13794438233823 -5.19504373347335  2.91800673617362
 6  2.82512502420242 -0.45572336693669 -1.24480568096810
 6  4.11507359635964 -0.17383555985599 -0.49979012801280
 6  5.18986247064706  0.49409567496750 -0.95147492019202
 6  5.14872329532953  1.25252790209021 -2.36458062336234
 6  6.49296362916292  0.59535138533853 -0.25193167836784
 6  7.59235677357736 -0.12700304720472 -0.99552650315031
 6  8.97943981658166 -0.13362849324933 -0.18375018781878
 6  10.26681730623062 -0.53430050175017 -0.92502347284728
 6  10.06413311351135 -1.94669560566057 -1.26601006600660
 6  11.54059693659366 -0.30394417521752 -0.04282341374137
 6  12.82570747844784 -0.58383243434343 -0.81222124502450
 6  13.92367183558356 -0.13280448324832  0.01797886538654
 6  15.37108323322332 -0.19050277937794 -0.51520976077608
 6  15.66434810371037 -1.61233886768677 -0.96562618031803
 6  16.40138424432443  0.35754011401140  0.49975448264826
 6  17.81034562396239  0.47490888928893 -0.08816463106311
 6  18.81727209670967  1.19757797479748  0.83389382238224
 6  20.28662733193319  1.17874820832083  0.44369913311331
 6  20.38190954475447  2.01302960016002 -0.97293828652865
 6  21.12555348614861  1.83849678597860  1.53375873927393
 1 -4.11267275177518  3.57601312271227  1.52683727062706
 1 -10.10966135883588  3.96195703070307 -0.34037942944294
 1 -10.25583887328733 -2.62274161496150 -1.30243689588959
 1 -2.46912336923692 -1.04480279417942  1.96860755195519
 1 -2.18215182038204  1.60774435703570  0.89303995439544
 1 -1.80418487598760  1.34746519941994  3.23796751025102
 1 -3.15717077707771  2.36266032353235  3.36837900330033
 1 -3.36727016971697  0.42280696469647  3.60158257105711
 1 -2.18969145404540 -1.39916987738774 -0.55244915411541
 1 -2.37581925442544 -0.02014476407641 -0.79000904050405
 1 -0.46970048744875  0.57314192809281  0.70267066616662
 1 -0.21400920292029 -1.23970848604860  1.24621857705771
 1 -5.97660643604360  6.73149179327933  0.70263597279728
 1 -5.42192918231823  5.95117848094810  2.30324662176218
 1 -4.38887284328433  5.80117128352835  0.77672084768477
 1 -9.08672072457246  6.04885103320332 -0.76447667586759
 1 -9.33780499639964  7.98256899579958  0.64083370517052
 1 -7.98697816361636  7.18620502000200  1.83106149164917
 1 -11.88105221032103  3.31060138613861 -1.71380438513851
 1 -13.00504017321732  1.78127201840184 -1.82302349384938
 1 -12.48109984108411  2.85330398509851 -0.18335957995800
 1 -12.43715849424943 -1.83769321442144 -1.13413836873687
 1 -13.45855457435744 -0.40658739553955 -1.25252077957796
 1 -13.04598095069507 -1.95945063126313 -3.59895978047805
 1 -12.42829639383939 -0.23984852245225 -3.85296879257926
 1 -11.40777705700570 -1.70630549764976 -3.52711133113311
 1 -8.92472207520752 -4.89355009790979 -1.53077634173417
 1 -7.95738510331033 -5.74924492869287 -0.52979259225923
 1 -9.42994287918792 -4.97186220752075 -0.08216003860386
 1 -3.23568426432643 -3.34552780348035  0.02665739423942
 1 -1.66177434393439 -4.42629906960696  3.49375229052905
 1 -2.82455206380638 -5.51595321292129  3.62855569446945
 1 -1.39165727722772 -6.05039431263126  2.73048700160016
 1  2.76559586368637 -1.53376521242124 -1.65159912491249
 1  2.59876735433543  0.21381566116612 -2.09374252645265
 1  4.44548545414542 -0.71624383958396  0.39949316531653
 1  4.15715467896790  1.45011372177218 -2.71862023172317
 1  5.70228564026403  2.20124038293829 -2.18266473467347
 1  5.79559686728673  0.93576468396840 -3.15655438643864
 1  6.69299136203620  1.74957895789579 -0.20647800500050
 1  6.29911403080308  0.09792175477548  0.63008272497250
 1  7.05915330003000 -1.19960919611961 -1.55582690629063
 1  7.79373180908091  0.55299850795080 -1.92164508810881
 1  8.88067011861186  0.92079996499650  0.47173480568057
 1  8.80165865456546 -0.83639914611461  0.55697356105611
 1  10.29146669806981  0.12084462216222 -1.72806769626963
 1  9.15280026552655 -2.18788676517652 -1.91329725452545
 1  10.95008756445645 -2.60426721062106 -1.62823706760676
 1  10.08106099209921 -2.38569051105110 -0.30239967966797
 1  11.62289997089709  0.69684191439144  0.32757424492449
 1  11.46852990639064 -1.01355731703170  0.78283890549055
 1  12.96906022492249 -1.74589275047505 -1.17579524712471
 1  12.90744449694969 -0.05012432143214 -1.86302966426643
 1  13.71941337803780  0.88138069406941  0.31360870387039
 1  14.17406015911591 -0.56583618831883  0.96123263976398
 1  15.47808109660966  0.36274575957596 -1.53500785878588
 1  15.70943838673868 -2.26526681878188 -0.03388484238424
 1  14.89230228092809 -1.97569994559456 -1.45780319541954
 1  16.58422805220522 -1.69133465836584 -1.56547801730173
 1  15.97887308800880  1.35216305000500  0.98352489678968
 1  16.50964541174117 -0.30538971407141  1.29607236843684
 1  18.22124306300630 -0.46310285768577 -0.30976431683168
 1  17.98085515001500  0.97100441934193 -1.12303587938794
 1  18.53387418001800  2.29886404410441  0.98281628692869
 1  18.81081824212421  0.53481766276628  1.81342134243424
 1  20.74156906960696  0.33884003220322  0.02810987498750
 1  20.05311941854185  3.00932449434944 -0.62934652805281
 1  21.36298055015502  1.95569222202220 -1.43852521582158
 1  19.68656256065607  1.70891270207021 -1.80433740274027
 1  20.88045402060206  1.21740985008501  2.31382099929993
 1  22.09676138243824  1.64341557125713  1.11039600590059
 1  21.05365509540954  2.96787687098710  1.70578101860186
>>>>>>> 8e03b5b5abfc0030b3aa597dc0de36371bfbd096

