%nproc=4
%Mem=2GB
# td=(NStates=1) CAM-B3LYP/6-31G(d,p) 

TD

0 1
<<<<<<< HEAD
12 -7.14637521052105  0.63629237733773  0.03569125652565
 6 -4.92718733673367 -1.87713889228923  0.49504603730373
 6 -4.67824775367537  2.89114756205621  1.11003736863686
 6 -9.38399313481348  2.99670516601660 -0.40847370707071
 6 -9.57186750045005 -1.76629214021402 -0.88291472057206
 7 -5.13975740034003  0.46389620772077  0.74580499879988
 6 -4.36264597069707 -0.75218504050405  0.82991101430143
 6 -2.95183418881888 -0.31991141684168  1.21280163436344
 6 -3.03432687108711  1.17717038533853  1.65970670137014
 6 -4.38710570547055  1.55358610741074  1.11455848574857
 6 -2.81809689178918  1.20482277037704  3.12715412431243
 6 -1.88870233123312 -0.61290655205521  0.04575853415342
 6 -0.49181660426043 -0.41096544374437  0.55607973727373
 6  0.50284142134213 -0.67189070197020 -0.64019940044004
 8  0.32492373247325 -1.04261966956696 -1.74005033673367
 8  1.73499531003100 -0.33570096649665 -0.12575936483648
 7 -7.01434188208821  2.58742433223322  0.28364706020602
 6 -5.96715599459946  3.39089006480648  0.65840937453745
 6 -6.45733298639864  4.75943023242324  0.84768545574557
 6 -7.78052075907591  4.76827745924592  0.47063545484548
 6 -8.13686795839584  3.37153634893489  0.06249879617962
 6 -5.58062601930193  5.94110657655766  1.15535029552955
 6 -8.66404420202020  5.92946398009801  0.25662264766477
 6 -8.56956084738474  7.12436855545555  0.88908515831583
 7 -9.11297356995700  0.63910677177718 -0.53446748044804
 6 -9.79801606130613  1.75007496059606 -0.67013333743374
 6 -11.14248334493449  1.43263160226023 -1.16386810631063
 6 -11.23958636253625  0.08894425852585 -1.22442115611561
 6 -9.94627030773077 -0.38230020432043 -0.95153016911691
 6 -12.11439026272627  2.49767033803380 -1.53077985278528
 6 -12.27557210351035 -0.80314772487249 -1.76958776727673
 6 -12.19267675607561 -1.26573898509851 -3.20094521312131
 7 -7.31483095139514 -1.36713632723272 -0.12469714671467
 6 -8.33801404120412 -2.28302347444744 -0.53251820702070
 6 -7.89252539813981 -3.61873014051405 -0.46696397369737
 6 -6.60156404050405 -3.57309164616462 -0.09846157805781
 6 -6.30606320272027 -2.16242452375238  0.03800660486049
 6 -8.62099956735674 -4.89703254565457 -0.91174965336534
 6 -5.44498896919692 -4.36478036153615  0.27742061466147
 8 -5.25779461736174 -5.57348183158316  0.30150718141814
 6 -4.21375495489549 -3.27547333713371  0.58614848014801
 6 -3.61923255415542 -3.58026324762476  1.95492586548655
 8 -3.91786338693869 -3.04740147634763  2.97369005010501
 8 -2.74649584328433 -4.68863358575858  1.77444602550255
 6 -2.18843943184318 -5.19947417651765  2.97706264176418
 6  2.78715122682268 -0.64829262386239 -1.07543874427443
 6  4.08628071707171 -0.36908508480848 -0.33822397139714
 6  5.11387487188719  0.23732999839984 -0.91868164086409
 6  5.08682710571057  1.06390904020402 -2.24129829512951
 6  6.40659499229923  0.30605245544554 -0.18684516971697
 6  7.66609414731473 -0.03323367026703 -0.99585653615362
 6  8.92116398899890 -0.10056518691869 -0.15704751755176
 6  10.18205883038304 -0.47733480518052 -0.99711068156816
 6  10.23078977917792 -1.94268520462046 -1.38839230423042
 6  11.39887276417642 -0.07554133493349 -0.14392352375238
 6  12.80296520422042 -0.26927097819782 -0.78459848274827
 6  13.95518498689869  0.06995579277928  0.06067313481348
 6  15.46398252315232 -0.18536226532653 -0.57226546634663
 6  15.56294796369637 -1.76620425422542 -0.82543216091609
 6  16.41241534743475  0.40467482748275  0.47741224842484
 6  17.96027061646165  0.40892229062906 -0.07474328892889
 6  18.84260462996300  1.30553877087709  0.84259469246925
 6  20.30704937413741  1.25035536903690  0.30259502270227
 6  20.41917327112711  1.98295659285929 -1.17111810451045
 6  21.33182411321132  1.84687762406241  1.30892625602560
 1 -3.91943342784278  3.59004452585259  1.13972855975598
 1 -10.17422781548155  3.73531436643664 -0.38414380588059
 1 -10.31031432083208 -2.50524986578658 -1.21956860906091
 1 -2.57312376927693 -0.91458977287729  1.99223991519152
 1 -2.07525113031303  1.81933551615162  1.41855250565056
 1 -2.05712016951695  0.65329578247825  3.67161087458746
 1 -2.84963002300230  2.12327638513851  3.70166233163316
 1 -3.67090053275328  0.54383906790679  3.52656506930693
 1 -1.89127161206121 -1.50618057845785 -0.40192410161016
 1 -2.13065473797380  0.04851210161016 -0.70589062866287
 1 -0.45183870127013  0.53253786768677  0.87866826592659
 1 -0.24967276927693 -1.21680619581958  1.32906686188619
 1 -6.02229100450045  6.89583822792279  0.79080478967897
 1 -5.51233822322232  6.12588595169517  2.30779707680768
 1 -4.64029798579858  5.44589575597560  0.98459163476348
 1 -9.61641369386939  5.85435158325832 -0.31689191739174
 1 -9.46895811171117  7.82982372127213  0.70844046584659
 1 -7.76096556235624  7.36685308480848  1.58855724122412
 1 -11.75371947704770  2.85210553655366 -2.56445945064506
 1 -13.26718638783878  2.12819671087109 -1.62056324782478
 1 -12.16977870897090  3.44304295899590 -0.96460770477048
 1 -12.10927570597060 -1.77906735183518 -1.12820777567757
 1 -13.42343106200620 -0.39748648544854 -1.77333286078608
 1 -13.14049040164016 -1.94593928012801 -3.41880176467647
 1 -12.20422398659866 -0.55589012661266 -3.95151864756476
 1 -11.25789206850685 -1.63816868396840 -3.43152177217722
 1 -8.56913651665167 -5.10533127602760 -2.04554781888189
 1 -8.13581294609461 -5.56983698789879 -0.41523113611361
 1 -9.79842972787279 -4.63359838113811 -0.64020584318432
 1 -3.58433912981298 -3.41869512021202 -0.31306657815782
 1 -1.69768793529353 -4.49160560026003  3.70544345964596
 1 -3.00874048264826 -5.89123074067407  3.43870670957096
 1 -1.43694180568057 -5.96294556775678  2.67283123602360
 1  2.58912821692169 -1.61510334623462 -1.46101006600660
 1  2.64438191579158  0.25373965356536 -1.98860201240124
 1  4.37250815641564 -0.90211242644264  0.62885610161016
 1  4.10831979547955  1.54411312171217 -2.53142151185119
 1  5.73359877157716  1.95620587948795 -2.03958042624262
 1  5.64035134273427  0.45515662316232 -3.05176390739074
 1  6.67130919381938  1.47707170717072 -0.01765912311231
 1  6.48158227762776 -0.31682972037204  0.73337305400540
 1  7.44704208890889 -1.03741297649765 -1.39007033063306
 1  8.00394283018302  0.47866107420742 -1.81867479107911
 1  9.03452550415041  0.99238712371237  0.25884351655165
 1  8.77695618431843 -0.80566607280728  0.57848571227123
 1  10.16397394879488  0.05117765546555 -1.91838672817282
 1  9.20759574507451 -2.01810978747875 -1.93946987178718
 1  11.13201575727573 -2.14856164006401 -1.87988223212321
 1  10.09319220522052 -2.63664560656066 -0.55826526622662
 1  11.42900058095810  1.01445367556756  0.23312479998000
 1  11.50604365776578 -0.64799076037604  0.74356497809781
 1  12.73363668256826 -1.29925808700870 -1.19987765536554
 1  12.85891964446445  0.49914060506051 -1.60565392669267
 1  13.99571100780078  0.99975253125313  0.41197854085408
 1  14.11609436253625 -0.53260286498650  0.90733725022502
 1  15.80856414491449  0.26678616361636 -1.50533489148915
 1  15.54403184608461 -2.49203949604960 -0.04040549444944
 1  14.72133518421842 -1.97757013261326 -1.49479689478948
 1  16.52350197959796 -1.72504802970297 -1.33628509800980
 1  16.14284948564856  1.35891372507251  0.64997154145415
 1  16.09124357155715 -0.09570874597460  1.45417817901790
 1  18.37960889958996 -0.63116966436644 -0.26085942634263
 1  17.90219728422842  0.86232355125513 -1.15556913271327
 1  18.43313410601060  2.44612877057706  0.86451445674567
 1  18.70702786308631  0.95601978297830  1.93136313661366
 1  20.57035194789479  0.14442059025903 -0.09386232223222
 1  19.98588269486948  3.10094365626563 -1.13670726412641
 1  21.56597084918492  2.06377303010301 -1.44668603190319
 1  19.84711861626163  1.43692550335034 -1.92895986498650
 1  21.33788976417642  1.32140024912491  2.26854647184718
 1  22.37013872017202  1.82044327402740  0.93905887218722
 1  21.22817254715472  2.84614469776978  1.56277671817182
=======
12 -7.15617619061906  0.62701144924492  0.05911359875988
 6 -4.87451206920692 -2.00053123152315  0.39751628432843
 6 -4.73324325322532  2.76486493379338  1.08638500340034
 6 -9.39551428692869  3.16351184668467 -0.48864172387239
 6 -9.58139845354535 -1.67964347534753 -0.80769719881988
 7 -5.16081950655065  0.32732255035504  0.72209262756276
 6 -4.35902560866087 -0.74650447244724  0.71981000420042
 6 -2.92751175657566 -0.43120254595460  1.20671102530253
 6 -3.05786922532253  0.93214588288829  1.63252398309831
 6 -4.42816981188119  1.40765151395140  1.17573460336034
 6 -3.05085016711671  1.19332162026203  3.20848225712571
 6 -1.84376783778378 -0.77234249564957  0.14150810911091
 6 -0.44275169776978 -0.50545489268927  0.69020314961496
 6  0.53111424862486 -0.72806631953195 -0.55235061556156
 8  0.31217245734573 -1.06159156675668 -1.69846617831783
 8  1.75147695819582 -0.40813821022102 -0.14223101200120
 7 -7.11010145804581  2.64999058885889  0.37484618011801
 6 -6.01641092009201  3.35567654345435  0.74053758735874
 6 -6.37376462956296  4.75495978537854  0.67398808600860
 6 -7.66647935493549  4.80898152965297  0.37106549784978
 6 -8.15228950055006  3.54192338763876  0.13854640094009
 6 -5.45367332403240  5.85491795769577  1.03048780928093
 6 -8.44457225482548  6.08105913961396  0.14943192859286
 6 -8.21450534183418  7.33984010261026  0.67797404720472
 7 -9.12022429502950  0.68725158625863 -0.40376441014101
 6 -9.82787904760476  1.83865381848185 -0.63716004010401
 6 -11.17331642824282  1.52197053615362 -1.13815553505351
 6 -11.25309771367137  0.12487785188519 -1.15657437143714
 6 -9.92528820952095 -0.40236221052105 -0.76368138423842
 6 -12.21125994969497  2.51008157915792 -1.35359213401340
 6 -12.37921246754675 -0.78525593569357 -1.76459726822682
 6 -12.13731121952195 -1.08089050025002 -3.14562968156816
 7 -7.25159462776278 -1.42719233283328 -0.18916359335934
 6 -8.21862210201020 -2.25837100920092 -0.65310026522652
 6 -7.81334748034804 -3.62975124262426 -0.65146242354235
 6 -6.55167905200520 -3.63001733873387 -0.13548528042804
 6 -6.21423401980198 -2.22264054535454  0.00176298049805
 6 -8.62905037243724 -4.88105094749475 -0.92944142254225
 6 -5.40085455575558 -4.36663054655466  0.25056792939294
 8 -5.27688652655265 -5.50961544494449  0.34055108580858
 6 -4.23283686308631 -3.34391018081808  0.57587745304530
 6 -3.63105373627363 -3.68998421972197  1.86773714661466
 8 -3.90912251285128 -3.14478121432143  2.93714639573957
 8 -2.74981617531753 -4.64416913931393  1.76103468436844
 6 -2.12019260716072 -5.16663089218922  2.94437937343734
 6  2.79672218391839 -0.73652144674467 -1.10425162556256
 6  4.10304239323932 -0.46499467576758 -0.46807695669567
 6  5.11297478187819  0.32874914031403 -0.98319809250925
 6  5.08774719771977  1.10500314961496 -2.28350251555155
 6  6.35965029782978  0.38435028522852 -0.17409389458946
 6  7.62591012891289 -0.12953330023002 -0.98933588408841
 6  8.98937080968097 -0.15398052845285 -0.21417323012301
 6  10.24926555105510 -0.53440051175118 -0.94598556905691
 6  10.17903460366037 -1.93983491959196 -1.27297076207621
 6  11.39792266916692 -0.18080186098610 -0.02369150055006
 6  12.79640454815481 -0.40067411851185 -0.60801082398240
 6  13.96250571897190 -0.08867006980698  0.31332840034003
 6  15.30749687458746 -0.15400913001300 -0.45077331713171
 6  15.53872554145414 -1.52401003480348 -0.87708732643264
 6  16.32932703860386  0.41863622362236  0.55239974717472
 6  17.73832842224222  0.59971136953695 -0.18442425702570
 6  18.87709807930793  1.18959717671767  0.77564799779978
 6  20.27613628282828  1.40887122062206  0.09380414361436
 6  20.21525287908791  2.26189448664867 -1.15526651935193
 6  21.23078400920092  1.92253518981898  1.13257862126213
 1 -4.05734721922192  3.60404592599260  1.48535312221222
 1 -10.25206559925993  4.05689652465246 -0.56955234673467
 1 -10.45080837023702 -2.45217455825583 -1.06491314351435
 1 -2.68378483538354 -1.08176649054906  2.02935362656266
 1 -2.40588419361936  1.67113069566957  1.23405405580558
 1 -2.08735319281928  0.80005045794579  3.58838255175518
 1 -3.25953101310131  2.32536659415942  3.21259342474248
 1 -3.82221566426643  0.63142782678268  3.85982839563956
 1 -1.92885537043704 -1.90536049644964 -0.18021193039304
 1 -2.10772244474447 -0.30422317191719 -0.77147718731873
 1 -0.26428994639464  0.41024563846385  1.20548094719472
 1 -0.28040584258426 -1.22834734993499  1.43215717091709
 1 -5.83625240064006  6.70166881098110  0.55774148334833
 1 -5.54305129452945  5.86124948804880  2.07112340944094
 1 -4.40323427942794  5.62019318571857  0.81150432603260
 1 -9.13084513701370  6.06433258135814 -0.61660188838884
 1 -8.86984820072007  8.11602234113411  0.29716933873387
 1 -7.29818928472847  7.46204260376038  1.34971335683568
 1 -12.07224132923292  3.38975930193019 -2.08170117481748
 1 -13.20805047424742  2.12344623582358 -1.70614180568057
 1 -12.50185191629163  3.01632028672867 -0.40116136013601
 1 -12.35941071947195 -1.79862930803080 -1.21034598949895
 1 -13.28341706060606 -0.26459319611961 -1.64987051455146
 1 -12.96594294689469 -1.75811049724973 -3.75083496799680
 1 -11.88748231243124 -0.00528506610661 -3.93402689838984
 1 -11.25186146544655 -1.64132900000000 -3.44250287028703
 1 -8.78580818381838 -4.97204794769477 -2.08893215731573
 1 -8.01723108790879 -5.73498350255025 -0.58239785278528
 1 -9.73311319621962 -4.75730075137514 -0.53150497309731
 1 -3.56721741764176 -3.51235448614862 -0.26535180668067
 1 -1.50220838733873 -4.45122156185619  3.38875179047905
 1 -2.79913952255226 -5.63412503010301  3.53456629552955
 1 -1.50265837733773 -5.95171444464447  2.52131608450845
 1  2.62148145224522 -1.81625346124612 -1.37380134513451
 1  2.79119659725973 -0.19101482188219 -2.05236838903890
 1  4.45315622122212 -0.87774999019902  0.63806702270227
 1  4.04751371487149  1.02841155155516 -2.73989235893589
 1  5.43897930963096  2.12010226912691 -2.20996746494650
 1  5.65396270387039  0.60450155765577 -2.87977670867087
 1  6.87134919781978  1.44689868986899  0.13445608840884
 1  6.24199831923192 -0.27628566596660  0.78141785848585
 1  7.41578896359636 -1.14827406260626 -1.36107743134313
 1  7.76662909880988  0.69697290539054 -1.92091501510151
 1  8.91416346794679  0.94246213121312  0.28615624782478
 1  8.60582907160716 -0.88775428162816  0.76857472117212
 1  10.28086563796380  0.22596513421342 -1.83281817131713
 1  9.25543052855286 -2.19633761026103 -1.65916184098410
 1  10.96929948564856 -2.25724250815081 -1.96338058195820
 1  10.29835272127213 -2.30172211421142 -0.36754619431943
 1  11.34189187008701  0.91882411261126  0.34622611011101
 1  11.29737279067907 -0.78545450675068  1.04702532413241
 1  12.88579189808981 -1.50143830503050 -0.89859752735274
 1  12.78463221572157  0.12842353335334 -1.61606496779678
 1  13.88544998169817  0.88498105410541  0.79896723972397
 1  14.11079383248325 -0.62978258295830  1.26852336883688
 1  15.28803209170917  0.51155064006401 -1.28878323632363
 1  15.66780422332233 -2.29416970907091 -0.07809926382638
 1  14.87539058975898 -1.88175055065507 -1.54466188128813
 1  16.53075270467047 -1.70943646854685 -1.48551002050205
 1  16.02099730043004  1.48010584428443  0.92598914321432
 1  16.50717516471647 -0.32416159125913  1.48132089328933
 1  18.22514345304531 -0.47382392979298 -0.57861120152015
 1  17.67399446394640  1.31122844174417 -1.09330290609061
 1  18.36413720632063  2.15505966366637  1.16326433173317
 1  19.11009817011701  0.54681886288629  1.73493349364936
 1  20.46936184888489  0.26636278447845 -0.14640757675768
 1  20.41901600820082  3.36106966886689 -0.72795638903890
 1  21.11273552565257  1.96240289308931 -1.82016337963796
 1  19.42489639403940  2.00876268706871 -1.84112108110811
 1  21.20547652285229  1.09260736983698  1.75336495369537
 1  22.28319002530253  2.01746297599760  0.64945991229123
 1  20.80184991489149  2.91729181248125  1.43920436093609
>>>>>>> 8e03b5b5abfc0030b3aa597dc0de36371bfbd096

