%nproc=4
%Mem=3GB
# td=(NStates=1) iop(3/107=0140000000,3/108=0140000000) CAM-B3LYP/6-31G(d,p) 

TD

0 1
12 -7.18675336703670  0.60372875637564  0.09023539353935
 6 -4.81047986448645 -1.95776300690069  0.45018042044204
 6 -4.79879591019102  2.89529824772477  1.16440654585459
 6 -9.32488925342534  3.07753530653065 -0.48231070637064
 6 -9.57317341534153 -1.72873463916392 -0.72045885078508
 7 -5.12786981818182  0.41892798339834  0.63520134413441
 6 -4.34019626692669 -0.72140328352835  0.75831372607261
 6 -2.88604482508251 -0.45397379537954  1.19742541164116
 6 -2.96902012891289  1.03690239183918  1.66354263356336
 6 -4.36343657835784  1.50798544964496  1.07959235313531
 6 -2.92158833963396  1.09846266556656  3.24362967756776
 6 -1.94804053375338 -0.64094008320832 -0.03460965066507
 6 -0.47762347154715 -0.40545379337934  0.45611899419942
 6  0.56571849504950 -0.58775539743974 -0.69041883198320
 8  0.20188040484048 -0.74403818151815 -1.84804219731973
 8  1.71332993139314 -0.52134207260726 -0.28101348894890
 7 -7.11643928732873  2.67912112201220  0.36832775687569
 6 -6.04077422122212  3.41246501390139  0.85738161426143
 6 -6.40805571397140  4.79180604420442  0.84543280198020
 6 -7.67550233553355  4.84808661386139  0.34542066846685
 6 -8.06218574607461  3.51957889668967  0.06304430303030
 6 -5.37691972587259  5.89013848754875  1.18908906410641
 6 -8.50274028202820  6.06452672227223  0.10425103760376
 6 -8.32319072907291  7.15591474117412  0.81421548084808
 7 -9.11319036013601  0.71124811921192 -0.51420799469947
 6 -9.90023751005100  1.92852617691769 -0.51552436593659
 6 -11.19409336203620  1.48788823332333 -0.94292915261526
 6 -11.20377986518652  0.13665121092109 -1.17787781608161
 6 -10.00583818741874 -0.36895708910891 -0.83199540084008
 6 -12.33083402110211  2.45796103750375 -1.41866131883188
 6 -12.38708250115011 -0.75425154895490 -1.84189351995200
 6 -12.09517142604260 -1.15140533283328 -3.26155680688069
 7 -7.24120708310831 -1.39052388808881 -0.15518819391939
 6 -8.33484781108111 -2.22212075757576 -0.40038161806181
 6 -7.85499753955396 -3.58217876927693 -0.49877017681768
 6 -6.50568835933593 -3.60262324442444 -0.09285136683668
 6 -6.19334306600660 -2.26464442024202  0.13251508690869
 6 -8.58194053355336 -4.82865896429643 -0.89681306440644
 6 -5.32233769666967 -4.39250281368137  0.06364133823382
 8 -5.11697268956896 -5.59391624862486  0.22873882248225
 6 -4.13989849244925 -3.32000944834483  0.51554987658766
 6 -3.56400057685769 -3.79209715241524  1.81542751125113
 8 -3.69516229962996 -3.04578193609361  2.77431078927893
 8 -2.75740109290929 -4.81160977947795  1.75580461796180
 6 -2.34094305130513 -5.28541374727473  3.03929132953295
 6  2.76540286068607 -0.59741803070307 -1.32779629682968
 6  4.07219810501050 -0.40069533743374 -0.70518308110811
 6  5.01477696899690  0.35382191019102 -1.10435331233123
 6  4.99032275787579  1.25330300560056 -2.38935307030703
 6  6.38055433413341  0.52990360636064 -0.24986551095110
 6  7.62278373097310 -0.10907945594559 -0.93521385008501
 6  8.85530324192419 -0.13606542264226 -0.08741484388439
 6  10.17272273287329 -0.72023368656866 -0.73492921292129
 6  10.12272554915492 -2.19168704860486 -0.87087405340534
 6  11.38432309610961 -0.21865675677568  0.06957899539954
 6  12.78155589108911 -0.66896693019302 -0.65859336443644
 6  14.04016528832883 -0.13841955625563  0.25976238783878
 6  15.32142813381338 -0.26094517811781 -0.44267992049205
 6  15.59584585558556 -1.76308469676968 -0.67240906720672
 6  16.45783277597760  0.43330984828483  0.43687842254225
 6  17.84759234693469  0.46615034463446 -0.28870539753975
 6  18.85400581918192  1.26244432293229  0.61189444614461
 6  20.31432423682368  1.39342877537754  0.18442514851485
 6  20.37417026282628  2.21517882298230 -1.15660035593559
 6  21.15861092809281  2.03712541244124  1.30361430143014
 1 -3.99819018251825  3.39720297169717  1.64926102190219
 1 -10.23688581188119  3.92768504300430 -0.40725525172517
 1 -10.40053447754775 -2.37990352545254 -0.90279809920992
 1 -2.56206349354935 -0.99119932263226  1.95652214291429
 1 -2.15101856815682  1.75990805190519  1.32720636963696
 1 -2.07532061846185  0.93511261766177  3.76662700010001
 1 -3.03111022012201  2.16577580038004  3.58976699889989
 1 -3.69910271077108  0.44034918921892  3.62493417861786
 1 -2.08227334633463 -1.79555022582258 -0.15315332243224
 1 -2.18060442944294 -0.04284666486649 -0.81339807440744
 1 -0.50229565826583  0.61782136943694  0.79152301530153
 1  0.08384996469647 -1.07119788638864  1.34621808010801
 1 -5.48000217791779  6.98538605060506  0.91112094339434
 1 -5.40031150245024  5.85148803020302  2.31137314981498
 1 -4.42238708330833  5.65035930393039  0.82774350695070
 1 -9.23805406520652  6.09852323432343 -0.60929228192819
 1 -8.98689775347535  8.19635935693569  0.70928070377038
 1 -7.72972090419042  7.27038387478748  1.87843680398040
 1 -11.95592606560656  2.98762790989099 -2.31802763426343
 1 -13.20691798949895  1.95465420782078 -1.65145087328733
 1 -12.71042207490749  3.07202453655366 -0.51152159165917
 1 -12.47133909880988 -1.67452837563756 -1.24022752365237
 1 -13.53924622372237 -0.39363207370737 -1.34663041744174
 1 -12.93215841504150 -1.67996165826583 -3.86494745284528
 1 -12.10908131383138 -0.21057952925293 -3.91033001140114
 1 -11.06979181858186 -1.44347537473747 -3.28736701490149
 1 -9.30396501510151 -4.75454195499550 -1.71230729372937
 1 -7.91154553975398 -5.75394134743474 -1.02473242834283
 1 -9.15124930393039 -5.01411986038604 -0.02098436713671
 1 -3.40957847634763 -3.67300390599060 -0.15860359845985
 1 -1.86555994359436 -4.56768898229823  3.50177189478948
 1 -3.17059349664967 -5.61153067796780  3.73059409710971
 1 -1.68951947244724 -6.08220900570057  2.59001236233623
 1  2.66811486628663 -1.57328395119512 -2.06733818251825
 1  2.64174061536154  0.35715380018002 -2.06008706620662
 1  4.24871535823582 -0.89262767656766  0.20798219841984
 1  3.82759807130713  1.25282082478248 -2.39276976267627
 1  5.38699563176318  2.24632505640564 -2.14240167856786
 1  5.60480004850485  1.06827801870187 -3.11760801770177
 1  6.48809699359936  1.73698367896790 -0.25688607470747
 1  6.10457832993299  0.20649331263126  0.73050924642464
 1  7.28630075287529 -1.20563123612361 -1.11215597279728
 1  7.71674423292329  0.44657376037604 -1.99732055495550
 1  8.94570061436144  0.89758925642564  0.33644607270727
 1  8.59886300710071 -0.59166751945195  0.82493861726173
 1  10.28373300510051 -0.19778363056306 -1.91239639763976
 1  9.33605321442144 -2.51317960146015 -1.61741012291229
 1  10.96871601220122 -2.60027342664266 -1.43274863296330
 1  9.93777597469747 -2.78807292199220 -0.07136453015302
 1  11.49109075067507  0.75538197159716  0.29476724752475
 1  11.29824742024202 -0.55740703830383  1.23528984908491
 1  12.93310126262626 -1.63657107640764 -0.58670094159416
 1  12.69080491039104 -0.24868993299330 -1.73110744444444
 1  13.84862628292829  0.92317768106811  0.51098592729273
 1  13.96937524812481 -0.58905528442844  1.24306668066807
 1  15.22441284268427  0.13185658265827 -1.38251952075208
 1  15.56916071287129 -2.45269461066107  0.18225008950895
 1  14.77582922732273 -2.13532805280528 -1.32160353385339
 1  16.70365864546455 -2.08492938993899 -1.05556206950695
 1  16.11854512801280  1.42357069076908  0.68556447274727
 1  16.57778185598560 -0.08379466426643  1.45487398209821
 1  18.36502324002400 -0.40702721672167 -0.32426262186219
 1  17.81210852045205  0.77105599969997 -1.33874961856186
 1  18.20793985088509  2.16452772077208  0.92645459225923
 1  18.77485344784478  0.77639247874787  1.67486073157316
 1  20.78162799509951  0.41172216981698  0.05672156435643
 1  19.79723654215422  3.20392116861686 -1.10435261996200
 1  21.35126892769277  2.54648579067907 -1.65763374457446
 1  19.74045244284428  1.84925521572157 -2.00425881028103
 1  21.13134698819882  1.33893953485348  2.11618528732873
 1  22.29799769256925  2.13525399609961  1.03361001460146
 1  20.79541962046205  3.08943506070607  1.64361149784979

