%nproc=4
%Mem=2GB
# td=(NStates=1) CAM-B3LYP/6-31G(d,p) 

TD

0 1
<<<<<<< HEAD
12 -7.17033760676068  0.58113686178618  0.05561324872487
 6 -4.87667228522852 -2.04232541094109  0.53568010071007
 6 -4.86629655855586  2.76891533883388  1.26876324122412
 6 -9.45046978247825  3.06130162566257 -0.38830168986899
 6 -9.54171448514852 -1.68368387938794 -0.86625305440544
 7 -5.17395081968197  0.37451726982698  0.60981139943994
 6 -4.31918162426243 -0.76781660366037  0.70188821202120
 6 -2.92005101050105 -0.36712613831383  1.20780113431343
 6 -3.06045948434843  1.14059672797280  1.63189392009201
 6 -4.46502349724972  1.43975472427243  1.15650268016802
 6 -2.88926400850085  1.33290557865787  3.16400780968097
 6 -1.93944740574057 -0.57878313971397  0.02670662896290
 6 -0.51796921952195 -0.35323967116712  0.55845997529753
 6  0.55007614481448 -0.62097561046105 -0.61021640214021
 8  0.17166840694069 -1.01448685628563 -1.72652898459846
 8  1.78866067656766 -0.41588898529853 -0.21558834773477
 7 -7.22387283518352  2.55771136093609  0.33534222972297
 6 -6.03575285428543  3.43233420922092  0.74481801540154
 6 -6.40339759285929  4.68089237863786  0.77607829502950
 6 -7.81579428642864  4.72828345984598  0.35943433473347
 6 -8.17978224982498  3.43072226752675  0.04519706600660
 6 -5.55998395509551  5.90110257615762  1.10922568306831
 6 -8.58895669326933  5.98582961666167  0.16525351075108
 6 -8.37738162946295  7.27778389698970  0.67622387218722
 7 -9.10320259285929  0.70178303940394 -0.47112114581458
 6 -9.87626388608861  1.78722867596760 -0.61894821892189
 6 -11.20598969556956  1.43652199129913 -1.09138085758576
 6 -11.20116252015202  0.09108447254725 -1.20640935493549
 6 -9.83809949064906 -0.37584955925593 -0.84437945404540
 6 -12.29608843254325  2.46111668266827 -1.43597037183718
 6 -12.32358690499050 -0.77303471357136 -1.71724253275328
 6 -12.28487597599760 -0.97439985118512 -3.28093321192119
 7 -7.27385685398540 -1.38322793639364 -0.20256493349335
 6 -8.25986622642264 -2.21509668176818 -0.42381733693369
 6 -7.98270441604160 -3.63149141664166 -0.45177245454545
 6 -6.58471235533553 -3.57346168316832 -0.05184691659166
 6 -6.18806140254025 -2.20666894819482  0.09588239243924
 6 -8.70212768016802 -4.83738658105811 -0.74114259265927
 6 -5.38059252955296 -4.41257514101410  0.26216908950895
 8 -5.21056989488949 -5.59456393979398  0.25971300200020
 6 -4.21976555595560 -3.41441723152315  0.44512437773777
 6 -3.57900853175318 -3.71133635493549  1.81630200310031
 8 -3.75803740434043 -3.15943267946795  2.89490217131713
 8 -2.65949714341434 -4.71823654605461  1.71458003890389
 6 -2.19434002190219 -5.23770799989999  2.91810674617462
 6  2.77960047174717 -0.73445123972397 -1.30555175557556
 6  4.07199928892889 -0.49542771907191 -0.56189633863386
 6  5.08055153955396  0.29948621402140 -0.85207498019802
 6  5.09358778177818  1.19640228952895 -2.18217238253825
 6  6.35485981878188  0.35753760396040 -0.14290077527753
 6  7.65583312121212 -0.05704605150515 -0.86983393389339
 6  8.92823469606961 -0.08107323772377 -0.06727854065407
 6  10.16994761926193 -0.49374644634463 -0.95425639613961
 6  10.17093379357936 -1.97089802590259 -1.32290575557556
 6  11.39720259715972 -0.09287306810681 -0.07144627602760
 6  12.85274018171817 -0.31679573067307 -0.62456247914791
 6  14.05572504090409 -0.01547275007501  0.25158222572257
 6  15.40977710261026 -0.11170489958996 -0.32487072687269
 6  15.65968763766377 -1.65905353915392 -0.58657827552755
 6  16.56347045294530  0.53490785078508  0.45757026422642
 6  17.90323491289129  0.47725912431243 -0.16996281088109
 6  18.94181455095510  1.27868608560856  0.63889432243224
 6  20.28056672587259  1.26834716821682  0.04081884508451
 6  20.35584693849385  2.09543784098410 -1.18022901560156
 6  21.30652158295830  1.69956289258926  1.23714907830783
 1 -3.98766025052505  3.52319784118412  1.63601818871887
 1 -10.19545993869387  3.93439427442744 -0.50206559805981
 1 -10.35755904530453 -2.42400174097410 -1.28865551775178
 1 -2.71373783068307 -0.94721303520352  2.00579127032703
 1 -2.33630723592359  1.84938852145215  1.03100375077508
 1 -1.80172462996300  1.03550400330033  3.22666638013801
 1 -3.03187824782478  2.30936499399940  3.66021818721872
 1 -3.41515495819582  0.54848953295330  3.82210462326233
 1 -1.99743222812281 -1.48738869926993 -0.48630253945395
 1 -1.97379905240524  0.14801205160516 -0.72272231183118
 1 -0.46275979337934  0.60128474237424  0.89974037313731
 1 -0.33960176217622 -1.14092860806081  1.17549150435044
 1 -5.84944371977198  6.73069171327133  0.49624533373337
 1 -5.73363035243524  6.20804416751675  2.13657995509551
 1 -4.55367932393239  5.41678284468447  0.86477965356536
 1 -9.33331538403840  5.86454260236024 -0.58832906110611
 1 -8.82354357025702  8.05691643054305  0.30326994879488
 1 -7.65598506430643  7.41013741324132  1.22709109460946
 1 -11.79127323242324  3.31706203220322 -2.10730373507351
 1 -13.11236090529053  1.85437932913291 -1.96394758625863
 1 -12.80404213531353  2.76068472317232 -0.38900014401440
 1 -12.21032581098110 -1.65709515461546 -1.25704065896590
 1 -13.25553427232723 -0.31501823862386 -1.53468899639964
 1 -13.04618097069707 -1.53549823602360 -3.68435832033203
 1 -12.46291985618562  0.10579604200420 -3.63193668936894
 1 -11.29860613991399 -1.47349221632163 -3.39524814481448
 1 -8.91909151215122 -4.71611235413541 -1.73662692679268
 1 -8.13527289208921 -5.66769677387739 -0.64883449644964
 1 -9.54204408930893 -4.68361338263826 -0.42721454405441
 1 -3.36614731063106 -3.41614486518652 -0.25941121262126
 1 -1.70383855035504 -4.56533297299730  3.66028894419442
 1 -2.79904951355136 -5.53779539713971  3.70792363126313
 1 -1.28964707620762 -6.04539381258126  2.61781573447345
 1  2.75102440654066 -1.73776561246125 -1.72086605160516
 1  2.62567004460446 -0.13503922432243 -2.11229438163816
 1  4.28378928452845 -1.24554676987699  0.18635185118512
 1  4.22539150265026  1.31940065046505 -2.65450382008201
 1  5.27635304700470  2.32408266716672 -2.06151261946195
 1  5.77438474607461  0.74006511401140 -2.94220295129513
 1  6.48060012291229  1.34110811081108  0.29563220602060
 1  6.00717483688369 -0.24320235763576  0.80988070477048
 1  7.49199658435844 -1.03572280748075 -1.18271959555956
 1  7.69365180108011  0.52544575267527 -1.74280720432043
 1  9.28297034863486  1.02016990199020  0.25518315051505
 1  8.98264675337534 -0.76488199439944  0.74105196889689
 1  10.16211376277628  0.11106364406441 -1.78244313381338
 1  9.08959394489449 -2.13449142564256 -1.77940386518652
 1  10.88233078877888 -2.16046283018302 -2.05055929982998
 1  10.48093097909791 -2.72295423742374 -0.43209264896490
 1  11.12538021892189  0.96840907110711  0.17834932243224
 1  11.53799685308531 -0.59329529082908  0.78945956755676
 1  12.81521484038404 -1.30688885008501 -0.99596726432643
 1  13.03856760926092  0.20378106910691 -1.55314867616762
 1  13.76936837353735  1.05869842584258  0.51352869586959
 1  13.93650640374037 -0.54513411811181  1.30142665916592
 1  15.40964425292529  0.30420990599060 -1.26214057205721
 1  15.84719216211621 -2.28957925002500  0.38897744384438
 1  14.68900195089509 -2.14486686228623 -0.97135455055506
 1  16.60837046644665 -1.70512603750375 -1.28841031053105
 1  16.00162536323632  1.37619545324532  0.62579912421242
 1  16.79365381258126  0.01679250415041  1.46733949514952
 1  18.22945388408841 -0.51939848724872 -0.22817615801580
 1  17.81947901240124  0.83447076597660 -1.27741131693169
 1  18.64986577917792  2.33302746044604  0.71389939523952
 1  19.06624378467847  0.90756493749375  1.77669767006701
 1  20.60615552825282  0.26972312051205 -0.25073800980098
 1  20.06542064866487  3.24908847074707 -0.98446203960396
 1  21.44857911001100  2.09393604640464 -1.62566392969297
 1  19.76407031143114  1.71688349914992 -2.07148411741174
 1  21.31932790799080  1.00503861296130  2.14201381858186
 1  22.53746545284528  1.84506573627363  0.90548551485149
 1  20.96897662756276  2.61070115341534  1.47317775827583
=======
12 -7.15030560356036  0.58522727082708  0.05836352375238
 6 -4.87297191519152 -1.93793497189719  0.51895842854285
 6 -4.86226615551555  2.93344179147915  1.18918528342834
 6 -9.46894162966297  3.07958345384538 -0.43178603830383
 6 -9.50494080778078 -1.69197470847085 -0.91939836893689
 7 -5.17265068966897  0.46550636873687  0.82434285258526
 6 -4.40710041614161 -0.71432125412541  0.89834785798580
 6 -2.93387239263926 -0.27946737243724  1.21812216641664
 6 -3.04892833123312  1.18579124742474  1.63561429212921
 6 -4.47256425132513  1.58654940374037  1.21353838373837
 6 -2.85203028512851  1.31084337243724  3.24579598849885
 6 -1.89884334533453 -0.56401166256626  0.11135509380938
 6 -0.44190161276128 -0.47547189438944  0.66204033333333
 6  0.43367450465047 -0.64882839573957 -0.42272765326533
 8  0.18126936703670 -0.82583799139914 -1.63319965166517
 8  1.78419022952295 -0.43651104750475 -0.05891268016802
 7 -7.07706815471547  2.64595018481848  0.34479317481748
 6 -6.10225950495050  3.41990296609661  0.83330686428643
 6 -6.39474672777278  4.78651294069407  0.74888557575758
 6 -7.72309501650165  4.84130476197620  0.34480287158716
 6 -8.12113638523853  3.38851804710471 -0.07562501620162
 6 -5.52718067476748  5.94042650855086  1.16220098059806
 6 -8.64655245284528  5.97435846954695  0.18048503390339
 6 -8.57136102740274  7.09075519411941  0.88615486528653
 7 -9.00533280588059  0.66575943704370 -0.72203623732373
 6 -9.88597485718572  1.78811876497650 -0.70109643374337
 6 -11.19353845044504  1.35523386248625 -1.11230294979498
 6 -11.27730013391339 -0.06064069997000 -1.29337805180518
 6 -9.86292197289729 -0.36140811511151 -1.00741575767577
 6 -12.28455727942794  2.33402397339734 -1.49296607140714
 6 -12.25066961326133 -0.98248565866587 -1.73733454195420
 6 -12.31893938233823 -1.20751316251625 -3.26402152075208
 7 -7.13957342564257 -1.38580819441944 -0.27614229122912
 6 -8.29883012281228 -2.28006317841784 -0.57054200940094
 6 -7.83840998659866 -3.59095736323632 -0.47820509780978
 6 -6.43995787988799 -3.54524886188619 -0.06388812071207
 6 -6.18887148354835 -2.18564684598460  0.16313911811181
 6 -8.57771523892389 -4.81686452885289 -0.79786826522652
 6 -5.28334280458046 -4.37267115061506  0.23017589018902
 8 -5.19846868476848 -5.62465694909491  0.26379341004100
 6 -4.08861244064406 -3.31715750555056  0.57144701000100
 6 -3.60671130203020 -3.68576379767977  1.97015738863886
 8 -3.87491909250925 -3.09997673387339  2.97443012411241
 8 -2.62538373207321 -4.66071079347935  1.87635621652165
 6 -2.04430501840184 -5.04519874897490  3.15567050255026
 6  2.80244275597560 -0.45694348894889 -1.19722092249225
 6  4.12712480148015 -0.36153432973297 -0.59648979797980
 6  5.06470995539554  0.55607187258726 -0.94091386408641
 6  5.05875429842984  1.38174082338234 -2.13522768806881
 6  6.43569790259026  0.41467331753175 -0.20281676687669
 6  7.60862840074007 -0.05364571147115 -1.06042299279928
 6  8.96485835843584 -0.04325945634563 -0.34502631543154
 6  10.22938356285628 -0.50024709640964 -1.10138110861086
 6  10.25292199239924 -1.97850878697870 -1.64288775377538
 6  11.50180305720572 -0.47942172297230 -0.21341047244724
 6  12.79147405510551 -0.62888693979398 -0.81327135003500
 6  14.02534200260026 -0.25246644944494  0.09601666916692
 6  15.41350747564756 -0.29479320842084 -0.55459369916992
 6  15.74507617651765 -1.68191582538254 -1.06451606930693
 6  16.39870397629763  0.15192955295530  0.45460996819682
 6  17.90502509190919  0.34678607700770 -0.09283509810981
 6  18.73767413691369  1.17910612761276  0.83929436243624
 6  20.12790145934593  1.43534386788679  0.28541330453045
 6  20.26457781158116  2.13067136433643 -0.96822781548155
 6  21.03336426722672  1.96935987228723  1.47338270167017
 1 -4.16222770727073  3.52617813921392  1.43751833873387
 1 -10.22102249494949  3.88543937893789 -0.66346173767377
 1 -10.47037032643264 -2.21439077987799 -1.22766941914191
 1 -2.59026548344834 -0.98397671157116  1.95071576277628
 1 -2.39180278547855  1.88905248784878  1.10227087748775
 1 -1.91684614211421  1.07362781568157  3.56705041854185
 1 -3.26734179417942  2.24147820532053  3.61235340074007
 1 -3.50099354205421  0.44456914091409  3.84179659245925
 1 -1.97315980088009 -1.57779774017402 -0.24912882208221
 1 -2.06606827932793  0.09641689208921 -0.73404344394439
 1 -0.22343586098610  0.50906552045205  1.03272367146715
 1 -0.27059486148615 -1.10851536673667  1.42013596879688
 1 -5.68389716511651  6.77282592669267  0.54370007920792
 1 -5.83725071447145  6.38437180028003  2.32637893499350
 1 -4.54923887988799  5.73811497789779  0.90109328492849
 1 -9.26444849734973  5.87599374747475 -0.55729595779578
 1 -9.32604382028203  7.97256799569957  0.76584620642064
 1 -7.59354882068207  7.20606700620062  1.61189957545755
 1 -11.81352545764577  3.20442076807681 -2.21957496219622
 1 -13.07368703790379  1.82279617081708 -2.15816700820082
 1 -12.64391612271227  2.78727738243824 -0.46762800680068
 1 -12.12811759015902 -1.88664810991099 -1.34791974687469
 1 -13.21069978887889 -0.66840357715772 -1.23813934143414
 1 -13.25943229582958 -1.56527121332133 -3.69413929842984
 1 -12.25641920612061 -0.34198873647365 -3.88201169686969
 1 -11.38971525082508 -1.77911277837784 -3.59101772177218
 1 -9.07996759975998 -4.74587533043304 -1.87112037613761
 1 -8.20838020282028 -5.83816382058206 -0.82345195819582
 1 -9.46837672257226 -4.88016303760376 -0.15076689928993
 1 -3.17817851375138 -3.22078532923292 -0.10167543904390
 1 -1.53598176467647 -4.01222766246625  3.56082899819982
 1 -3.01960156875688 -5.42126374397440  3.76600943984398
 1 -1.19007711921192 -5.83884315751575  2.88062201510151
 1  2.49489879397940 -1.40716255215522 -1.60966493149315
 1  2.64892236983698  0.17446172577258 -1.99857300950095
 1  4.31889279487949 -0.94247646284628  0.44404762076208
 1  4.22664162766277  1.31242995339534 -2.73153152285228
 1  5.18919433113311  2.40838109700970 -1.76833330153015
 1  6.02716002360236  1.04907601510151 -2.78658738973897
 1  6.85769783268327  1.38769276927693  0.35409805260526
 1  6.22802692209221 -0.43393143054305  0.62817253395340
 1  7.49298668336834 -1.01808104330433 -1.43938526212621
 1  7.66550898679868  0.54384759285929 -1.92343526712671
 1  9.22005405700570  0.92477036203620  0.05019265146515
 1  8.85754424312431 -0.59847535373537  0.52525038873887
 1  10.25434298569857  0.09506204390439 -1.99706459595960
 1  9.28747373287329 -2.10721869836984 -2.29226515131513
 1  11.11035359105911 -2.29026581048105 -2.19022326622662
 1  10.28775166116612 -2.52188413041304 -0.63826326602660
 1  11.56088376927693  0.48357058725873  0.30494198169817
 1  11.18621167456746 -1.14871083238324  0.66727734933493
 1  12.88365168406841 -1.59745790699070 -1.04596226382638
 1  12.77568132063206  0.00528121912191 -1.69691305260526
 1  13.74331576827683  0.84973752975298  0.41391873487349
 1  13.83385613871387 -0.87508711341134  1.11820833733373
 1  15.24305759425943  0.25333481848185 -1.38035239323932
 1  15.82344978787879 -2.38543883598360 -0.03705515941594
 1  14.96748979967997 -2.11582395799580 -1.70748816391639
 1  16.72565219461946 -1.68160368526853 -1.58820028952895
 1  16.11504670537053  1.15435326902690  0.75156170047005
 1  16.41098554575457 -0.46983615871587  1.16308907010701
 1  18.13251419011901 -0.53489003640364 -0.38223156355636
 1  17.87036410091009  0.93278059695970 -1.24666824262426
 1  18.29590038263827  1.93399755745575  1.18963696899690
 1  18.63582074237424  0.65841002200220  1.90729072937294
 1  20.62098701140114  0.27649379757976  0.23978104210421
 1  19.88213231983198  3.12763632553255 -0.77824141754175
 1  21.37477172927293  2.16979363216322 -1.36191755505551
 1  19.48691259565957  1.49436124692469 -1.82911988098810
 1  20.96571254645465  1.46993510261026  2.37619723692369
 1  22.04694640094009  2.03487471717172  1.24529949624963
 1  20.76066579647965  2.97118720202020  1.92649308980898
>>>>>>> 8e03b5b5abfc0030b3aa597dc0de36371bfbd096

