%nproc=4
%Mem=2GB
# td=(NStates=1) CAM-B3LYP/6-31G(d,p) 

TD

0 1
12 -7.19549012201220  0.58448719681968  0.05204289168917
 6 -4.82331694969497 -1.94183536193619  0.51751828452845
 6 -4.83761369026903  2.84932337963796  1.11929829472947
 6 -9.48905364086409  3.11516701220122 -0.36198905860586
 6 -9.49241955565557 -1.74498000900090 -0.91631806090609
 7 -5.09996342094209  0.44333415151515  0.69028944724472
 6 -4.28353805990599 -0.72730255225523  0.73650167336734
 6 -2.89848885428543 -0.38927835353535  1.08346870107011
 6 -2.98606204460446  1.07367003530353  1.57533826452645
 6 -4.44398139303930  1.51915266406641  1.03386041594159
 6 -2.89682476457646  1.29507179527953  3.04347575647565
 6 -1.80993445444544 -0.62633789518952 -0.10915695739574
 6 -0.45544296689669 -0.43643799099910  0.39340346964696
 6  0.57892903010301 -0.63077659055906 -0.74375975647565
 8  0.28963020312031 -0.89819522712271 -1.88721505320532
 8  1.76475828632863 -0.48737613401340 -0.24436122502250
 7 -7.14008445634563  2.61791738153815  0.34720341584158
 6 -6.18960823982398  3.40330130593059  0.80358389198920
 6 -6.50747800090009  4.81392568196820  0.79022971017102
 6 -7.79822252925293  4.93443407490749  0.35240363166317
 6 -8.25498977057706  3.44275347064706  0.17104965126513
 6 -5.60412836953695  5.99404187008701  0.99211397189719
 6 -8.70368816641664  6.01285231893189  0.26505349074908
 6 -8.62867675897590  7.05118123672367  0.91443769356936
 7 -9.07480975357536  0.65560842194219 -0.56508054175418
 6 -9.86409266896690  1.73023297639764 -0.62460878497850
 6 -11.23403249984998  1.44824316341634 -1.02278399789979
 6 -11.26245864976498  0.07624298839884 -1.21472018601860
 6 -9.92476815751575 -0.35466744104410 -0.95343035913591
 6 -12.29730855455546  2.35437600860086 -1.15484225902590
 6 -12.49515406170617 -0.80135754585459 -1.58470927942794
 6 -12.46780426882688 -1.25703811501150 -3.09707482608261
 7 -7.20262973127313 -1.40215982958296 -0.22902757975798
 6 -8.29662990279028 -2.24108928102810 -0.61151610681068
 6 -7.85410155575558 -3.66301456895690 -0.41168844614461
 6 -6.48962284638464 -3.53574791179118 -0.13112484438444
 6 -6.22568516491649 -2.19451773307331  0.13571637583758
 6 -8.68538600600060 -4.82198504090409 -0.73680215861586
 6 -5.35170964126413 -4.42456634013401  0.24490736333633
 8 -5.20468930683068 -5.60307479087909  0.25280231093109
 6 -4.19542312171217 -3.25964175397540  0.47482734803480
 6 -3.51373200410041 -3.63660888218822  1.80172054495450
 8 -3.81496309690969 -3.11823856005601  2.89690237133713
 8 -2.62215340904090 -4.57856257865787  1.74050263116312
 6 -2.19669025692569 -5.04897912701270  3.06406134163416
 6  2.83839635133513 -0.77520531513151 -1.17523872427243
 6  4.18478056705671 -0.53380155645565 -0.50186033503350
 6  5.16051953635364  0.37167343274327 -0.94993476617662
 6  5.16827525052505  1.15214786408641 -2.28340250555055
 6  6.44344867766777  0.51536338653865 -0.16613309850985
 6  7.72856039393939  0.03124277737774 -0.88438538903890
 6  9.03461533413341 -0.05773090349035 -0.06728854165417
 6  10.24025464996500 -0.52936000770077 -0.92591356185619
 6  10.17796449664966 -2.06601753785379 -1.19348281328133
 6  11.46115899279928 -0.07212099289929 -0.07639677107711
 6  12.89325423312331 -0.39415346644664 -0.77237726062606
 6  14.08783825222522 -0.05152635543554  0.17128419591959
 6  15.38584470937094 -0.34404813391339 -0.45823406320632
 6  15.69557122602260 -1.76343397719772 -0.80529014671467
 6  16.36587069296930  0.37046140614061  0.42709721692169
 6  17.84397898729873  0.47183858225823 -0.20226604120412
 6  18.91335170467047  1.19748796579658  0.82961339433943
 6  20.26660532973297  1.21984231773177  0.30782554575458
 6  20.36899825362536  2.09514781198120 -1.03255424812481
 6  21.18974990579058  1.87402033833383  1.33367873127313
 1 -4.09821130563056  3.54305982738274  1.55951053795380
 1 -10.23420381308131  3.95363619861986 -0.46965235673567
 1 -10.39468275767577 -2.36514585538554 -1.25049170137014
 1 -2.50086654355436 -1.13556187008701  1.84830552175217
 1 -2.23017662286229  1.74483806640664  1.10528117851785
 1 -1.91722618011801  0.85649610251025  3.18138185168517
 1 -2.92792785278528  2.17732178967897  3.52268443384338
 1 -3.70364380708071  0.69605428942894  3.37478989178918
 1 -1.91854433933393 -1.56313627402740 -0.46685059425943
 1 -1.98796046854685  0.26356360676068 -0.74606464606461
 1 -0.32996651405141  0.61989660356036  0.61683208230823
 1 -0.10206800880088 -0.96343085828583  1.21554550975098
 1 -5.94571334673467  6.84531317541754  0.33682939213921
 1 -5.45573256265627  6.28324168726873  2.11490778787879
 1 -4.51056501250125  5.69358052445244  0.53759693529353
 1 -9.57199925242524  5.94585073317332 -0.43487371557156
 1 -9.50086130203020  7.87587832673267  0.77862748454846
 1 -7.84609407520752  7.35032143164316  1.72497088258826
 1 -12.32811691679168  3.08546887288729 -2.10395340004000
 1 -13.41627129632963  1.98297218841884 -1.15696688818882
 1 -12.27419915101510  3.18766742144214 -0.37607885188519
 1 -12.44477925632563 -1.79149859495950 -0.85988094299430
 1 -13.37794651355135 -0.30168690549055 -1.48752427992799
 1 -13.41089744234423 -1.76039072527253 -3.54225410991099
 1 -12.24754831903190 -0.33073761136114 -3.61921541724172
 1 -11.59187546684669 -1.84658952605260 -3.37485610561056
 1 -9.02154175717572 -4.79104984788479 -1.74776804090409
 1 -8.01767113191319 -5.70215021922192 -0.64939455245525
 1 -9.70042992789279 -4.76649167046705 -0.05044686728673
 1 -3.44475517141714 -3.34381763246325 -0.35714098559856
 1 -1.79856802330233 -4.45023146284628  3.56096901220122
 1 -2.92685229382938 -5.44905652325233  3.70720355925593
 1 -1.56968508000800 -5.82549182238224  2.94387834073407
 1  2.67169647374737 -1.78585042094209 -1.43429739473947
 1  2.77269474707471 -0.14467018741874 -2.05965911811181
 1  4.38619952555256 -0.82593480868087  0.35339855585559
 1  4.21499046254625  1.16719542994299 -2.88646701640164
 1  5.50287569926993  2.21860211911191 -2.09351581978198
 1  5.90889819741974  0.89390049754976 -2.93535226622662
 1  6.64936699959996  1.51694569456946  0.11880452325233
 1  6.36131025042504  0.16200816341634  0.81117083378338
 1  7.31368875357536 -0.98206744194419 -1.24887621122112
 1  7.70557299319932  0.74590779887989 -1.68724164776478
 1  9.20588263986398  0.80254813981398  0.43287091929193
 1  8.90076856555656 -0.75365087128713  0.76651451515152
 1  10.32693024442444 -0.03711117341734 -1.89925481498150
 1  9.27661264676468 -2.50511848834883 -1.76069199399940
 1  11.05737829352935 -2.30952773667367 -1.90944518841884
 1  10.28496138213821 -2.41086302830283 -0.05625506520652
 1  11.44747242814281  0.95563779397940  0.21149263676368
 1  11.35531858525853 -0.82773873517352  0.93262388398840
 1  12.96272959185919 -1.51217937913791 -0.93155082268227
 1  12.98315206770677  0.31010170117012 -1.76325968726873
 1  14.03979541624162  0.95843839983998  0.71398874187419
 1  14.01577433053305 -0.79899950465046  1.10230674717472
 1  15.41302459095910  0.32183166816682 -1.30521487948795
 1  15.83911135403540 -2.48200849294929  0.17894644074407
 1  15.03843689438944 -2.47550992659266 -1.22766018111811
 1  16.74354398379838 -2.00052557745775 -1.23914538403840
 1  16.11003620432043  1.52786061976198  0.44093063736374
 1  16.51773622082208  0.09709053395340  1.48788154935494
 1  18.37424836353635 -0.72840938833883 -0.38558189858986
 1  17.69125619011901  1.08077539643964 -1.10793436923692
 1  18.44230502310231  2.26297045474547  0.91054906020602
 1  18.71455861616162  0.80706488748875  1.75509550985098
 1  20.49794470717072  0.07941408960896 -0.06178911491149
 1  19.71897600420042  3.00491405330533 -1.01159475287529
 1  21.26724097619762  2.42997965076508 -1.33036439973997
 1  20.18726263066307  1.23555536633663 -1.72881985098510
 1  21.24273024822482  1.39248735783578  2.40480009720972
 1  22.19984169046905  1.85695692539254  1.08645361166117
 1  20.82250198009801  2.96179626292629  1.62612305280528

