%nproc=4
%Mem=3GB
# td=(NStates=1) iop(3/107=0140000000,3/108=0140000000) CAM-B3LYP/6-31G(d,p) 

TD

0 1
12 -7.13176786848685  0.67626601010101  0.09177554755476
 6 -4.87123594009401 -2.00660789138914  0.53003840624062
 6 -4.82934896549655  2.78880759865987  1.17596770197020
 6 -9.46731349584959  3.23539109210921 -0.25793826912691
 6 -9.50643674167417 -1.73596536223622 -0.87259406430643
 7 -5.11909894109411  0.36623271387139  0.70052787678768
 6 -4.37445969326933 -0.70404154735474  0.81763965866587
 6 -2.90317653825383 -0.52682108010801  1.29290495959596
 6 -2.95927915481548  1.00515921752175  1.72221850115011
 6 -4.41709194389439  1.42132678377838  1.23652804670467
 6 -2.90906708750875  1.15402822212221  3.19269458405841
 6 -1.89784551425143 -0.66789277847785  0.14757856815682
 6 -0.44694040324032 -0.56306955495550  0.62852623492349
 6  0.47820974417442 -0.72274889678968 -0.58174796489649
 8  0.27267748454845 -0.96872064976498 -1.74642203530353
 8  1.79075767416742 -0.38523846224622 -0.26834222182218
 7 -7.15182282568257  2.68917212711271  0.34191511561156
 6 -5.92583272707271  3.30490425782578  0.78718459455946
 6 -6.28551345974597  4.76748361196120  0.74423268196820
 6 -7.61525631093109  4.84371617681768  0.41763789018902
 6 -8.16670619811981  3.51747868666867  0.12643064166417
 6 -5.26101813571357  5.86057553125312  1.05093524872487
 6 -8.38396840484048  6.07131740134013  0.11345195769577
 6 -8.27375578557856  7.31680082978298  0.61843590289029
 7 -9.03169221032103  0.76657365176518 -0.50673724762476
 6 -9.87887537383738  1.88843216751675 -0.63327614111411
 6 -11.32329628232823  1.51238068256826 -1.08240310001000
 6 -11.16210569776978  0.15393293909391 -1.28402843114311
 6 -9.83223082668267 -0.27153734713471 -0.97435963726373
 6 -12.44645558325833  2.41217645904590 -1.35352480518052
 6 -12.35743953685368 -0.70713683748375 -1.66041537213721
 6 -12.35083699259926 -1.15603579587959 -3.19188984018402
 7 -7.25748871127113 -1.41500633633363 -0.25087776287629
 6 -8.24272859915992 -2.17100564606461 -0.62869444934493
 6 -7.93559559935994 -3.58633918531853 -0.45147544734473
 6 -6.59459725022502 -3.68832181428143 -0.08612069376938
 6 -6.22265599729973 -2.23616157195720  0.02279411481148
 6 -8.87319965946595 -4.75741183958396 -0.79818320142014
 6 -5.41454691759176 -4.49371293469347  0.28286326042604
 8 -5.31168216051605 -5.67907476447645  0.45449139773977
 6 -4.20101460406041 -3.42446989438944  0.60036835843584
 6 -3.48911308810881 -3.66984492719272  1.86815278377838
 8 -3.64541732513251 -3.10266762466247  2.93662702090209
 8 -2.65954130693069 -4.74801341984198  1.71251028852885
 6 -2.10444940194019 -5.32260746664666  2.89248664906491
 6  2.78396471687169 -0.60614890379038 -1.32991650885088
 6  4.08793967916792 -0.46873214111411 -0.81686424922492
 6  5.08339383068307  0.32133866186619 -1.11444432143214
 6  5.08509223482348  1.40886856215622 -2.29699383438344
 6  6.42922920162016  0.36797741374137 -0.35666619101910
 6  7.61522297489749 -0.21531007900790 -1.08082841154115
 6  8.94424213581358 -0.06468828492849 -0.21059716211621
 6  10.23029849044905 -0.55182684588459 -0.94019973997400
 6  10.08284156075608 -1.96206408630863 -1.46966393239324
 6  11.38896356015601 -0.21042593369337 -0.01548951145114
 6  12.80238797429743 -0.44482451595160 -0.61894940004000
 6  13.98580985278528 -0.15099081338134  0.23901031263126
 6  15.36815280628063 -0.19638872247225 -0.39590524302430
 6  15.66865313631363 -1.59351774007401 -0.89311113741374
 6  16.44801179387939  0.31506802410241  0.52512724742474
 6  17.78563615131513  0.63185691529153 -0.20992751975198
 6  18.74869528812881  1.19545762426243  0.88435169186919
 6  20.17060986538654  1.38478791129113  0.34983168916892
 6  20.25545839163916  2.09518682378238 -1.08932362826283
 6  21.11619668666867  1.99455115501550  1.44989892989299
 1 -4.05812617611761  3.55457870927093  1.60713680948095
 1 -10.13694581788179  4.09182145664566 -0.39168369456946
 1 -10.20354477857786 -2.40422595769577 -1.23192101150115
 1 -2.78770605780578 -1.27551775447545  2.12936942764276
 1 -2.25314878117812  1.58298035913591  1.16581023002300
 1 -1.81873495989599  0.83936304270427  3.53584392179218
 1 -2.92153926302630  2.37197642044204  3.65496351855185
 1 -3.61048384888489  0.54199935423542  3.77860954615462
 1 -2.03610872987299 -1.56442711351135 -0.29014702180218
 1 -2.21514788378838 -0.03366574677468 -0.69999673427343
 1 -0.33842927162716  0.49500908820882  0.95790965396540
 1 -0.23466188648865 -1.16960772737274  1.51534499279928
 1 -5.48433261096110  6.68524603660366  0.42668249954995
 1 -5.55778725002500  6.31719460086009  2.09548156065607
 1 -4.33849869446945  5.52308657665766  0.93497423002300
 1 -9.05519577937794  5.90922430443044 -0.61973332603260
 1 -8.78572763646365  8.18011773277328  0.22866264196420
 1 -7.38713664576458  7.42184902130213  1.32823178347835
 1 -12.34012448544854  3.11506065316532 -2.32696852835284
 1 -13.37501479917992  2.13546228862886 -1.40787651585159
 1 -12.53622465516552  3.21837917201720 -0.57008744824482
 1 -12.32327429232923 -1.58468939173917 -0.92087558845885
 1 -13.29634193329333 -0.19958266876688 -1.50368612301230
 1 -13.17025222442244 -1.97093075517552 -3.27437839593959
 1 -12.68280868656866 -0.28223669496950 -3.86609558795880
 1 -11.23701854125413 -1.47206823402340 -3.46798507670767
 1 -9.22824744334433 -4.42012851365136 -1.91966802980298
 1 -8.18106249144915 -5.66262221552155 -1.31225118021802
 1 -9.77525170417042 -5.11745019341934 -0.13066533523352
 1 -3.48500601910191 -3.73991059665967 -0.09234697279728
 1 -1.77210059765977 -4.37851006440644  3.38040975857586
 1 -2.79144558185819 -5.77210673557356  3.38293933163316
 1 -1.29194971547155 -6.10864164896490  2.53966732783278
 1  2.65583363816382 -1.62548917171717 -1.66627807650765
 1  2.42905934723472  0.16070415521552 -2.12586364386439
 1  4.29051953865387 -0.96736515031503  0.16251765196520
 1  4.17113242474247  1.58281382408241 -2.58041852755276
 1  5.36761369356936  2.26072649654966 -1.97701513991399
 1  5.62590215871587  1.00795198609861 -3.33012926982698
 1  6.37598578247825  1.52838281888189 -0.27986837293729
 1  6.42637050915091  0.09635229852985  0.73503969946995
 1  7.42218434123412 -1.46300697369737 -1.26549130633063
 1  7.82505506400640  0.37006610961096 -1.96497732063206
 1  9.12509855415542  0.84649414691469  0.12311473957396
 1  8.78132125292529 -0.74470282298230  0.57888401180118
 1  10.48600323212321  0.05353150095010 -1.94650980898090
 1  9.34273388248825 -2.01178946244625 -2.17587596949695
 1  11.11423056365637 -2.36231963126313 -1.71440679877988
 1  9.61350354745475 -2.49675379007901 -0.53874126782678
 1  11.47935957755776  0.75227166056606  0.37589536033603
 1  11.29767736323632 -0.83768506610661  0.87386370647065
 1  12.87939589208921 -1.59655707500750 -0.95526779827983
 1  12.79949577947795  0.07794273027303 -1.51785611931193
 1  13.77379880018002  0.91730709400940  0.60825565426543
 1  13.89129744034403 -0.68100447934793  1.19277165116512
 1  15.23462386378638  0.38095149214922 -1.52507377617762
 1  15.56205000180018 -2.27451679287929  0.03483534803480
 1  14.88762040644064 -2.02102662266227 -1.37293866736674
 1  16.50318859845985 -1.53379427642764 -1.57365387868787
 1  16.17313058655865  1.30330866456646  0.99844576087609
 1  16.28190226802680 -0.47323360816082  1.44002249694970
 1  18.24833157085709 -0.39524603860386 -0.24139433503350
 1  17.61519882948295  1.00501939603960 -1.20057580118012
 1  18.10667972487249  2.28042931093109  0.95169711651165
 1  18.59900586308631  0.67650248974898  1.78435168066807
 1  20.76594642694269  0.44269526712671  0.29636552875287
 1  19.80590740924092  3.18407918441844 -0.67072925762576
 1  21.38024182498250  2.07995913801380 -1.36676465766577
 1  19.42791118871887  1.45797608780878 -1.72550093449345
 1  21.07654150765076  1.57689333023302  2.42672634143414
 1  22.28988688148815  1.99301977267727  0.86626327992799
 1  20.84069414791479  2.92942906010601  1.67884502120212

