%nproc=4
%Mem=2GB
# td=(NStates=1) CAM-B3LYP/6-31G(d,p) 

TD

0 1
12 -7.14430500350035  0.60581933003300 -0.05143745634563
 6 -4.85730034803480 -1.99485066346635  0.60789732243224
 6 -4.79835976487649  2.83941238853885  1.12781914681468
 6 -9.30805554105410  3.08710420592059 -0.43797665736574
 6 -9.51388170187019 -1.77326283728373 -0.89115554465447
 7 -5.08237166176618  0.37457727582758  0.70352077037704
 6 -4.28453815991599 -0.66720654265427  0.77830585378538
 6 -2.94516352175218 -0.39366879257926  1.23406376057606
 6 -3.09073251165117  1.08182085038504  1.80705143584358
 6 -4.38660565546555  1.54960570937094  1.08799582948295
 6 -3.21396647874787  1.13293558165817  3.32099350825083
 6 -1.92306576757676 -0.49606486788679  0.09399335763576
 6 -0.41556897949795 -0.44242859005901  0.55219934923492
 6  0.48111924912491 -0.66243975687569 -0.59013439393939
 8  0.23049428952895 -1.08459386698670 -1.70509684138414
 8  1.76200801130113 -0.32978037443744 -0.28525531443144
 7 -7.09706015391539  2.59322491229123  0.33097179267927
 6 -6.02878215721572  3.35140611641164  0.74929846344634
 6 -6.46759401250125  4.76800108950895  0.80909159635964
 6 -7.70757346434643  4.84224485598560  0.36023441474147
 6 -8.11873614521452  3.44798399369937  0.08660120642064
 6 -5.54937289398940  5.86788925482548  1.23647840834083
 6 -8.49876767436744  5.97282831653165  0.15097208260826
 6 -8.28623251455146  7.15169128772877  0.84495074487449
 7 -9.11439371197120  0.68327118821882 -0.55275930963096
 6 -9.83638989868987  1.76729668276828 -0.71389771387139
 6 -11.14678377497750  1.44293263236324 -1.15561728122812
 6 -11.15723812771277  0.13426879097910 -1.38303701770177
 6 -9.83785946664666 -0.40342231653165 -0.97092210831083
 6 -12.27309613331333  2.41591216221622 -1.51326810161016
 6 -12.33389793609361 -0.69282669276928 -1.79246005450545
 6 -12.34889237763776 -0.97242965416542 -3.35336045464546
 7 -7.21424089238924 -1.37209682328233 -0.20116479347935
 6 -8.25046528632863 -2.21367653975398 -0.50486544174417
 6 -7.85896204180418 -3.61140940844084 -0.47528480578058
 6 -6.42732661676168 -3.52665700270027 -0.19632136403640
 6 -6.13653625002500 -2.17643592489249  0.01584438863886
 6 -8.64036150355035 -4.79880272267227 -0.68787726612661
 6 -5.34680915121512 -4.38938282178218  0.22660553315332
 8 -5.19191802970297 -5.59212369576958  0.23004003470347
 6 -4.16889046844684 -3.39436522632263  0.59162902820282
 6 -3.57105773667367 -3.75468068936894  1.91085145804580
 8 -3.87202880348035 -3.15846258245825  2.99593227432743
 8 -2.74292548624862 -4.74380910331033  1.87921650255026
 6 -2.15124571247125 -5.17818204730473  3.06456139163916
 6  2.77204971667167 -0.70144793939394 -1.27578877927793
 6  4.05735782478248 -0.45405358165817 -0.55426557555756
 6  5.07571105550555  0.42970923632363 -0.92083185588559
 6  4.99974839783978  1.26493914321432 -2.20182434773477
 6  6.34629896269627  0.43547539773977 -0.14606109130913
 6  7.58900643854385 -0.25037538443844 -0.97014396489649
 6  8.91287315991599 -0.09118424882488 -0.14527634043404
 6  10.10446107060706 -0.68423549524953 -0.79021999249925
 6  10.10465716591659 -2.18656959305931 -1.00722418741874
 6  11.41930480738074 -0.29619340014001 -0.01063019441944
 6  12.77645255295529 -0.43325737683768 -0.78263828672867
 6  14.01342081048105  0.03053185038504  0.05627269476948
 6  15.43736986188619 -0.20247397649765 -0.51804004380438
 6  15.75388705760576 -1.59503713751375 -0.84473409110911
 6  16.45300940684069  0.39707406740674  0.47637214441444
 6  17.78291288068807  0.65557695609561 -0.26315212981298
 6  18.82619298879888  1.17741595859586  0.77314774777478
 6  20.29875854505450  1.39530986448645  0.12784754795480
 6  20.37442879667967  2.24077237443744 -1.17636862956296
 6  21.23035396619662  1.94751768806881  1.22620798419842
 1 -4.02513399789979  3.69014453585359  1.56099068596860
 1 -10.12492288498850  3.90177101210121 -0.50683607510751
 1 -10.49178246764676 -2.45485482628263 -0.93660031223122
 1 -2.64018047494750 -1.26282459635964  1.86587727892789
 1 -2.17267087228723  1.60781436403640  1.25080573097310
 1 -2.22300675817582  0.84649510241024  3.64986870037004
 1 -3.25997105710571  2.01765582308231  3.66119828522852
 1 -3.95634907760776  0.64391907590759  3.86677909070907
 1 -1.83702618751875 -1.43813377377738 -0.40253416261626
 1 -2.06625829832983  0.25343259365937 -0.71649168876888
 1 -0.21000451785178  0.45477009090909  1.18208860796080
 1 -0.15612341434143 -1.27729224442444  1.32382633783378
 1 -5.74622339773977  6.61369001310131  0.45741145034503
 1 -5.98690567996800  6.32873623672367  2.41459775687569
 1 -4.35677963396340  5.58232939933993  1.70992416801680
 1 -9.41473352585258  6.06046219431943 -0.56227645584558
 1 -9.10401161706171  7.88447918681868  0.32007162896290
 1 -7.67514698049805  7.41901830133013  1.64241262676268
 1 -12.17911201630163  3.03843416941694 -2.48566157085709
 1 -13.05951562076208  1.85000889208921 -1.56197738923892
 1 -12.38545027612761  3.14026268096810 -0.64729597359736
 1 -12.44549932833283 -1.68455790089009 -1.25421037593759
 1 -13.29124784368437 -0.15990272707271 -1.46063159065907
 1 -13.23707005960596 -1.61910659685969 -3.66131601610161
 1 -12.36938050225023 -0.06659119671967 -3.89630312601260
 1 -11.38677495679568 -1.40673554065407 -3.72818143814381
 1 -9.32296189918992 -4.64999574247425 -1.60780404450445
 1 -7.93877324212421 -5.78595860006001 -0.68992860586059
 1 -9.41556144104410 -5.10016503780378 -0.02895471807181
 1 -3.36873756965697 -3.37680093079308 -0.27527279877988
 1 -1.51708987548755 -4.33253969366937  3.58172108740874
 1 -3.03649325792579 -5.45244686228623  3.74455729462946
 1 -1.63814192569257 -5.97030630383038  2.71218517141714
 1  2.52908221232123 -1.60032186808681 -1.37541150615062
 1  2.60743822142214 -0.00887660806081 -2.17180033223322
 1  4.03229413501350 -0.88632084728473  0.46747996399640
 1  4.05896485998600  1.36669537993799 -2.66930530023002
 1  5.23886929862986  2.35301556045605 -1.74632110031003
 1  5.69584689228923  0.91426253375338 -3.13994272527253
 1  6.64426648954895  1.46930093009301  0.21740438323832
 1  6.26560067946795 -0.29246728412841  0.83971368806881
 1  7.37601498619862 -1.31776101130113 -1.20699202280228
 1  7.52391482738274  0.29053226132613 -1.76241916551655
 1  9.16281833343334  1.00152803780378  0.09890752295230
 1  8.74734322302230 -0.55548105430543  0.89092695639564
 1  10.27798534993499 -0.09209667196720 -1.84159904940494
 1  9.17102208770877 -2.38016599309931 -1.69884580938094
 1  11.12797535323532 -2.72921970587059 -1.50907515141514
 1  9.88843172917292 -2.75369731173117 -0.02697213691369
 1  11.18431611251125  0.59048127832783  0.56949843734373
 1  11.44234728812881 -1.12023798509851  0.77662828442844
 1  12.88941226012601 -1.58212637383738 -1.23313098069807
 1  12.57869162166216 -0.04144345334534 -1.93370673197320
 1  13.99462089878988  1.09897245324532  0.43833117611761
 1  14.22255500860086 -0.47164676937694  1.02703922042204
 1  15.35465875437544  0.18745823082308 -1.39497385538554
 1  15.82349979287929 -2.43456374847485 -0.03879533343334
 1  15.17170022072207 -2.17476985258526 -1.48728614371437
 1  16.69607923732373 -1.58500402530253 -1.43171464096410
 1  16.04738993969397  1.38058589228923  0.79251579587959
 1  16.43273772097210 -0.22277145224522  1.33313607480748
 1  18.17812875157516 -0.21969851725173 -0.96566990739074
 1  17.47161422592259  1.43359067796780 -1.04889846564656
 1  18.60727151975198  2.26689084678468  1.19230723602360
 1  19.04630179047905  0.33650783178318  1.50538053835384
 1  20.62201711441144  0.39484563276328 -0.09348228422842
 1  20.42406651325132  3.38434199609961 -0.97747134053405
 1  21.56070032213221  2.10531718451845 -1.52431379467947
 1  19.60005390979098  2.02898470927093 -1.95751272027203
 1  20.98054402960296  1.32669077817782  2.08705832303230
 1  22.33072477877788  1.82463369306931  0.86123108940894
 1  20.88003773367337  2.83718380168017  1.46636707720772

