%nproc=4
%Mem=3GB
# td=(NStates=1) iop(3/107=0140000000,3/108=0140000000) CAM-B3LYP/6-31G(d,p) 

TD

0 1
12 -7.13789848154815  0.59931831533153  0.06446281628163
 6 -4.76246506300630 -1.98304553515352  0.52541794419442
 6 -4.75683171377138  2.80008872677268  1.12678278347835
 6 -9.36800356485649  3.12086963996400 -0.38311078637864
 6 -9.54004010201020 -1.77120888658866 -0.79492629752975
 7 -5.08181521272127  0.48438452905291  0.67211503550355
 6 -4.26994924222422 -0.71837298049805  0.83360125482548
 6 -2.97457367796780 -0.34893329132913  1.15640130923092
 6 -3.11498472537254  1.02963166476648  1.66790306960696
 6 -4.40175040974097  1.48750340144014  1.10313470737074
 6 -2.90033621442144  1.09791261056106  3.15714102870287
 6 -1.90355608530853 -0.50394638383838  0.02479628992899
 6 -0.48145385458546 -0.43270651865187  0.50773415571557
 6  0.50159208240824 -0.57991461336134 -0.69624941504150
 8  0.10392060886089 -1.02802658035804 -1.77983537663766
 8  1.75200379877988 -0.28259819821982 -0.31448683628363
 7 -6.98666631003100  2.62304551445144  0.21066199029903
 6 -6.03618376217622  3.39489325672567  0.81373724982498
 6 -6.37960286868687  4.76569343294329  0.89598785748575
 6 -7.70298508380838  4.85460726592659  0.38916504290429
 6 -8.09318884638464  3.47208414721472  0.07476547514751
 6 -5.50222225612561  5.88817829152915  1.44198435363536
 6 -8.50578058605861  6.02888315791579  0.12857346984698
 6 -8.38823723372337  7.23212236193619  0.68630268956896
 7 -9.15666470757076  0.66952394679468 -0.53855042894289
 6 -9.82700018631863  1.77945126942694 -0.68972178567857
 6 -11.20987494019402  1.42477192169217 -1.19120398009801
 6 -11.20777026422642  0.09173671947195 -1.24604463276328
 6 -10.04245184878488 -0.43937413081308 -0.81542374367437
 6 -12.24636557425743  2.45865110651065 -1.38777823052305
 6 -12.31787558045805 -0.84803092689269 -1.76050538113811
 6 -12.12050395929593 -1.10016020832083 -3.31373202440244
 7 -7.16907987038704 -1.42484732043204  0.04245157005701
 6 -8.21767609390939 -2.21749029452945 -0.32445402530253
 6 -7.80672271207121 -3.55261581298130 -0.37471777157716
 6 -6.42774056455646 -3.52952593469347 -0.06437851955196
 6 -6.09028275997600 -2.18632658845885  0.21408324372437
 6 -8.66566890639064 -4.76511260966097 -0.75227861096110
 6 -5.28277374027403 -4.33959752315232  0.12914788888889
 8 -5.31284227652765 -5.62053891089109  0.19333528212821
 6 -4.14523902650265 -3.37978542594259  0.54665298689869
 6 -3.49617379417942 -3.74532247494749  1.89628559705971
 8 -3.61936471987199 -3.10845820372037  2.95867922612261
 8 -2.73630898369837 -4.85595421392139  1.77190622812281
 6 -2.15328428542854 -5.24939014491449  2.97775517591759
 6  2.76216253665367 -0.56574486338634 -1.31598511571157
 6  4.09626051125113 -0.37979324722472 -0.65927849064906
 6  5.13207869916992  0.35253178117812 -1.12900577757776
 6  4.96989071467147  1.18667634293429 -2.44110824582458
 6  6.35441171987199  0.43842445844584 -0.40334085848585
 6  7.60834228682868 -0.09326787478748 -1.17410773947395
 6  8.85668337993799  0.08163634753475 -0.33700980338034
 6  10.11595705630563 -0.42392405560556 -0.99831555155516
 6  9.97459073567357 -1.96748462836284 -1.34218118411841
 6  11.32376704050405 -0.14979987108711 -0.14008197069707
 6  12.70131786728673 -0.42184221772177 -0.66380388548855
 6  13.91749302110211 -0.01902761706171  0.22934934653465
 6  15.35915190619062 -0.25554463806381 -0.36980263276328
 6  15.57998426942694 -1.80610899919992 -0.80060188648865
 6  16.33757074977498  0.37184370167017  0.41400613531353
 6  17.79598718641864  0.44871860146015 -0.08394492149215
 6  18.80282070067006  1.20392847134713  0.78920217691769
 6  20.29087189158916  1.22463189568957  0.37928463446345
 6  20.43518636443644  2.02473977907791 -0.89482417831783
 6  21.16496156315631  1.83029472937294  1.47238117811781
 1 -4.10375073857386  3.44756800820082  1.60718681448145
 1 -10.11894401770177  3.88031030553055 -0.57605213141314
 1 -10.21954637873787 -2.54177971307131 -0.56906472587259
 1 -2.52220950815082 -0.99046924962496  2.08975546624662
 1 -2.34153762006201  1.69924198529853  1.07172082108211
 1 -1.94047713411341  0.68743785018502  3.54295463286329
 1 -3.19137624672467  2.03606282908291  3.75730375257526
 1 -3.51949474997500  0.30003515781578  3.61633331853185
 1 -2.05821094009401 -1.57842851365137 -0.41613962106211
 1 -2.08338470747075  0.33184080388039 -0.64834156875688
 1 -0.35359078777878  0.73532311961196  0.83960782378238
 1 -0.26173459375938 -1.09819058565857  1.36494995329533
 1 -5.58265244294429  6.99557706970697  0.87907773907391
 1 -5.74136560786079  6.40016289768977  2.51469348184818
 1 -4.54615946054605  5.71712598059806  1.35450618321832
 1 -9.20240049984998  6.01834521652165 -0.69458081078108
 1 -9.09468853255325  8.11184090509051  0.42574234993499
 1 -7.59418735083508  7.42302913931393  1.52163112341234
 1 -11.84983545654565  3.10265941304130 -2.21549738123812
 1 -13.18218551625163  2.05523426582658 -1.58788451665167
 1 -12.40877190989099  3.14394172827283 -0.58680912041204
 1 -12.46442840774077 -1.63092401520152 -1.09078257915792
 1 -13.17565986508651 -0.16715942644264 -1.33939969436944
 1 -13.07269246844685 -1.67256091819182 -3.55378633673367
 1 -11.90670107580758 -0.09148762006201 -3.66638561696170
 1 -11.29178401780178 -1.86422744994499 -3.48306658485849
 1 -8.88021263986399 -4.73398989978998 -1.92041810481048
 1 -8.00718510371037 -5.78991494479448 -0.56684663976398
 1 -9.55801998099810 -4.91630007840784 -0.19391165986599
 1 -3.25588310681068 -3.38419502510251 -0.26443418151815
 1 -1.49327271487149 -4.55744795819582  3.63116483408341
 1 -2.96572300960096 -5.50301982688269  3.70707174487449
 1 -1.47693821432143 -6.02816360116012  2.75926928802880
 1  2.54570262506251 -1.56257288008801 -1.60751219991999
 1  2.48939538083808  0.13962204700470 -2.18118917641764
 1  4.46108659535954 -0.95227364116412  0.27145854605461
 1  3.96184149564956  1.26355189788979 -2.88625911161116
 1  5.18197512971297  2.41340176407641 -2.34218165656566
 1  5.66083565206521  1.01647283818382 -3.14033028992899
 1  6.44896308020802  1.42687266786679 -0.19975036113611
 1  6.28955682778278 -0.02666000270027  0.51196739223922
 1  7.29609173197320 -1.15174584758476 -1.19821457865787
 1  7.70544310281028  0.44877398039804 -2.04422524542454
 1  9.07906395069507  1.03973347084708  0.12703513161316
 1  8.75362848364836 -0.44973332603260  0.59528565196520
 1  10.22672730453045  0.03924007180718 -1.96749190719072
 1  9.07849745884588 -2.16069435293529 -1.58688707060706
 1  10.78876801740174 -2.21684508380838 -1.94663002110211
 1  10.02258445554556 -2.40382449714972 -0.46525391909191
 1  11.31411305290529  0.97697413081308  0.10415818661866
 1  11.26019361486149 -0.67636893449345  0.97441376147615
 1  12.67278523102310 -1.39543696299630 -0.90040231173117
 1  12.80507633753375  0.11935687168717 -1.49445377907791
 1  13.84281570187019  0.99244460776078  0.47978280698070
 1  14.00086839743974 -0.52161854075408  1.08892126612661
 1  15.20043044444444  0.20532392939294 -1.46459772857286
 1  15.35012880968097 -2.65235457665767  0.04019588408841
 1  14.86852849724972 -2.24555907590759 -1.44912628612861
 1  16.58495677527753 -2.13264416141614 -1.07470398369837
 1  16.18798207170717  1.48079641334133  0.54311022732273
 1  16.36632070987099 -0.16180246504651  1.25923441814181
 1  18.16036277397740 -0.70148666266627 -0.18695889148915
 1  17.70272758235824  0.68585747984799 -1.21541728532853
 1  18.60931998889889  2.14945621362136  1.08950089688969
 1  18.51101706420642  0.71159599909991  1.70658390389039
 1  20.54465429772977  0.10126112371237  0.22648854105411
 1  20.13509032753275  2.96254703120312 -0.85444762946295
 1  21.47378117891789  2.08661980408041 -1.02725070627063
 1  19.92872126972697  1.48011830203020 -1.67342572697270
 1  21.12209606310631  1.02100774167417  2.43300696949695
 1  22.16565445824582  2.19108957965797  1.15746239983998
 1  20.77572765126513  2.75828194539454  1.81985912261226

