%nproc=4
%Mem=2GB
# td=(NStates=1) CAM-B3LYP/6-31G(d,p) 

TD

0 1
<<<<<<< HEAD
12 -7.15185575857586  0.63890263836384  0.08821650905090
 6 -4.79593421142114 -1.97671885028503  0.42757929062906
 6 -4.83488341724172  2.78923737103710  1.08568493339334
 6 -9.33920865636564  3.06260175567557 -0.44375723542354
 6 -9.51350166386639 -1.76744225522552 -0.83973040214021
 7 -5.15204862946295  0.43193301140114  0.74993541184118
 6 -4.39800950705071 -0.71401122312231  0.77164518771877
 6 -2.99324833023302 -0.42575200090009  1.28333868806881
 6 -3.10976441484148  1.11418408670867  1.75129586028603
 6 -4.39255625052505  1.51230197899790  1.21087811771177
 6 -3.13322840494049  1.18867115521552  3.27769917881788
 6 -1.93683714471447 -0.62594785618562  0.09186314461446
 6 -0.51731915451545 -0.32722706990699  0.58223235253525
 6  0.59713085028503 -0.44761827472747 -0.52914829532953
 8  0.25427666776678 -0.80845625322532 -1.61773810551055
 8  1.80495230573057 -0.39414681108111 -0.06793358225823
 7 -7.09960040794079  2.59432502230223  0.30308900440044
 6 -6.09040831983198  3.33086406220622  0.75271880548055
 6 -6.38254550765076  4.69565385478548  0.76244693189319
 6 -7.63718642564256  4.77670830233023  0.27790618191819
 6 -8.16128039963997  3.37537673297330 -0.03840129382938
 6 -5.35980393709371  5.84200666656666  1.14940970147015
 6 -8.49679747734773  5.94943597729773  0.08610559595960
 6 -8.39856374767477  7.19836595519552  0.58531478127813
 7 -9.18014028662866  0.61773463456346 -0.58594262796280
 6 -9.95840209990999  1.77772772587259 -0.62846917101710
 6 -11.25062415901590  1.49133747284729 -1.20802252175218
 6 -11.25726813071307  0.11077644174417 -1.32211092509251
 6 -9.92409809050905 -0.40023199749975 -0.89182419851985
 6 -12.33546236993699  2.55362593359336 -1.39364613941394
 6 -12.55435998229823 -0.73342075217522 -1.79444025252525
 6 -12.26651413981398 -1.20820323152315 -3.12223734233423
 7 -7.23679314761476 -1.43604321792179 -0.14506918391839
 6 -8.29580982078208 -2.29279445154515 -0.38800375557556
 6 -7.95088123372337 -3.65925419291929 -0.51034831213121
 6 -6.57543142724272 -3.58555289228923 -0.09363109500950
 6 -6.19335193159316 -2.23792207350735  0.04166697089709
 6 -8.70520798819882 -5.03001584398440 -0.74497297569757
 6 -5.35070954125413 -4.39360324382438  0.15835870847085
 8 -5.13128196609661 -5.58341282468247  0.10080711141114
 6 -4.17427100650065 -3.30508629842984  0.54937480278028
 6 -3.52138276917692 -3.66328154945495  1.86449682258226
 8 -3.75516711731173 -3.15098183438344  2.86210889198920
 8 -2.64726592029203 -4.64366908930893  1.73598217911791
 6 -2.07655824372437 -5.17887211631163  2.91018595409541
 6  2.82034454615462 -0.51763955855586 -1.13591479187919
 6  4.12585467446745 -0.32274045034503 -0.41059120812081
 6  5.11490497489749  0.44441070647065 -0.82379215191519
 6  5.02621104410441  1.16385903520352 -2.11498566386639
 6  6.40367470027003  0.31651350155016 -0.11051753695370
 6  7.53135067296730 -0.21525187208721 -0.95411236173617
 6  8.91932380498050 -0.03524865526553 -0.20884269706971
 6  10.22107273177318 -0.49018609030903 -0.98700967146715
 6  10.16672337253725 -1.96445738183818 -1.37132059705971
 6  11.47690056695670 -0.21213499429943 -0.03011214261426
 6  12.86516142384238 -0.29405345644564 -0.67283730663066
 6  14.06019548794879  0.10696949414941  0.19941700920092
 6  15.46166229112911 -0.12249597869787 -0.44908314811481
 6  15.75550721962196 -1.61308894269427 -0.89594921262126
 6  16.42855696159616  0.42240660066007  0.42229673687369
 6  17.73508809820982  0.55993739213921 -0.20964677927793
 6  18.81254162366237  1.20502871987199  0.69205963896390
 6  20.26424509370937  1.19809014251425  0.19680444364436
 6  20.34044539833983  1.89209750695070 -1.18941993469347
 6  21.29076000680068  1.72896583288329  1.27870323372337
 1 -4.17290877537754  3.45109063046305  1.39547413431343
 1 -9.94777517021702  3.99131996699670 -0.65101049254925
 1 -10.14801809120912 -2.37744708550855 -1.08584523672367
 1 -2.75052150905090 -1.16148446234624  2.12342303350335
 1 -2.15633923912391  1.72326590919092  1.38951960236024
 1 -2.22129658715872  0.86690714361436  3.66932064556456
 1 -3.36853191319132  2.27414147164716  3.60738290369037
 1 -4.12505594829483  0.76837152115211  3.60549296209621
 1 -1.84990747564756 -1.46627658805881 -0.56800070927093
 1 -2.40699237173717  0.10027727812781 -0.76831687128713
 1 -0.42239575697570  0.62469708360836  1.45075547464747
 1 -0.19202700470047 -1.37604211941194  1.23976793199320
 1 -5.60299907530753  6.94803344744474  0.97016272547255
 1 -5.17394438383838  5.81311467456746  2.32478877597760
 1 -4.25681963796380  5.68172933933393  0.84507768336834
 1 -9.30767281978198  5.72735888398840 -0.56374660286029
 1 -9.16080729662966  7.92701344024402  0.13963358515851
 1 -7.81645111091109  7.53233963346335  1.42627101260126
 1 -12.13814791989199  2.91493181918192 -2.45321832653265
 1 -13.24631430063006  2.09849374057406 -1.24775596709671
 1 -12.38154988608861  3.27680633533353 -0.57682892689269
 1 -12.81055583398340 -1.63511295639564 -1.05556051095110
 1 -13.52346106500650 -0.12608934573457 -1.72005753325333
 1 -13.06260261286129 -1.84641932813281 -3.45623550805080
 1 -12.14375793999400 -0.27448198579858 -3.83754725042504
 1 -11.49654593389339 -1.88131299839984 -3.19262788278828
 1 -9.10802040504050 -5.05742648554856 -1.76161942604260
 1 -8.00818018281828 -5.73169317351735 -0.44185379837984
 1 -9.65494537943794 -4.86412143344335 -0.21812363496350
 1 -3.45302599849985 -3.63372662336234 -0.15682095359536
 1 -1.74983314981498 -4.35303174287429  3.70900381568157
 1 -2.81158076667667 -5.69447106470647  3.62863570247025
 1 -1.29711782328233 -5.78892816601660  2.45170912381238
 1  2.65111441554155 -1.50667250315032 -1.58049201420142
 1  2.44379185678568  0.18028230783078 -1.81524467666767
 1  4.18998990459046 -0.85463767896790  0.52312552855286
 1  4.04263322682268  1.37723643404340 -2.52269063876388
 1  5.39361477317732  2.29057931683168 -1.98693516171617
 1  5.48653596119612  0.51659276677668 -2.93845257625763
 1  6.79511157405741  1.31789578957896  0.06798944174417
 1  6.25857997739774 -0.35585362276228  0.84487420412041
 1  7.36881426612661 -1.43079231443144 -1.37063838743874
 1  7.77604003990399  0.36506971507151 -1.94615753935394
 1  9.14797684928493  0.94772265726573  0.14499213141314
 1  8.87424591329133 -0.49939544574457  0.69356722042204
 1  10.15328287968797  0.23235577327733 -1.73191808130813
 1  9.51454644014401 -2.15234321082108 -2.04083000780078
 1  11.06388894459446 -2.55644242814281 -1.86480072397240
 1  9.97752063806381 -2.51079302130213 -0.43676311601160
 1  11.41955963686369  0.72368459865987  0.38283977147715
 1  11.51283433683368 -0.97486344764476  0.81989261086109
 1  13.00335365426543 -1.32895105630563 -1.18345601320132
 1  13.05000875337534  0.20125081608161 -1.67615097639764
 1  14.20987242394239  1.23089564556456  0.49990733373337
 1  14.02618537163716 -0.46189579427943  1.02034855135514
 1  15.42063535203520  0.49688917391739 -1.47414177217722
 1  15.64930237313731 -2.30208050015002 -0.00279173307331
 1  15.08892194289429 -1.94839721532153 -1.55848326342634
 1  16.77712734213421 -1.60385591049105 -1.18136960646065
 1  15.98656385708571  1.50989882358236  0.81922846714671
 1  16.54735918311831 -0.13577275237524  1.32265502670267
 1  17.96807774647465 -0.41069761716172 -0.56400974137414
 1  17.71849891439144  1.12855017391739 -1.04367794359436
 1  18.47445823842384  2.06936109380938  1.02854085938594
 1  18.79587674797480  0.68470265126513  1.67536753705370
 1  20.64188910161016  0.19488563676368  0.18082514651465
 1  19.97660176677667  2.96419998189819 -1.01587518091809
 1  21.38530278237824  1.81792844564456 -1.54500586388639
 1  19.81909581398140  1.38713052385239 -2.02124909390939
 1  21.11539751495150  1.12415052415241  2.01212082928293
 1  22.26590829712971  1.74959618931893  0.94945991229123
 1  20.89534926482649  2.62481256455645  1.73596403690369
=======
12 -7.04804537753775  0.62927167526753  0.06954464186419
 6 -4.84704932293229 -1.97956913531353  0.50471700440044
 6 -4.83885381428143  2.84829327662766  1.16684304920492
 6 -9.31789652515251  3.15777127262726 -0.44228708840884
 6 -9.55184549824983 -1.74630014101410 -0.78301473057306
 7 -5.05404882948295  0.47256707480748  0.81270168846885
 6 -4.29797950405041 -0.74904472647265  0.82833085628563
 6 -2.93513251865186 -0.38723814951495  1.31474182838284
 6 -3.01888532693269  1.07726039433943  1.71539226992699
 6 -4.42438943384338  1.45122587138714  1.09110614051405
 6 -2.99298438053805  1.24513680178018  3.12190359925993
 6 -1.87573103410341 -0.63935919731973  0.18160211851185
 6 -0.43006042864286 -0.43254760196020  0.57475160446045
 6  0.57890902810281 -0.72443595649565 -0.56550193069307
 8  0.22088332843284 -1.14484989258926 -1.62627895959596
 8  1.79684149464946 -0.45795319171917 -0.10460724962496
 7 -7.00018046594660  2.60483607340734  0.35444413991399
 6 -6.06166544554455  3.35278625442544  0.83175670927093
 6 -6.32825007810781  4.77078136753675  0.77654834203420
 6 -7.64716742374237  4.88050868236824  0.38169656095610
 6 -8.08223249484949  3.47659685498550 -0.02614006770677
 6 -5.32112006870687  5.80516298219822  1.13534829532953
 6 -8.47909570717072  6.01387242094209  0.05494247964796
 6 -8.42653654495450  7.25914203280328  0.73876012581258
 7 -9.02631490409041  0.64846770787079 -0.56585061876188
 6 -9.83761002070207  1.78980893399340 -0.71137746184618
 6 -11.13708280488049  1.51420976007601 -1.15215693519352
 6 -11.21608401230123  0.10212557665767 -1.32655136913691
 6 -9.89529521022102 -0.42772474677468 -0.94860987708771
 6 -12.29925874957496  2.48156872787279 -1.44222099689969
 6 -12.41358590489049 -0.69817722782278 -1.77442825132513
 6 -12.25067255565557 -1.05030744194419 -3.30397551615162
 7 -7.23448291659166 -1.34964457805781 -0.03672834983498
 6 -8.27002724252425 -2.25353052515252 -0.42690764596460
 6 -7.81642778837884 -3.61575984348435 -0.46200347764776
 6 -6.56005989008901 -3.57078141514151 -0.17200893279328
 6 -6.21571416781678 -2.20564884618462  0.12126493069307
 6 -8.62767023442344 -4.91634447684768 -0.75208368676868
 6 -5.41306577687769 -4.36714059755976  0.16971984458446
 8 -5.27117595549555 -5.52732721612161  0.11792882358236
 6 -4.20277385678568 -3.32541833163316  0.49519938523852
 6 -3.49124975587559 -3.67109233053305  1.80011038393839
 8 -3.77890949154916 -3.08483521972197  2.92005468656866
 8 -2.76096729042904 -4.62995771817182  1.71816039693969
 6 -2.19174976287629 -5.15339956905691  2.98854378987899
 6  2.76414892659266 -0.74907270187019 -1.12188338873887
 6  4.13580566956696 -0.49769794609461 -0.48030817981798
 6  5.14187767216722  0.31265753115312 -0.92283205590559
 6  4.98021644464446  1.19872252155216 -2.08138230353035
 6  6.40593492629263  0.40648249844984 -0.22576906210621
 6  7.55063260116012 -0.32199254615462 -0.88877582808281
 6  8.96118799139914 -0.09783491389139 -0.18998081088109
 6  10.14228485298530 -0.55275234693469 -0.92544351485149
 6  10.09232593279328 -2.00139107520752 -1.32399586458646
 6  11.46380925782578 -0.34240802160216  0.02311317991799
 6  12.81014592229223 -0.50820487158716 -0.81242126502650
 6  13.92999246764676 -0.26724792759276  0.13850091759176
 6  15.33902002690269 -0.25105883498350 -0.54670291009101
 6  15.69994166306631 -1.73747138093809 -0.97004662236224
 6  16.46356046194619  0.28839319931993  0.29304381158116
 6  17.83022761216122  0.56707810621062 -0.31880769536954
 6  18.74766513601360  1.34416263326333  0.81875230823082
 6  20.16130479967997  1.54702503600360  0.23251801500150
 6  20.15787714151415  2.33324162136214 -1.03509450215022
 6  20.99331026182618  2.19235217151715  1.36516187958796
 1 -4.09975145964596  3.39593511491149  1.70874546144614
 1 -10.20255064776478  3.93011384638464 -0.55455084658466
 1 -10.27353064246425 -2.52505184598460 -0.82955960816082
 1 -2.72515897279728 -1.23749206310631  2.11899259045905
 1 -2.05843944914491  1.73605718831883  1.25023567396740
 1 -2.01743620112011  0.82960341324132  3.56231994549455
 1 -3.03607866786679  2.28794285178518  3.41443360876088
 1 -3.63151659435944  0.55498018201820  3.69056146894689
 1 -1.96599908480848 -1.67385734613461 -0.31953586278628
 1 -2.37451912441244 -0.05855860546055 -0.62037207680768
 1 -0.06678019541954  0.42603721762176  1.30451085018502
 1 -0.39668747074707 -1.34635915111511  1.30948490369037
 1 -5.64659343474347  6.77057570167017  0.80717642684268
 1 -5.32262925232523  5.84917828092809  2.29541583868387
 1 -4.21398535453545  5.65245641204120  0.62058523412341
 1 -9.20618267076708  5.98260440854085 -0.65047527572757
 1 -9.05532674857486  8.11928266716672  0.56752637443744
 1 -7.71685115091509  7.07834423392339  1.71979036453645
 1 -12.19665377047705  3.22357268326833 -2.30574357905791
 1 -13.24945461466146  1.96956084728473 -1.60116130763076
 1 -12.41555328642864  3.37645630033003 -0.69493073707371
 1 -12.43511829022902 -1.73182262736274 -1.38377333223322
 1 -13.33058177707771 -0.07947468426843 -1.63465899339934
 1 -13.01497785038504 -1.75785047124712 -3.54584446894689
 1 -12.18290185438544 -0.14937947554755 -4.14133762946295
 1 -11.32802908220822 -1.71077594469447 -3.59325794579458
 1 -9.21657126012601 -4.92527327022702 -1.58127139123912
 1 -7.90409977477748 -5.74037404160416 -0.80136974997500
 1 -9.37146703160316 -5.08108312961296  0.01856003340334
 1 -3.47707840374037 -3.25722897359736 -0.38440371187119
 1 -1.36349451595160 -4.33237967766777  3.28052096739674
 1 -3.23735334393439 -5.17899951755176  3.74888772767277
 1 -1.73565167666767 -5.98340761396140  2.55030898379838
 1  2.65250455455546 -1.62362419831983 -1.55003896889689
 1  2.59120659825983 -0.03541926232623 -1.99936308850885
 1  4.40369127472747 -1.25433764896490  0.27763097909791
 1  4.03376233973397  0.93824253465347 -2.48054642434243
 1  5.43141855355536  2.12102236113611 -1.83749021722172
 1  5.48079538713871  0.86336744424442 -3.02624135513551
 1  6.53406546944695  1.44446844684468 -0.06446380358036
 1  6.22531665106511  0.05317728032803  0.86290600730073
 1  7.25537292199220 -1.33696293149315 -0.90560188378838
 1  7.82405484138414  0.15956916501650 -1.92926585018502
 1  9.09186123772377  0.98329621462146  0.04548218041804
 1  8.92981146984699 -0.68723422962296  0.74349221292129
 1  10.25077262866287 -0.02315977827783 -2.01977686718672
 1  9.09234421992199 -2.16263423992399 -1.90106603140314
 1  10.88423097879788 -2.36084286818682 -2.14633887778778
 1  10.12455534153415 -2.66047798979898 -0.43323276297630
 1  11.39817749864986  0.69376160636064  0.38285977347735
 1  11.40225327872787 -0.97565352665267  1.02543316491649
 1  12.82740605950595 -1.49306746794679 -1.24542220982098
 1  12.92862661516152  0.09143983498350 -1.74931829312931
 1  13.71939337603760  0.75946850285028  0.58441578457846
 1  13.77334008710871 -0.99409901460146  0.89658617511751
 1  15.37348063656366  0.27253673867387 -1.49600395839584
 1  15.95771321422142 -2.25636592869287  0.06631517761776
 1  14.66731978267827 -2.13055543114311 -1.53029044414441
 1  16.58173780318032 -1.75664118901890 -1.83579504900490
 1  16.17629282998300  1.32977081078108  0.48522506680668
 1  16.35287973517352 -0.37649682478248  1.19982274347435
 1  18.48492943164316 -0.41396794419442 -0.45802914331433
 1  17.72808987348735  1.18699601850185 -1.26943051885188
 1  18.30770156275628  2.42105626332633  1.08701670697070
 1  18.76598375867587  0.73464764576458  1.87356735703570
 1  20.33765867856786  0.44857100530053 -0.01229416541654
 1  19.81186529312931  3.33988755065507 -0.70124371777178
 1  21.17818207030703  2.29930658345835 -1.40907227052705
 1  19.39911381578158  2.11684349514952 -1.81753872287229
 1  20.80099607480748  1.76777488658866  2.32406202340234
 1  22.15069677597760  2.30501173087309  1.43455842214221
 1  20.59739946984699  3.09735981928193  1.62553299379938
>>>>>>> 8e03b5b5abfc0030b3aa597dc0de36371bfbd096

