%nproc=4
%Mem=2GB
# td=(NStates=1) CAM-B3LYP/6-31G(d,p) 

TD

0 1
12 -7.21885245824582  0.60834958305831  0.14362204960496
 6 -4.80261487948795 -1.92144332273227  0.48968550125012
 6 -4.85845577447745  2.83659210651065  1.20536690159016
 6 -9.46101083658366  3.06220171567157 -0.46463932363236
 6 -9.58988930263026 -1.73574908590859 -0.78996542564256
 7 -5.02930635523552  0.52766258435844  0.65685610391039
 6 -4.32931263736374 -0.66211603360336  0.78683670687069
 6 -2.88857786318632 -0.34370379607961  1.20486084028403
 6 -2.97894133253325  1.12867553585359  1.57861859255926
 6 -4.40327732263226  1.52755350415042  1.15009203910391
 6 -2.83554863696370  1.38439072717272  3.14395580448045
 6 -1.93440690169017 -0.57256251765177  0.03644760306031
 6 -0.48465588818882 -0.32052639983998  0.60272440174017
 6  0.48874001120112 -0.66553006590659 -0.53583896439644
 8  0.18995023512351 -1.06651205880588 -1.65137146884688
 8  1.86799861036104 -0.37811520792079 -0.25745253415342
 7 -7.19748019591959  2.57000259005901  0.37940663616362
 6 -6.09935921492149  3.33785476127613  0.78399193279328
 6 -6.49175642874287  4.70926521592159  0.88689937713771
 6 -7.86544925192519  4.81576220772077  0.47660605190519
 6 -8.19971424302430  3.40344954025403  0.01591413771377
 6 -5.63561151785179  5.88104056995700  1.16851161166117
 6 -8.70246804440444  6.03969500320032  0.23013999939994
 6 -8.62513640494049  7.21332745134513  0.83662991279128
 7 -9.15006727932793  0.68622148324832 -0.48474250795080
 6 -9.90669692939294  1.80579053215322 -0.62537886198620
 6 -11.24011310791079  1.48437677677768 -1.11630334983498
 6 -11.24936734063406  0.08047341144114 -1.20516923092309
 6 -10.00145582628263 -0.36949892419242 -0.76731174727473
 6 -12.39304812851285  2.45312588358836 -1.40387716251625
 6 -12.40228477477748 -0.78988639873987 -1.75994680318032
 6 -12.29933742214221 -1.35608802000200 -3.21092621122112
 7 -7.13781324962496 -1.38889850345035 -0.14324900190019
 6 -8.25387562736274 -2.24093926602660 -0.56679163436344
 6 -7.85985213081308 -3.58027629512951 -0.59412668996900
 6 -6.55600948504850 -3.55493983098310 -0.11035276717672
 6 -6.06829942634263 -2.18452673397340  0.00101290549055
 6 -8.58806627402740 -4.77127997039704 -0.86842532093209
 6 -5.30148461876188 -4.36370025352535  0.13927680028003
 8 -5.17281611951195 -5.53552803620362  0.23068009870987
 6 -4.11845542494249 -3.30941673147315  0.60285015031503
 6 -3.47428805970597 -3.66981220252025  1.89999037193719
 8 -3.67193879447945 -3.03648038423842  2.88043072417242
 8 -2.71958315201520 -4.78100282268227  1.82174075497550
 6 -2.09849043694369 -5.20560478957896  3.03152808830883
 6  2.82789530123012 -0.65693348794879 -1.22274347474747
 6  4.13885597459746 -0.38272644894489 -0.54934508350835
 6  5.11301478587859  0.42542880828083 -1.14226399909991
 6  5.10243866686669  1.16447909720972 -2.43663782908291
 6  6.44075840864086  0.43503535373537 -0.31753823902390
 6  7.60330786868687 -0.10286063296330 -1.17127407790779
 6  8.94713658625863 -0.15547067746775 -0.34031584438444
 6  10.17810843534353 -0.70255732743274 -0.98134910541054
 6  10.14723142334233 -2.14336527262726 -1.30999446444644
 6  11.43392626952695 -0.23551733253325 -0.16874600600060
 6  12.78824373207321 -0.53606765786579 -0.76352637553755
 6  14.00553002140214 -0.05621682448245  0.13031009850985
 6  15.45196132103210 -0.20919464856486 -0.38045628542854
 6  15.74031570047005 -1.61551918571857 -0.68271788948895
 6  16.54557866376638  0.34327868786879  0.50868537573757
 6  17.83886847624762  0.57281868026803 -0.01296711131113
 6  18.88282865236524  1.35380359735974  0.81708214121412
 6  20.30428909810981  1.22085241874187  0.29045380858086
 6  20.45725707950795  2.07578587578758 -1.02251324402440
 6  21.18392932373238  1.84004694099410  1.37694305770577
 1 -4.06119760426043  3.57696321772177  1.69907449434943
 1 -10.25859625232523  3.81338217321732 -0.42774816631663
 1 -10.34969825922592 -2.56286562736274 -0.89487613981398
 1 -2.75442189908991 -0.71130944484448  2.22558324952495
 1 -2.10395400060006  1.56755033763376  1.03127377777778
 1 -1.80938539603960  1.12360281318132  3.28916262976298
 1 -3.02018707870787  2.46579063656366  3.33565573097310
 1 -3.49166260896090  0.73301798579858  3.78497090989099
 1 -1.99875236013601 -1.61271123152315 -0.34005791499150
 1 -2.30714238673867  0.18874612501250 -0.88398843844384
 1 -0.31077459485949  0.57974258815882  1.07293769286929
 1 -0.42858066006601 -1.24561907710771  1.31962591779178
 1 -5.82986176157616  6.81996064016402  0.56547225642564
 1 -5.45986297569757  6.07287065016502  2.29237553465346
 1 -4.49921387738774  5.82856402280228  0.43845702130213
 1 -9.56871892439244  6.08394454255426 -0.48978920712071
 1 -9.19656087198720  8.07317805670567  0.36298592039204
 1 -8.03954342014201  7.37185358485849  1.64649303480348
 1 -12.08636274137414  3.23722404840484 -2.10571357605761
 1 -13.17014668386839  1.97267115831583 -1.93827501900190
 1 -12.78089982108211  2.71031968666867 -0.35763700770077
 1 -12.53384816321632 -1.59594904000400 -0.98060301520152
 1 -13.43997271617162 -0.15607234403440 -1.62214774227423
 1 -13.22520887348735 -1.98669335553555 -3.32919280378038
 1 -12.56484004820482 -0.43073761136114 -4.04204770047005
 1 -11.52525880518052 -1.93833870097010 -3.74006262626263
 1 -9.15108471147115 -4.78666940984098 -1.80888415251525
 1 -7.84966433123312 -5.71493149734973 -0.89252886588659
 1 -9.40610049494950 -5.05869089038904 -0.09593141574157
 1 -3.44024472037204 -3.21003425412541 -0.24768003950395
 1 -1.48923709020902 -4.51786822652265  3.71993490879088
 1 -2.96588619721972 -5.53471508910891  3.63676651555155
 1 -1.61062917441744 -6.01292056525653  2.95855980888089
 1  2.62730203430343 -1.75411724762476 -1.53601756675668
 1  2.69328680628063 -0.06173189358936 -2.18141129332933
 1  4.36885779137914 -1.13740595579558  0.29173238923892
 1  4.14905386888689  1.30622933333333 -3.06719508920892
 1  5.56724213591359  2.07926818571857 -2.41072754095409
 1  5.69063637123712  0.71089219671967 -3.06774550555056
 1  6.66330839373937  1.47918191819182  0.01304394719472
 1  6.45621974137414 -0.13936197359736  0.55826554325433
 1  7.33156054075407 -1.06712594779478 -1.35160648424842
 1  7.74584702060206  0.47110031813181 -2.16679960356036
 1  9.10923297489749  0.79029691469147  0.10997863006301
 1  8.76609509820982 -0.95925143134313  0.55899376307631
 1  10.24239179057906 -0.30931839413941 -1.87435232473247
 1  9.13980896639664 -2.23410138663866 -1.74356028082808
 1  11.08242079777978 -2.54565134903490 -1.75884012791279
 1  9.90315320132013 -2.75895783778378 -0.32648208790879
 1  11.36442412331233  0.80753298349835  0.14441592909291
 1  11.56229928332833 -0.64262022332233  0.89342996459646
 1  12.88065138403840 -1.68006616781678 -0.89366703430343
 1  12.83326707920792 -0.06231554055406 -1.74819818111811
 1  13.90771220792079  1.03496605260526  0.26718406140614
 1  13.89406215931593 -0.43910351505151  1.24277079357936
 1  15.60639392789279  0.33328281328133 -1.15446980498050
 1  15.89198664156416 -2.14865515761576  0.18129667576758
 1  15.10541359205921 -2.00749312491249 -1.30413782888289
 1  16.74584421382138 -1.55832135703570 -1.06320779027903
 1  16.19750495119512  1.38864669836984  0.71528807310731
 1  16.54596904410441 -0.39649882498250  1.36451921312131
 1  18.25121606030603 -0.51609815721572 -0.10222356275628
 1  17.62160922542254  0.92235955485549 -1.03677725352535
 1  18.50246103870387  2.39944410211021  0.84334233953395
 1  18.81906906720672  0.84682886388639  1.88702870317032
 1  20.81755666836684  0.25405155335534  0.04392145614561
 1  20.31468557515752  3.08325188708871 -0.87749134253425
 1  21.63137738983898  1.97918457125713 -1.57317868116812
 1  19.61308521292129  1.64280609140914 -1.65507247624762
 1  21.09595557075708  1.48681679077908  2.27722733993399
 1  22.23802550885089  1.67259848954895  0.96231119741974
 1  21.18696842674268  3.10440052335234  1.56390683118312

