%nproc=4
%Mem=2GB
# td=(NStates=1) CAM-B3LYP/6-31G(d,p) 

TD

0 1
12 -7.09867044004400  0.52188093619362  0.03239092649265
 6 -4.83732835083508 -1.92229340774077  0.50902743544354
 6 -4.70138006690669  2.83640208750875  1.11839820472047
 6 -9.35620035553555  3.02970846634663 -0.31687454715472
 6 -9.56822713641364 -1.67555306630663 -0.89344577367737
 7 -5.10564398899890  0.43024284238424  0.76208662696270
 6 -4.33418312441244 -0.73147296929693  0.80324834803480
 6 -2.88065707110711 -0.37135656135614  1.22977333153315
 6 -2.97831126952695  1.03777644594459  1.65462619331933
 6 -4.27219421432143  1.51347209600960  1.10372740264026
 6 -2.85163024512451  1.35515780388039  3.19378078697870
 6 -1.84004746574657 -0.62704796619662  0.12803676197620
 6 -0.39944736733673 -0.46192053925393  0.50119424872487
 6  0.51582271947195 -0.62849636253625 -0.67687306780678
 8  0.18346958705871 -1.09398480608061 -1.67619395109511
 8  1.78947075757576 -0.33078047444744 -0.29648643754375
 7 -7.10395084298430  2.66707229702970  0.37225592109211
 6 -6.00626990599060  3.35518649444944  0.77815134873487
 6 -6.35660291339134  4.76552084148415  0.85144583178318
 6 -7.69481218821882  4.91269190069007  0.39666805810581
 6 -8.08801307290729  3.40629982528253  0.11232377867787
 6 -5.53752170887089  5.89155162106211  1.21734649514952
 6 -8.57923572117212  6.01098213191319  0.19657664306431
 6 -8.37543143444345  7.24029014761476  0.65773202300230
 7 -9.05914818741874  0.64106696779678 -0.60223425712571
 6 -9.82168842854285  1.71906185928593 -0.70416674077408
 6 -11.18322741934193  1.46414475357536 -1.02738445794579
 6 -11.23393579747975  0.06526189028903 -1.22202091609161
 6 -9.91998767946795 -0.36538851315131 -1.00003501960196
 6 -12.37888671237124  2.30882145314532 -1.44072084688469
 6 -12.36986153245325 -0.86190360046005 -1.62176298479848
 6 -12.31828931733173 -1.19265167636764 -3.15642076067607
 7 -7.27124659295930 -1.47824743834383 -0.13623830083008
 6 -8.33127336713671 -2.25150032213221 -0.46717167236724
 6 -7.85767191279128 -3.65179344684468 -0.57684496179618
 6 -6.51714559865987 -3.64283862086209 -0.04110584248425
 6 -6.18542113851385 -2.18230651195120  0.17764056825683
 6 -8.66352381978198 -4.82528537093709 -1.04930340874087
 6 -5.29980445074507 -4.35253913741374  0.23873674627463
 8 -5.17680651855185 -5.59659414281428  0.28492552325233
 6 -4.20237381678168 -3.28083387318732  0.60458032333233
 6 -3.56243687458746 -3.68308352965297  1.85471584448445
 8 -3.72924452505251 -3.08939567576758  2.95196787788779
 8 -2.76696789048905 -4.80395511791179  1.84277285818582
 6 -2.28745933383338 -5.23809803890389  3.16137107260726
 6  2.79294180588059 -0.58090588518852 -1.26779798019802
 6  4.13186527552755 -0.26805498179818 -0.68386853585359
 6  5.08608209260926  0.48808507390739 -1.18462823552355
 6  4.98979740274027  1.35735838513851 -2.37136130143014
 6  6.40666499929993  0.58200005020502 -0.33537002220222
 6  7.65451298919892  0.02939259235924 -1.14161111161116
 6  9.02479435203520  0.17926279587959 -0.25545735853585
 6  10.23239386388639 -0.45793286498650 -0.90348131863186
 6  10.07800450065006 -1.98624956105611 -1.23308677367737
 6  11.45674855175518 -0.13512729352935 -0.03387251865187
 6  12.72636754445445 -0.53179723082308 -0.76515653855386
 6  13.92360182858286 -0.11883308610861  0.12657972547255
 6  15.34607073197320 -0.21861559065907 -0.47069530933093
 6  15.59618128702870 -1.64796243004300 -0.83481309900990
 6  16.43663776967697  0.22002636263626  0.52829733693369
 6  17.73060765016502  0.49107050545055 -0.04787060166017
 6  18.75943631313131  1.24477269426943  0.79440987398740
 6  20.20526919611961  1.19338967246725  0.35991075427543
 6  20.25637699149915  1.91653995119512 -0.98926991969197
 6  21.18722965376538  1.86285922222222  1.38310367376738
 1 -4.11392287678768  3.51581710311031  1.55995058195820
 1 -10.36232662536254  3.68136897189719 -0.58077346884688
 1 -10.14911820122012 -2.60259960076008 -1.06463311551155
 1 -2.83734019091909 -1.11180949484948  2.09517020822082
 1 -1.99038264346435  1.49022260486049  1.24649529992999
 1 -1.83651810931093  1.02909336223622  3.60701441494149
 1 -3.01954701470147  2.41471552905290  3.26369853525352
 1 -3.53805724842484  0.61588627262726  3.61241365416542
 1 -1.94583706860686 -1.52916287668767 -0.40293420262026
 1 -2.03474514701470  0.25068231863186 -0.70319035863586
 1 -0.45945946334634  0.56160077397740  0.89708010711071
 1  0.01154335233523 -1.07785230043004  1.37257121232123
 1 -5.61869064446445  6.86090473457346  0.67467317651765
 1 -5.67302429182918  6.03667703080308  2.30661695879588
 1 -4.55716967296730  5.82613377977798  1.17468064366437
 1 -9.56007806030603  5.70470661876188 -0.47532776097610
 1 -9.04687590349035  8.15491623052305  0.53959358115812
 1 -7.49932939873987  7.76710310981098  1.14133251875187
 1 -12.16333043814381  2.85042536853685 -2.27346035073507
 1 -13.18730840004000  1.61157504870487 -1.24252544404440
 1 -12.20282201330133  3.03556221092109 -0.49658090209021
 1 -12.17992277067707 -1.84959440454045 -0.81560651555156
 1 -13.24616333523352 -0.37564430123012 -1.17523305080508
 1 -13.13797014961496 -1.79608429462946 -3.57494737923792
 1 -12.41353491769177 -0.41108564616462 -3.80219371507151
 1 -11.44439071837184 -1.61088595569557 -3.36271489148915
 1 -9.11876147914792 -4.94387513041304 -2.03781704580458
 1 -8.15273463826383 -5.66582658685869 -1.00569018201820
 1 -9.56177606250625 -4.97861288258826 -0.26133795639564
 1 -3.54354505040504 -3.37789103980398 -0.31249652115212
 1 -1.61134930143014 -4.50367680738074  3.60280319561956
 1 -3.04696430503050 -5.39550116771677  4.08745158405841
 1 -1.56337444894490 -6.19287856105611  2.88810276317632
 1  2.70078938303830 -1.66166800270027 -1.51008497349735
 1  2.46281375897590 -0.08832455285529 -2.21931508370837
 1  4.32621352695269 -0.91089330453045  0.17538075407541
 1  4.02645160866087  1.56741545194520 -2.86552492219222
 1  5.53481889358936  2.38095835473547 -2.35066153435343
 1  5.60472778037804  0.96516762426243 -3.14903363436344
 1  6.52094415731573  1.59277327732773 -0.16791414861486
 1  6.08427254665467  0.06613857645765  0.46378609530953
 1  7.61728911361136 -0.89691892709271 -1.72431375497550
 1  7.74928736463646  0.60504371247125 -2.00040296389639
 1  9.03144519611961  1.27347523252325 -0.02773514131413
 1  8.90755924462446 -0.38797430363036  0.65062292599260
 1  10.47621517291729 -0.03254071637164 -1.98388327782778
 1  9.15035002050205 -1.92906088258826 -1.59882580738074
 1  10.71042359805980 -2.39426621052105 -1.89051329522952
 1  10.30681356735674 -2.84425636763676 -0.41374081378138
 1  11.51886956785679  0.90578280848085  0.26133762126213
 1  11.05027808120812 -0.83196915821582  0.90551117271727
 1  12.80187350625063 -1.62356051725173 -1.20103777137714
 1  12.62287604010401  0.22278296929693 -1.61797515881588
 1  14.05745718241824  0.91305386138614  0.38627597059706
 1  13.94435718881888 -0.68244784948495  1.07442395889589
 1  15.38790207870787  0.47464694969497 -1.44483884188419
 1  15.34816225912591 -2.50290058215822 -0.04686614051405
 1  14.73216626732673 -1.96774915051505 -1.45305272037204
 1  16.59246887628763 -2.06481200610061 -1.32315378487849
 1  16.33066826752675  1.22662049574957  1.01288783308331
 1  16.60051449864986 -0.63217239233923  1.23411617281728
 1  18.14697563626363 -0.36271281868187 -0.13437677807781
 1  17.79103616811681  1.21639895879588 -1.09327290309031
 1  18.67621841444144  2.37137129482948  0.97743574887489
 1  18.81573873417342  0.80765494649465  1.73965396569657
 1  20.54007892059206  0.10765691389139  0.16148321232123
 1  19.82987709430943  2.94850841274127 -0.75341893529353
 1  21.28659291139114  2.11534818761876 -1.49121048434843
 1  19.39753365776578  1.61234304510451 -1.94052102110211
 1  20.86041201640164  1.39515762486249  2.46061567876788
 1  22.23259496579658  1.79930115981598  1.04118908520852
 1  20.98274800470047  2.94374445774577  1.61522196269627

