%nproc=4
%Mem=3GB
# td=(NStates=1) iop(3/107=0140000000,3/108=0140000000) CAM-B3LYP/6-31G(d,p) 

TD

0 1
12 -7.11505619731973  0.65060344384438  0.02889925992599
 6 -4.78284710121012 -1.94457168776878  0.46264166656666
 6 -4.74379040964096  2.72064078197820  1.17411751695170
 6 -9.36802356685669  3.16822437543754 -0.44905738103810
 6 -9.54440053805381 -1.64462622832283 -1.02042884778478
 7 -5.11195822702270  0.32432852345235  0.68777660166017
 6 -4.30188243554355 -0.70575171837184  0.76059395409541
 6 -2.91382760336034 -0.42333073107311  1.21721739083908
 6 -3.08611183808381  1.04146284788479  1.76738301760176
 6 -4.39432966766677  1.41585623672367  1.21140553445345
 6 -3.01257743854385  1.12811563086309  3.37384269886989
 6 -1.87925365506551 -0.69090507970797  0.07649145944594
 6 -0.47050275947595 -0.52492574057406  0.53015639793979
 6  0.49020094329433 -0.71919854175418 -0.54460425052505
 8  0.22110232703270 -1.08774255195520 -1.62564995809581
 8  1.80420901930193 -0.46898683708371 -0.12954834243424
 7 -7.11746939033903  2.63593680358036  0.39595051915192
 6 -6.01784192799280  3.39917368476848  0.87162303840384
 6 -6.32596750515051  4.81200806440644  0.86919517821782
 6 -7.63316810211021  4.89020082528253  0.38943506990699
 6 -8.02850237773777  3.50401734053405  0.01492949154915
 6 -5.41136317021702  5.89015848954895  1.23859401460146
 6 -8.59309931793179  6.02190245984598  0.24019463196320
 6 -8.57441585158516  7.18991814151415  0.85641970127013
 7 -9.08596763786379  0.74144113851385 -0.64607118101810
 6 -9.82324981128113  1.82829615391539 -0.71540435393539
 6 -11.18990294299430  1.48723816831683 -1.22466732643264
 6 -11.19554904210421  0.10853839963996 -1.37789781808181
 6 -9.95860346394639 -0.25779597299730 -0.94744694599460
 6 -12.32953389108911  2.49360460186019 -1.51662111481148
 6 -12.35989978287829 -0.80933705750575 -1.91928125872587
 6 -12.08331023992399 -1.08150834313431 -3.34663531473147
 7 -7.20665362776278 -1.34080891659166 -0.22051472657266
 6 -8.28826315261526 -2.16297484298430 -0.60046162606261
 6 -7.85868790859086 -3.59798034943494 -0.46073637343734
 6 -6.53712150265027 -3.53136611871187 -0.11383346504650
 6 -6.17604133583358 -2.16966492229223  0.13234506990699
 6 -8.68129046854686 -4.75356145454545 -0.88145152825283
 6 -5.34399986288629 -4.30401396479648  0.18062303640364
 8 -5.29216020832083 -5.50701755875588  0.41400734933493
 6 -4.18703320592059 -3.39461690909091  0.51213953555356
 6 -3.68061223802380 -3.71067901060106  1.90413638213821
 8 -3.95775855925593 -3.13615097299730  2.98476183438344
 8 -2.78432378517852 -4.69923854235424  1.83972300980098
 6 -2.20744970197020 -5.11244645054505  3.13212061246125
 6  2.86992331273127 -0.80038832773277 -1.11427494469447
 6  4.16486737193719 -0.60854612251225 -0.43607617041704
 6  5.16727221852185  0.26763329132913 -0.91104398139814
 6  5.07279100470047  1.12529020432043 -2.12660679567957
 6  6.45818209690969  0.35761637763776 -0.17935846024602
 6  7.59859131173117 -0.24657320532053 -0.97769809850985
 6  8.92191990359036 -0.19706152225223 -0.12727883028303
 6  10.19237469806981 -0.59138080128013 -0.88214393439344
 6  10.24697797439744 -1.96946482638264 -1.49477644364436
 6  11.40850551435143 -0.37627251835184  0.03586562406241
 6  12.79355709120912 -0.40502053555356 -0.68755626072607
 6  13.94363563536354 -0.09543525782578  0.14102051365137
 6  15.30231622262226 -0.17370645424542 -0.47022267476748
 6  15.66217248824883 -1.54649303760376 -1.01916374267427
 6  16.39007600030003  0.39477599489949  0.50978571327133
 6  17.78482607030703  0.52308603820382 -0.18050457745775
 6  18.80691110971097  1.30137821632163  0.78323157985799
 6  20.23834663906391  1.38890832333233  0.09449615561556
 6  20.27181002680268  2.31735904100410 -1.11824652055206
 6  21.21018608560856  1.89361106100610  1.09927386738674
 1 -4.12506286978698  3.51514476587659  1.72130822662266
 1 -10.08215033833383  4.04991726622662 -0.36056058225823
 1 -10.23701812591259 -2.44324986008601 -1.32203002240224
 1 -2.80542782998300 -1.04986518921892  2.03859034973497
 1 -2.38183164946495  1.70688274937494  1.37707135613561
 1 -1.99059214561456  0.92385149154915  3.66105644304430
 1 -3.10278738783878  2.16019524232423  3.54176219841984
 1 -3.85235803630363  0.65916107040704  3.84728641384138
 1 -1.99399451845185 -1.91352202300230 -0.21612962006201
 1 -2.21870823982398  0.00774839463946 -0.88646538113811
 1 -0.55965139383938  0.67596718401840  1.02049591259126
 1 -0.01484990529053 -1.05672643924392  1.36225968426843
 1 -5.95979015671567  6.94437194919492  0.84819465076508
 1 -5.23941541284128  5.95440832223222  2.38499051155116
 1 -4.51819666426643  5.57974224222422  0.98255898849885
 1 -9.40873113291329  5.84444782678268 -0.51948330103010
 1 -9.16084514821482  7.98848856985699  0.73028280398040
 1 -7.86887481958196  7.46630346674667  1.48849781008101
 1 -12.15848632163216  3.26757590469047 -2.25330116161616
 1 -13.23903120082008  2.07607635003500 -1.84389011721172
 1 -12.68047908060806  3.17226456055606 -0.62034247374737
 1 -12.41357332223222 -1.64795571837184 -1.39904340524052
 1 -13.24006630573057 -0.26708941944194 -1.92804855925593
 1 -13.08704390359036 -1.50549421152115 -3.62101305940594
 1 -11.99477988368837 -0.08175664696470 -4.04301327972797
 1 -11.27525236463646 -1.67046807400740 -3.57852613081308
 1 -9.04450906950695 -4.73677017781778 -1.92648871187119
 1 -7.87190157535754 -5.57162311561156 -0.77289724482448
 1 -9.40375455445545 -5.09263771217122 -0.03051532023202
 1 -3.35824334283428 -3.54688129372937 -0.20082782088209
 1 -1.73995738333833 -4.35190740414041  3.72394411201120
 1 -2.85244168146815 -5.52745227012701  3.94270530823082
 1 -1.37230775127513 -5.78781956675668  2.81819518061806
 1  2.63929198399840 -1.84092071487149 -1.34771622032203
 1  2.77441388268827 -0.15594750995100 -2.12982403990399
 1  4.15842632933293 -1.25878429222922  0.36790819101910
 1  4.06085139663966  0.81457700040004 -2.71129161486149
 1  5.13634056625663  2.33601402530253 -1.87188462686269
 1  6.00044961346135  1.01444263516352 -2.88860511741174
 1  6.85712389628963  1.64325430603060 -0.11439182528253
 1  6.51380925302530  0.04496716001600  0.75854204970497
 1  7.34069619241924 -1.18780945394539 -1.14058881608161
 1  7.51002356085609  0.13889299229923 -1.85104592749275
 1  9.15503154745475  0.88157765526553  0.06226865496550
 1  8.76027914871487 -0.77727608030803  0.79707583098310
 1  10.49376400820082  0.02604875267527 -1.70355551355135
 1  9.31193080218022 -2.14650293379338 -2.01524990689069
 1  11.02963210381038 -2.21074447374737 -2.29842520062006
 1  10.27904010111011 -2.55161927662766 -0.54045143884388
 1  11.18490013161316  0.46724315771577  0.61400917171717
 1  11.47566516201620 -1.15037633523352  0.87829414951495
 1  12.87197515001500 -1.36379379867987 -1.13205547704770
 1  12.76269209910991  0.59599453545355 -1.35103943764376
 1  13.90544196449645  0.85508087138714  0.53395822452245
 1  14.06385469606961 -0.81758813771377  0.95566794079408
 1  15.20871127252725  0.67283068006801 -1.36703797259726
 1  15.75651944874487 -2.20159950115011 -0.14714284978498
 1  14.82479412381238 -2.00414493449345 -1.57062843634363
 1  16.56285456505650 -1.45814671167117 -1.74432094539454
 1  16.30437371087109  1.43376170987099  0.75856177247725
 1  16.62752683048305 -0.30162644744474  1.41615010971097
 1  18.23285002270227 -0.44377089108911 -0.43700389598960
 1  17.72660997059706  1.00350924502450 -1.10090583418342
 1  18.38160721762176  2.26949821782178  0.85026697349735
 1  18.85707166966697  0.71395623512351  1.76950019551955
 1  20.50738057035704  0.45757675527553 -0.07667177497750
 1  19.88193501200120  3.31601237773777 -0.91788397309731
 1  21.26392019281928  2.15877701980198 -1.48516649784978
 1  19.60660905850585  1.92839312951295 -1.93738212261226
 1  21.47644149764976  1.14416005690569  1.83119678847885
 1  22.19511740454045  1.95965643634364  0.61425807940794
 1  20.93911398989899  2.79877599479948  1.76444358105811

