%nproc=4
%Mem=2GB
# td=(NStates=1) CAM-B3LYP/6-31G(d,p) 

TD

0 1
12 -7.20516108910891  0.56408515661566  0.18333602100210
 6 -4.87558217621762 -1.98752993139314  0.55191172387239
 6 -4.93553348224823  2.83498194549455  1.08221458635864
 6 -9.50132486798680  3.06750224572457 -0.29141200090009
 6 -9.53989430313031 -1.70640615161516 -0.92023845294529
 7 -5.14281770637064  0.38547836593659  0.69447986628663
 6 -4.34054376047605 -0.71553137513751  0.72186020922092
 6 -2.96638564396440 -0.37756718241824  1.23159351355136
 6 -3.05284872327233  1.16829949824983  1.73797452815282
 6 -4.36321331623162  1.54878562736274  1.10760779067907
 6 -2.79744482658266  1.28573086118612  3.14515592449245
 6 -1.91741520252025 -0.62102736413641  0.14129808810881
 6 -0.52807022962296 -0.55026937413741  0.59996412571257
 6  0.55539667686769 -0.70269378227823 -0.50860624112411
 8  0.30002124222422 -1.05606101370137 -1.65481181288129
 8  1.79050086058606 -0.50933833023302 -0.08904569346935
 7 -7.16242669056906  2.61778736853685  0.44196289178918
 6 -6.08849812881288  3.43917489328933  0.77968150175018
 6 -6.38069532263226  4.77252154155416  0.74525521272127
 6 -7.78313102010201  4.83741437293729  0.34057244854485
 6 -8.24057832943294  3.49429862516252  0.08983152945295
 6 -5.41657961466147  5.90165263116312  1.08012277277728
 6 -8.48580637823782  6.13473450715072  0.21861884728473
 6 -8.55636952825283  7.22021814041404  1.02359860966097
 7 -9.09210148274827  0.67999086018602 -0.56229026272627
 6 -9.88658491819182  1.80953090619062 -0.63848017211721
 6 -11.17417651425142  1.47802614171417 -1.33498521802180
 6 -11.20777318121812  0.13352871697170 -1.40581929592959
 6 -9.86294197489749 -0.34895686998700 -0.94898991509151
 6 -12.24777360106011  2.38527909890989 -1.50875765056506
 6 -12.34062860916092 -0.86916432653265 -1.84050485898590
 6 -12.19891738013801 -1.26316872807281 -3.31447656625663
 7 -7.26928639693969 -1.33579319291929 -0.13286796379638
 6 -8.34679491929193 -2.26285145724572 -0.49521447664766
 6 -7.91363750935094 -3.58658692619262 -0.44720199749975
 6 -6.53899778387839 -3.50014435143514 -0.06050778267827
 6 -6.19566216261626 -2.17677595889589  0.20019282348235
 6 -8.71243871127113 -4.84877772017202 -1.01211969036904
 6 -5.32731720202020 -4.34410829432943  0.18673154575458
 8 -5.10867970587059 -5.49306378977898  0.09748677937794
 6 -4.15857943734373 -3.34531032083208  0.55169503480348
 6 -3.65554618551855 -3.71061628292829  1.87169754265427
 8 -3.79253085368537 -3.12380911711171  3.02735541664166
 8 -2.82967416111611 -4.69933465586559  1.81489006990699
 6 -2.29053964186419 -5.22745697479748  3.00529546504650
 6  2.81330384208421 -0.73910170477048 -1.09385058545855
 6  4.16739882888289 -0.41212938923892 -0.49392954195420
 6  5.15583906830683  0.38207447284728 -0.94193396609661
 6  4.99728815181518  0.92007465676568 -2.45042920822082
 6  6.48657299009901  0.45283713391339 -0.34452093729373
 6  7.75261279917992 -0.07033738063806 -1.02821977247725
 6  8.94111598419842 -0.00518564896490 -0.12167398019802
 6  10.18231885638564 -0.46162323402340 -0.79942091259126
 6  10.09816651685168 -1.91837277337734 -1.29474293929393
 6  11.50461333823382 -0.36473025382538  0.10319118771877
 6  12.79164407210721 -0.49080313141314 -0.63062308520852
 6  13.94183365176518 -0.13240444324432  0.30814788228823
 6  15.32307843274327 -0.26621035013501 -0.46035427522752
 6  15.78559022792279 -1.71117875167517 -0.90912052975298
 6  16.49736384228423  0.31810617061706  0.37164167136714
 6  17.75701029042904  0.64851625002500 -0.22636845144514
 6  18.82939330883088  1.31856007300730  0.68447888088809
 6  20.25250391959196  1.31109144264426  0.17002176537654
 6  20.40855220902090  2.15278357555756 -1.17329832253225
 6  21.23270420122012  2.02750568686869  1.17692305570557
 1 -4.15026651115112  3.46474199559956  1.41690627752775
 1 -10.22055244794479  4.07221805680568 -0.23541893339334
 1 -10.21115440484048 -2.42942228302830 -1.04266091829183
 1 -2.63998045494549 -0.88581689558956  2.25077576877688
 1 -2.18784238943894  1.68927250985098  1.19121977237724
 1 -1.76349080658066  0.95452590549055  3.59897361086109
 1 -3.09408446844684  2.24666872437244  3.25488765416542
 1 -3.51868531123112  0.63594827882788  3.83937635043504
 1 -1.85558804370437 -1.67154711511151 -0.30575448464846
 1 -2.21361303380338 -0.01666441604160 -0.70705074467447
 1 -0.32979649704970  0.41956657055706  1.12178257735774
 1 -0.48022582458246 -1.43934845004501  1.26166012121212
 1 -5.61245002040204  6.81225987008701  0.57712342154215
 1 -5.58985597499750  6.34133749684969  2.01963826092609
 1 -4.36225018101810  5.88235940234023  0.89508268386839
 1 -9.12883493599360  6.30456660476048 -0.58104833303330
 1 -9.06043725962596  8.07579831873187  0.61722134393439
 1 -8.18915838163816  7.34612101160116  2.00188857435744
 1 -11.86561066616662  3.29505983198320 -2.03203620832083
 1 -13.13629329852985  1.88975286648665 -2.36474766626663
 1 -12.80390212131213  2.81065972067207 -0.60226147014701
 1 -12.12828760716072 -1.68614805990599 -1.23634858975898
 1 -13.27645636453645 -0.41681841864186 -1.46997252475248
 1 -13.21152750535053 -1.78566325252525 -3.55779566406641
 1 -12.29139270347035 -0.44029856745675 -4.01678517421742
 1 -11.42630891019102 -1.87937280438044 -3.32598121812181
 1 -9.14098370137014 -4.45372611551155 -2.01794505860586
 1 -8.04635400020002 -5.54950495469547 -1.28167778077808
 1 -9.46575646054606 -4.98867388868887 -0.14417624022402
 1 -3.49985068096810 -3.28745199589959 -0.29681495299530
 1 -1.74356252275227 -4.43140958065807  3.62795571087109
 1 -3.06339594819482 -5.76148776637664  3.53302614151415
 1 -1.67148526002600 -6.19938921212121  2.74240819371937
 1  2.79360866496650 -1.83170500640064 -1.42627659265927
 1  2.55571304890489 -0.23919964036404 -2.00929408160816
 1  4.11952285788579 -0.85821803700370  0.60978419441944
 1  3.93929289278928  1.22796150655066 -2.65042341204120
 1  5.84924033573357  1.91931219011901 -2.25310177837784
 1  5.64714202180218  0.32865397289729 -3.14631336233623
 1  6.87328939183918  1.61156515651565 -0.24746210341034
 1  6.57222134153415  0.16540850345034  0.72021173787379
 1  7.67929531423142 -1.10091932713271 -1.37714903850385
 1  8.00436287218722  0.53911711981198 -1.97182010561056
 1  9.22370442204220  1.03236112111211  0.09508714091409
 1  8.76309479817982 -0.55704121032103  0.69802766646665
 1  10.35158270967097  0.13357589528953 -1.63216810631063
 1  9.27376236173617 -1.91063904040404 -2.03527945274527
 1  11.07657021272127 -1.99525630953095 -1.83676792069207
 1  9.82069495549555 -2.77035897789779 -0.45312475217522
 1  11.48354603550355  0.72735496569657  0.53496498399840
 1  11.31329438283828 -0.98766472777278  0.88025864746475
 1  12.98765208410841 -1.70122828402840 -0.80591825942594
 1  12.80578433093309  0.09832052305230 -1.52927628892889
 1  14.17036847354735  0.84419697569757  0.85605294829483
 1  13.93976672977298 -0.70667027172717  1.28893541004100
 1  15.15010829932993  0.41660114511451 -1.37264162216222
 1  15.82362980588059 -2.34443473557356  0.21043959005901
 1  15.04185723642364 -2.29000137573757 -1.44456187128713
 1  16.85382501190119 -1.89977550245024 -1.18621009050905
 1  16.16899209990999  1.33930176387639  0.63481002530253
 1  16.72883733093309 -0.20763993909391  1.33836659785979
 1  18.38193913261326 -0.34074062146215 -0.61916525692569
 1  17.77842490699070  1.19857717661766 -1.15161873767377
 1  18.42036282888289  2.33649780748075  0.79260726602660
 1  18.81373853415342  1.10617479847985  1.79519952025203
 1  20.61866677937794  0.43504965316532 -0.00822375837584
 1  19.98354246084608  3.07328088998900 -1.03054664806481
 1  21.44804905700570  2.04691134393439 -1.52200356365637
 1  19.77178108250825  1.66028783958396 -2.20136710571057
 1  21.41423739893990  1.38241635073507  2.16912652985298
 1  22.23002470877088  2.09068029772977  0.53930889718972
 1  20.88580831073108  2.99531961526153  1.68240868136814

