%nproc=4
%Mem=3GB
# td=(NStates=1) iop(3/107=0140000000,3/108=0140000000) CAM-B3LYP/6-31G(d,p) 

TD

0 1
12 -7.10696538823882  0.59971835533553  0.12389875987599
 6 -4.85709452595260 -2.01988921952195  0.56693209560956
 6 -4.73112914351435  2.83144186208621  0.99838994419442
 6 -9.41674843934394  3.21088864186419 -0.34725720102010
 6 -9.54840093809381 -1.65019678537854 -0.83298010291029
 7 -5.07360439163916  0.50600669126913  0.68015583958396
 6 -4.32733498079808 -0.74461560476048  0.80368826352635
 6 -2.89490571117112 -0.47901629962996  1.22629829892989
 6 -2.99739296619662  0.99891859345935  1.69417569686969
 6 -4.39374960966097  1.48572322342234  1.17302169606961
 6 -3.07905408620862  1.08597141644164  3.19678499309931
 6 -1.90752648234823 -0.77532352155216  0.06655046534653
 6 -0.40202591179118 -0.54577782578258  0.55556893919392
 6  0.60197212041204 -0.87249387128713 -0.58442823292329
 8  0.27734795159516 -1.15794957265727 -1.79485687878788
 8  1.82920151855186 -0.56104604300430 -0.17755314291429
 7 -7.11289893329333  2.65118832873287  0.32011293539354
 6 -5.98364850865087  3.42250601800180  0.75013088918892
 6 -6.27643255165516  4.72249911351135  0.71150940964096
 6 -7.55111989728973  4.80381218641864  0.32661878827883
 6 -8.03721324882488  3.53893083188319  0.01485948454845
 6 -5.38491052495250  5.85484495819582  1.07244739993999
 6 -8.44820482848285  6.09109937953795  0.14733534603460
 6 -8.39162757275728  7.29485863556356  0.73639769906991
 7 -9.08489753085309  0.84136113051305 -0.59604617851785
 6 -9.85434292059206  1.93722704700470 -0.58977179067907
 6 -11.20511446414642  1.54040348484848 -1.02259711941194
 6 -11.34068355555556  0.25922346814681 -1.31021104940494
 6 -9.97648525212521 -0.30317051045105 -0.96946914821482
 6 -12.35013595129513  2.48420366176618 -1.21450090279028
 6 -12.47032082498250 -0.66453257705771 -1.65903523412341
 6 -12.31437334623462 -1.09844003630363 -3.15268591979198
 7 -7.20682364476448 -1.31294613031303 -0.12696537163716
 6 -8.30499482578258 -2.17064561006101 -0.40277185708571
 6 -7.85042708250825 -3.52294284568457 -0.46857715751575
 6 -6.48645643614361 -3.52747572967297 -0.18349043074307
 6 -6.21631536323632 -2.19285724152415  0.18785062046205
 6 -8.63779611911191 -4.67372347074707 -0.93378676177618
 6 -5.37861332423242 -4.32265582898290  0.09190416451645
 8 -5.30438143044304 -5.58075493249325  0.18989493809381
 6 -4.20502500510051 -3.39065651305131  0.45389371097110
 6 -3.59210338713871 -3.77093503620362  1.77212318081808
 8 -3.71980476387639 -3.13270062796280  2.89914327252725
 8 -2.75821117391739 -4.84145276377638  1.69272831033103
 6 -2.28967792479248 -5.31100630653065  2.90420782118212
 6  2.79973629402940 -0.86956524542454 -1.20817433463346
 6  4.19099998519852 -0.63217848574857 -0.56523908670867
 6  5.13772926422642  0.19479600760076 -1.06888976597660
 6  5.04553827942794  0.99316699199920 -2.33740787578758
 6  6.31258753745375  0.25392600860086 -0.19330985538554
 6  7.66026747934793 -0.26771531953195 -0.95137546624662
 6  8.78598631023102 -0.04862667876788 -0.08932503490349
 6  10.13594905550555 -0.50874253745375 -0.73895961596160
 6  10.25057833443344 -2.02766064596460 -1.10652761876188
 6  11.45625028882888 -0.21679657075708  0.14044608210821
 6  12.78027576307631 -0.36964699819982 -0.60836834193419
 6  13.94158543034303  0.08301258695870  0.28203461506151
 6  15.31527751875188 -0.11087017061706 -0.48066371887189
 6  15.61926819781978 -1.48881727002700 -0.99155098139814
 6  16.37744473717372  0.44763128042804  0.43661839653965
 6  17.78453604130413  0.75723945354535 -0.24911143814381
 6  18.80508092669267  1.31570964946495  0.74202745944594
 6  20.27042984738474  1.31040047254725  0.24326103210321
 6  20.43038588438844  2.04027133223322 -1.13229792569257
 6  21.08936400340034  2.02525422532253  1.22824676467647
 1 -3.94038440194019  3.43750700210021  1.48653474927493
 1 -10.03669579287929  4.04979725422542 -0.64262878907891
 1 -10.37593201730173 -2.38373390849085 -1.15695351475148
 1 -2.58644593179318 -1.08141834453445  1.85683217391739
 1 -2.24199766606661  1.69377143824382  1.40709435843584
 1 -2.10545363176318  0.86462556895690  3.81481181858186
 1 -3.56561367046705  2.12372159495950  3.43462148434843
 1 -3.74556735723572  0.40742589688969  3.64778646384638
 1 -1.89635475447545 -1.77473814461446  0.14553654655466
 1 -2.27193356235623 -0.12890527072707 -0.70849758435844
 1 -0.21669709840984  0.44434402170217  0.87867173017302
 1 -0.19248766906691 -1.22349311591159  1.27772123042304
 1 -6.02618679637964  6.84279179117912  0.55398522982298
 1 -5.43653512481248  6.05860874227423  2.32263427592759
 1 -4.33832867746775  5.66630089808981  0.50754148674868
 1 -9.36862712251225  5.88051143314331 -0.37468882158216
 1 -9.41222028572857  7.99097881888189  0.51816159185919
 1 -7.67522545464546  7.39698653505350  1.42598155845585
 1 -12.01433190619062  3.37150629772977 -1.81711754325433
 1 -13.34848214591459  1.88212695509551 -1.65880160836084
 1 -12.56548758145815  2.96590392449245 -0.04237467696770
 1 -12.51351331623162 -1.53123404620462 -1.12523602450245
 1 -13.43603590269027 -0.17203991449145 -1.39589534393439
 1 -12.99299449864987 -1.73383704580458 -3.61537249534953
 1 -12.36387679337934 -0.28461693299330 -3.79361834023402
 1 -11.21322616201620 -1.51811283848385 -3.21742002020202
 1 -9.03628824742474 -4.42858935973597 -1.90001606460646
 1 -8.07066145134513 -5.57145309860986 -0.95088504360436
 1 -9.73396757575758 -4.84300274867487 -0.42987525622562
 1 -3.31806932543254 -3.50268687428743 -0.44862260036004
 1 -1.46455984358436 -4.63948616201620  3.17593931153115
 1 -3.05719215651565 -5.33928345324532  3.70881191889189
 1 -1.86492701320132 -6.27582836763676  2.53868722982298
 1  2.31097915271527 -1.80312693549355 -1.59715116381638
 1  2.60453689498950 -0.12963487868787 -1.98385944344434
 1  4.41799228592859 -1.21827024082408  0.25756715691569
 1  4.10707601910191  0.90601614431443 -2.60594107980798
 1  5.50077700990099  2.03188361226123 -2.07786522492249
 1  5.48662823132313  0.46150734163416 -3.11865812271227
 1  6.71283946784679  1.43308328892889 -0.06950733683368
 1  6.35664353645365 -0.20011734843484  0.81156735223522
 1  7.55669779257926 -1.48143881688169 -0.96695145234523
 1  7.95465802430243 -0.00751164816482 -2.06921774467447
 1  8.93904994929493  1.00716021352135  0.10237266536654
 1  8.72267538833883 -0.68210656335634  0.82844896829683
 1  10.33884851665167  0.11541768956896 -1.70107526552655
 1  9.56638624772477 -2.04488277177718 -2.01230961286129
 1  11.26005514611461 -2.23008640794079 -1.47315267336734
 1  9.82681487858786 -2.77277139183918 -0.28369576327633
 1  11.45367700930093  0.91826826022602  0.37293506430643
 1  11.28753634913491 -0.61607290489049  1.40632695279528
 1  12.90090804330433 -1.54305172447245 -0.60839311081108
 1  12.62546837673767  0.22425736173617 -1.54355868956896
 1  13.97115853615361  1.24799016231623  0.27383221192119
 1  13.74949325992599 -0.56627300620062  1.26812918691869
 1  15.26200660206021  0.43860725772577 -1.46540780958096
 1  15.82830662746275 -1.99544888608861  0.05618748324833
 1  14.89697134153415 -1.94341886188619 -1.53557493099310
 1  16.56562484208421 -1.68175907290729 -1.59471598489849
 1  15.95047832133213  1.30893922762276  1.01344726102610
 1  16.66074015181518 -0.30422670747075  1.10788928362836
 1  18.12663940164017 -0.34026054005401 -0.72998319391939
 1  17.65224253385339  1.47406630073007 -1.16491223482348
 1  18.46035509240924  2.32905417341734  1.17670961776178
 1  18.95997195969597  0.95238007750775  1.81388463396340
 1  20.67371720402040  0.30580157775778  0.03895978817882
 1  19.80087690619062  3.06072684918492 -1.03302548724872
 1  21.40509431023102  2.16572771487149 -1.52590057125713
 1  19.94085248284829  1.49711000120012 -1.91089947434743
 1  21.22635648914891  1.45725136603660  2.17899156795680
 1  22.14864275707571  2.11875234593459  1.10931758535854
 1  20.85688576707671  3.04935105230523  1.63123025972597

