%nproc=4
%Mem=2GB
# td=(NStates=1) CAM-B3LYP/6-31G(d,p) 

TD

0 1
12 -7.12428300130013  0.56185493359336  0.03614130153015
 6 -4.92000661866187 -1.96890806920692  0.53525005770577
 6 -4.84665459435944  2.78001644894489  1.16750311521152
 6 -9.40198493399340  3.14659015451545 -0.42633549324932
 6 -9.50260057375738 -1.80147565856586 -0.84878130723072
 7 -5.06506993159316  0.43850366846685  0.76532695099510
 6 -4.29866957305731 -0.77801762376238  0.75989401260126
 6 -2.91322032743274 -0.48511793749375  1.28003835803580
 6 -3.05884932333233  1.12107477577758  1.68874960566057
 6 -4.38803579847985  1.50067081588159  1.16655368526853
 6 -2.96006108820882  1.34832712081208  3.20370177907791
 6 -1.93927738873887 -0.68416367776778  0.15447940624062
 6 -0.48642606520652 -0.46542088928893  0.64381851115112
 6  0.45775691289129 -0.72421593449345 -0.41414679517952
 8  0.32233347344734 -0.96235164276428 -1.60792712441244
 8  1.77816962746275 -0.56960435683568  0.04134734583458
 7 -7.05170561846185  2.62490808060806  0.28856755225523
 6 -6.11024030303030  3.34672564836484  0.68178171177118
 6 -6.43623087618762  4.81149543894389  0.77045773297330
 6 -7.63966667366737  4.78637926942694  0.30805919721972
 6 -8.07717198879888  3.48874807010701  0.02265481178118
 6 -5.52881083778378  5.91654412031203  1.26315107560756
 6 -8.56428422602260  5.96474750845085  0.15484246964696
 6 -8.49103299459946  7.04685080368037  0.87010326012601
 7 -9.12172444504450  0.66077893899390 -0.60630466416642
 6 -9.85490174987499  1.78273822692269 -0.78536486058606
 6 -11.14934403100310  1.56078441754175 -1.21661338083808
 6 -11.17352975687569  0.10643600770077 -1.27520623462346
 6 -9.91437711841184 -0.40167214151415 -0.89369438553855
 6 -12.28362718641864  2.45621619261926 -1.64794156895690
 6 -12.37467201350135 -0.70023743384338 -1.73526433493349
 6 -12.22225971437144 -1.04281669286929 -3.30686580518052
 7 -7.16823629192919 -1.34921453505351 -0.20581525852585
 6 -8.20071031083108 -2.23469864196420 -0.47206216141614
 6 -7.98960510611061 -3.63857212471247 -0.35755303260326
 6 -6.54226811091109 -3.54847918491849 -0.08563029492949
 6 -6.19493208960896 -2.17720600190019  0.04305710991099
 6 -8.80931839923992 -4.86417926032603 -0.71819029742974
 6 -5.38697316761676 -4.35584946844684  0.18446131873187
 8 -5.18895773367337 -5.54930941434143  0.23262029272927
 6 -4.14485806520652 -3.30088587838784  0.48863872917292
 6 -3.54988561946195 -3.66108132943294  1.86553692659266
 8 -3.68088968956896 -3.10333706990699  2.86472915401540
 8 -2.64494568826883 -4.74543926632663  1.69334791569157
 6 -2.07686827472747 -5.22272650175017  2.85991092659266
 6  2.77728023972397 -0.70586838143814 -1.12024322472247
 6  4.10657274627463 -0.44166234253425 -0.44019416841684
 6  5.01776526092609  0.35812207760776 -0.95409518221822
 6  4.96797522052205  1.10826347564756 -2.15072923822382
 6  6.41093542634263  0.40800265046505 -0.20144662986299
 6  7.59943748164816 -0.07477782468247 -1.05517246774677
 6  8.89257112971297  0.07189205880588 -0.13053486628663
 6  10.17041766626663 -0.43834090579058 -0.90063103360336
 6  9.99630633083308 -1.94671560766077 -1.24104756975698
 6  11.41114399129913 -0.26770055085509 -0.02663179457946
 6  12.69310421812181 -0.40056410751075 -0.75965598849885
 6  13.86282575097510  0.12025082228223  0.15261232873287
 6  15.34295041994199 -0.09051278037804 -0.54404264406441
 6  15.65638730763076 -1.56410404420442 -0.89540915861586
 6  16.45257936383639  0.42648700870087  0.46003051025103
 6  17.91619620902090  0.56248764716472 -0.09570538513851
 6  18.89684005350535  1.38744696169617  0.76218665166517
 6  20.30517918711871  1.19905023852385  0.19226398959896
 6  20.38702005580558  1.81111940914091 -1.20547153985399
 6  21.28294922572257  1.84459739603960  1.19308467186719
 1 -4.25238672317232  3.45931145254525  1.72265685258526
 1 -10.25046543924392  3.94994582958296 -0.41724711621162
 1 -10.12022531193119 -2.52682202300230 -0.99334598679868
 1 -2.77517397429743 -1.08336665056506  2.10470116131613
 1 -2.12853645884588  1.63686726932693  1.29325997639764
 1 -1.96064052155215  1.19925037793779  3.62825653915392
 1 -3.07147220722072  2.44211826932693  3.35182734813481
 1 -3.68294173687369  0.67615229922992  3.98777118991899
 1 -1.93948643354335 -1.75531549194919 -0.29353326252625
 1 -1.92583425592559 -0.01137388698870 -0.72321236083608
 1 -0.39637315471547  0.50530514441444  0.87770816991699
 1 -0.10065786778678 -1.01466598179818  1.43590754595459
 1 -5.43792256765677  6.78582722682268  0.41042675187519
 1 -6.06745373477348  6.21807517061706  2.17512380948095
 1 -4.33808776477648  5.61992315871587  1.34531770737074
 1 -9.36357841034103  5.96521266936694 -0.76787701590159
 1 -9.06460767666767  7.93207394629463  0.70840046184618
 1 -7.77897736353635  6.96035243474347  1.76817520302030
 1 -12.30061416651665  3.02935326132613 -2.68640164486449
 1 -13.24414408360836  2.22557644884488 -1.65334652615262
 1 -12.17138886998700  3.27219587428743 -0.74507575157516
 1 -12.33467824622462 -1.65516496159616 -1.08121307620762
 1 -13.32329104800480 -0.39954669146915 -1.63880940844084
 1 -13.03063941654165 -1.85886057225723 -3.49657954245425
 1 -12.19786335053506 -0.17357189478948 -3.92886638233823
 1 -11.25094137343734 -1.74714958205821 -3.50233885388539
 1 -9.18469807280728 -4.61297204010401 -1.83222648674868
 1 -8.17329669446945 -5.83992399659966 -0.75616522952295
 1 -9.71557144204420 -5.02079710101010 -0.09868169076908
 1 -3.45789648554855 -3.38818206890689 -0.38184345584558
 1 -1.39253742024202 -4.36017245694569  3.44648756405641
 1 -2.94416402500250 -5.68022964056406  3.36169900880088
 1 -1.48235634713471 -5.98966824002400  2.47364131703170
 1  2.60478978307831 -1.80243207910791 -1.55225919091909
 1  2.46280375797580 -0.06648236863686 -1.87411056325633
 1  4.25947685328533 -1.12801501670167  0.55654887088709
 1  4.05557452095209  0.80999971037104 -2.88442681238124
 1  5.25307071877188  2.28258851775178 -2.06628309650965
 1  5.84767207480748  0.83607471497150 -2.76962569356936
 1  6.55102716561656  1.39160316031603  0.13834647744775
 1  6.42480660006001 -0.28182622002200  0.71211092779278
 1  7.57728511321132 -1.25375461066107 -1.10807213081308
 1  7.79049148504850  0.37391059915992 -2.07691061466147
 1  9.01546359795979  1.19810769576958  0.11536916911691
 1  8.46534502320232 -0.41076658285829  0.79648751245125
 1  10.27195474687469  0.11570410811081 -1.73589847934793
 1  9.18087307280728 -2.07923590009001 -2.00351627642764
 1  11.03100565626563 -2.49731651555156 -1.64983922782278
 1  9.86498938493849 -2.50921286328633 -0.39955939563956
 1  11.37547522842284  0.79596182638264  0.33617510501050
 1  11.33281633503350 -0.78707466876688  0.90575119671967
 1  12.84558787768777 -1.53908206940694 -1.07578524612461
 1  12.87942169466947  0.28069876087609 -1.55193855515552
 1  13.79592102880288  1.25666822282228  0.61886922992299
 1  13.62546529962996 -0.49947955265527  1.01492800930093
 1  15.39212250075007  0.30888037303730 -1.52906726472647
 1  15.60554799769977 -2.16382667476748 -0.09219067296730
 1  14.85551860256026 -2.02191456705671 -1.65113252835283
 1  16.69966959635964 -1.50355588048805 -1.34322579207921
 1  16.20900610131013  1.39867770147015  0.84378092239224
 1  16.53784823202320 -0.28755793089309  1.25627838903890
 1  18.27670860956096 -0.52815936333633 -0.08989232963296
 1  18.01280834533453  0.96797411631163 -1.12249582538254
 1  18.41507229982998  2.66063022072207  0.52600060536054
 1  18.72232939323932  1.01749593059306  1.72750275057506
 1  20.45428034073407  0.26596274447445  0.07228429242924
 1  19.90068417501750  2.90895445734573 -1.20104369776978
 1  21.44037828992899  1.79729638243824 -1.52846420972097
 1  19.93165707010701  1.30305211601160 -1.99420638963896
 1  21.39231520672067  1.10950906000600  2.12489210641064
 1  22.19954166046605  1.96800803050305  0.80102506880688
 1  20.75472520242024  2.78207829112911  1.40921136163616

