%nproc=4
%Mem=2GB
# td=(NStates=1) CAM-B3LYP/6-31G(d,p) 

TD

0 1
<<<<<<< HEAD
12 -7.15950652365236  0.63344209230923 -0.01090340294029
 6 -4.81588620662066 -1.89670084848485  0.51535806850685
 6 -4.77750767966797  2.87224567186719  1.02093845874587
 6 -9.43361809730973  3.14808030353035 -0.39499235893589
 6 -9.46245655935594 -1.72494800580058 -0.92761919101910
 7 -5.09986341094109  0.48594841294129  0.64025444374437
 6 -4.39632933903390 -0.67399722172217  0.76099412261226
 6 -2.91729073447345 -0.34471389708971  1.12763311751175
 6 -3.03586702510251  1.04492716101610  1.68225895659566
 6 -4.33270026492649  1.49039978877888  1.11390842074207
 6 -3.09491457355736  1.08187047514751  3.21438284718472
 6 -1.92932639363936 -0.58119338073807  0.05651961026103
 6 -0.46010343294329 -0.34914926212621  0.55328945824582
 6  0.49313045024502 -0.58494200710071 -0.58747412791279
 8  0.17110835093509 -0.96241164876488 -1.63523985568557
 8  1.78318012851285 -0.44319171557156 -0.10636742564256
 7 -7.09468991689169  2.71362695249525  0.35884457995800
 6 -6.07157643664366  3.39395037083708  0.75995952955296
 6 -6.34497175027503  4.78828311771177  0.87808849604961
 6 -7.69828253525353  4.84886551805180  0.50318871017102
 6 -8.17977224882488  3.55937513281328  0.11507405370537
 6 -5.43495145184518  5.91491395729573  1.21532629312931
 6 -8.63075087268727  6.00167120082008  0.17217420282028
 6 -8.58002189348935  7.20850696929693  0.84339058885889
 7 -9.21182345494550  0.66281914301430 -0.50189422312231
 6 -9.88034429412941  1.77252720582058 -0.62641896599660
 6 -11.25484458105811  1.43044138323832 -1.10795251475148
 6 -11.20071247514751  0.00271563566357 -1.39005771977198
 6 -9.91894757545755 -0.43349532383238 -1.00843585968597
 6 -12.33619244294429  2.34693526452645 -1.31700847564756
 6 -12.32144669096910 -0.79663707380738 -1.84358516701670
 6 -12.31016850525052 -1.15302771397140 -3.37333245184518
 7 -7.13821328962896 -1.37265687928793 -0.19670434743474
 6 -8.22033227302730 -2.17301247334733 -0.67727268246825
 6 -7.69590573617362 -3.58560682818282 -0.46819409670967
 6 -6.42093597769777 -3.57950228722872  0.00448871697170
 6 -6.11980457685769 -2.18082636393639  0.18184098829883
 6 -8.47218468586859 -4.82715555795580 -0.89838831723172
 6 -5.19802427272727 -4.39341322482248  0.19159203180318
 8 -5.12097093499350 -5.59564404780478  0.12679971067107
 6 -4.12389596899690 -3.24250003980398  0.57515738103810
 6 -3.49048967986799 -3.68150337163716  1.98707908080808
 8 -3.68910051065107 -3.11150788698870  3.04256693779378
 8 -2.59641083478348 -4.56710143254325  1.81410999189919
 6 -2.01872246014601 -5.15450968006801  3.14440937643764
 6  2.76537904960496 -0.67241503610361 -1.17828902930293
 6  4.16233832283228 -0.46154433073307 -0.62473262226223
 6  5.06196968136814  0.42676894229423 -0.97862763546355
 6  4.99163758675868  1.25788843814381 -2.20812497779778
 6  6.40884521732173  0.45065691589159 -0.24682116731673
 6  7.52721025892589 -0.25672601950195 -0.98777572807281
 6  8.90934280688069 -0.31309644004400 -0.16976878967897
 6  10.22338296279628 -0.65739281098110 -0.90764173467347
 6  10.07729442964296 -2.22228316441644 -1.24242770777078
 6  11.43297617451745 -0.33086686748675 -0.03037216861686
 6  12.70000490819082 -0.69144319541954 -0.69836985988599
 6  13.93621308970897 -0.14738594139414  0.10427749524952
 6  15.35458158305831 -0.25670940004000 -0.53256149594959
 6  15.69742141104110 -1.78159579337934 -0.67334695239524
 6  16.37110121602160  0.48618297829783  0.39693420062006
 6  17.75792038143814  0.53513491189119 -0.18781459605961
 6  18.76100647014702  1.24708292529253  0.66734716771677
 6  20.19925859505950  1.45542587608761  0.13214797799780
 6  20.21967332113211  2.33508180538054 -1.06188718141814
 6  21.08110904170417  1.95158809510951  1.29795515891589
 1 -4.09945142964296  3.53548907030703  1.47846243314331
 1 -10.09487988068807  3.89406024102410 -0.58863425492549
 1 -10.17892118151815 -2.46233557435744 -1.21033768596860
 1 -2.88162461936194 -0.78205651955196  2.04371506270627
 1 -2.33078668386839  1.66932051465147  1.02915356575658
 1 -2.17619207670767  0.57759821272127  3.40790450395040
 1 -3.07092215221522  2.04085814331433  3.87081924732473
 1 -3.88795223792379  0.47670235423542  3.75575798859886
 1 -2.13941642654265 -1.63024298469847 -0.45182909210921
 1 -1.96324799729973 -0.06658940854085 -0.70098013761376
 1 -0.19023254065407  0.71458607250725  0.78248864796480
 1 -0.32692049404941 -1.01791630683068  1.36339029422942
 1 -5.68711748714871  6.96473511761176  1.10935664486449
 1 -5.23034002340234  5.97896125922592  2.28688498559856
 1 -4.43997795379538  5.83794496089609  0.93115629122912
 1 -9.47419947244724  5.89166531463146 -0.47747797599760
 1 -9.27483869976998  8.11744248314831  0.65780540234023
 1 -7.80521998779878  7.65485188468847  1.53762214771477
 1 -12.26141024612461  3.04071439743974 -2.30875388008801
 1 -13.38021769096910  1.79433332453245 -1.34213540504050
 1 -12.23070480158016  3.23621227592759 -0.51525276927693
 1 -12.39746452485249 -1.81613105820582 -1.23848880378038
 1 -13.10679939883988 -0.29097583438344 -1.30497602510251
 1 -12.97208356095610 -1.94314900110011 -3.63284316881688
 1 -12.57519108330833 -0.20366490409041 -3.98214170987099
 1 -11.34371065036504 -1.53532839993999 -3.69233785378538
 1 -8.56168577157716 -4.77265800870087 -1.94965822992299
 1 -7.97352671747175 -5.68021802600260 -0.69841945494549
 1 -9.40691057595760 -4.97404242554255 -0.40977279987999
 1 -3.33583427932793 -3.08838208890889 -0.02998827032703
 1 -1.55387355385539 -4.19372581228123  3.34744766006601
 1 -2.61255086368637 -5.18703032063206  3.84346718561856
 1 -1.27545565706571 -5.90130940414041  2.71518547144714
 1  2.78475777987799 -1.91459329522952 -1.33507747274727
 1  2.65886336393639  0.00018429802980 -2.22963611581158
 1  4.26733763936394 -0.96607882308231  0.42944616061606
 1  3.95122408590859  1.35690440084008 -2.65371374107411
 1  5.21080649234923  2.27771803070307 -1.98071453965397
 1  5.68783609120912  0.79066017351735 -2.96932566356636
 1  6.87058912181218  1.34154815481548  0.28283092589259
 1  6.30701482088209 -0.31559959735974  0.71028074477448
 1  7.24510189488949 -1.41870110531053 -1.11691301490149
 1  7.82772520842084  0.20912412051205 -2.02359528312831
 1  9.23387543914391  0.86341422642264  0.23704133633363
 1  8.74439292799280 -0.85643114931493  0.68794665836584
 1  10.10994854625462 -0.29962742504250 -1.60602549204921
 1  9.07798278377838 -2.35762373887389 -1.74897082188219
 1  11.09658221392139 -2.59246603050305 -1.73474771867187
 1  9.97058994499450 -2.59203114511451 -0.32231167086709
 1  11.45396307720772  0.90574280448045  0.03544503200320
 1  11.29291234463446 -0.86816277757776  1.00399102070207
 1  12.82282560146015 -1.80223838503850 -0.79893756135613
 1  12.71687544004400 -0.15420472947295 -1.76057941924192
 1  13.91047248394840  0.86054861086109  0.59526686968697
 1  13.95205795889589 -0.69869947464746  1.14754127062706
 1  15.41422471097110 -0.09568008300830 -1.54317867586759
 1  15.76478392129213 -2.21329162126213  0.43616216231623
 1  14.79622267296730 -2.42098447404740 -1.25648306340634
 1  16.47608723812381 -2.22747827272727 -1.43877534703470
 1  16.07796299699970  1.50443827752775  0.42863940824082
 1  16.34517896509651  0.22326315121512  1.45372813401340
 1  18.08491943064307 -0.48484503190319 -0.52533587398740
 1  17.66513357785779  1.01111843074307 -1.13375695149515
 1  18.24501529412941  2.18377253495350  0.80548855415542
 1  18.59692685298530  0.44789897089709  1.54079407970797
 1  20.66176108880888  0.44731087928793 -0.13991692769277
 1  19.51540564716472  3.16109967186719 -0.93316691009101
 1  21.22081633373337  2.80657731053105 -1.23736509980998
 1  19.76150005440544  1.80348215901590 -2.06236320532053
 1  20.78068404360436  1.12887099619962  2.01969158635864
 1  22.11006271257126  2.09301053075308  0.88581354765477
 1  20.80422015191519  3.01812189548955  1.68347878837884
=======
12 -7.08026859985999  0.61946069416942  0.05417310471047
 6 -4.71039565756576 -2.01109228762876  0.58827536023602
 6 -4.86398632753275  2.80502895019502  1.18838520342034
 6 -9.51205594109411  2.99683517901790 -0.19939279897990
 6 -9.50208052175218 -1.74149966096610 -0.85761219031903
 7 -5.07169059365937  0.33820363846385  0.75620603890389
 6 -4.22817252335234 -0.77808763076308  0.87419544274427
 6 -2.85768477387739 -0.45946537223722  1.28045840004000
 6 -2.92816625502550  1.12167483578358  1.64419515021502
 6 -4.33564055895590  1.41951270007001  1.24216124602460
 6 -2.83865894799480  1.42181446954695  3.13388479737974
 6 -1.90434389538954 -0.49545480688069  0.10784474277428
 6 -0.44061148374838 -0.27367171437144  0.47012114141414
 6  0.43981511871187 -0.51315482838284 -0.60954633513351
 8  0.16961820192019 -0.84005941354135 -1.73922025372537
 8  1.71826363686369 -0.36464386078608 -0.15406219511951
 7 -7.14241468936894  2.62180777057706  0.31149984548455
 6 -6.00651993099310  3.31244222002200  0.71106464006401
 6 -6.36832408550855  4.78420270967097  0.71133182038204
 6 -7.67526023302330  4.82945357685769  0.20293868516852
 6 -8.15393966556656  3.50617981328133  0.02214476077608
 6 -5.43533148984899  5.85087755365537  0.92136689718972
 6 -8.44017181478148  6.06362739643964  0.08878586398640
 6 -8.55797968926893  7.02139825842584  0.95460170997100
 7 -9.17314958755876  0.64643750485049 -0.45216925062506
 6 -9.95969222892289  1.74965491859186 -0.62149847394739
 6 -11.17217631423142  1.42261060016002 -1.11184290379038
 6 -11.20878328222822  0.01626699079908 -1.34289300330033
 6 -9.87666334703470 -0.43525549984998 -0.88174319041904
 6 -12.27134595829583  2.32304287528753 -1.31135791059106
 6 -12.26130067636764 -0.80807821792179 -1.80598140664066
 6 -12.18266575497550 -1.14798720992099 -3.36386150475048
 7 -7.28112758105811 -1.43586319991999 -0.11111578857886
 6 -8.18393863366337 -2.29191436353635 -0.50565552075208
 6 -7.75488163376338 -3.61157942544254 -0.45019229652965
 6 -6.40524440854085 -3.50292462946295 -0.08437016891689
 6 -6.14030662706271 -2.11106938823882  0.15366817101710
 6 -8.60633810121012 -4.81867470987099 -0.83776225462546
 6 -5.33521799209921 -4.39771365486549  0.26661953455346
 8 -5.21774061196120 -5.56218070147015  0.06998402910291
 6 -4.11353493289329 -3.39754554435444  0.54687455275528
 6 -3.48405903680368 -3.72686790809081  1.93132350525052
 8 -3.76349795039504 -3.11637837403740  2.97612029312931
 8 -2.53492468616862 -4.67654237663766  1.77588616951695
 6 -1.94281486938694 -5.17805203430343  3.00998593409341
 6  2.75491800350035 -0.44158195279528 -1.26552775317532
 6  4.06128821782178 -0.27610578687869 -0.60306045504550
 6  5.01830531493149  0.57089335473547 -1.02249202190219
 6  5.04353277627763  1.43618626792679 -2.22371653695370
 6  6.39156348914891  0.57289914011401 -0.19892637783778
 6  7.59163670157016 -0.07784813171317 -0.98445539603960
 6  8.83700557315732 -0.02201733213321 -0.11746355915592
 6  10.04232485698570 -0.69920699239924 -0.78444941544154
 6  9.85685238543854 -2.07753868996900 -1.30218368336834
 6  11.45301817871787 -0.36478025882588 -0.10883001440144
 6  12.75518042574257 -0.40822487358736 -0.83879390229023
 6  13.94955442384238 -0.15893709650965  0.15667273477348
 6  15.30733685858586 -0.38366209530953 -0.41805004480448
 6  15.59411108000800 -1.82503013681368 -0.75619523722372
 6  16.38844295019502  0.27069142914291  0.54511901910191
 6  17.80833542294229  0.33424482288229 -0.04425023962396
 6  18.71937230673067  1.20243846084608  0.78431886488649
 6  20.15208387758776  1.34666500000000  0.24469923312331
 6  20.21919327312731  2.18274657185719 -1.09772076477648
 6  21.19335026582658  1.84950788708871  1.16854221762176
 1 -3.92206369086909  3.49970549194919  1.60040462736274
 1 -10.25599599229923  3.82387322232223 -0.48959435093509
 1 -10.16918020742074 -2.49806914771477 -1.31191784398440
 1 -2.63725018191819 -1.05758407230723  2.03327401860186
 1 -2.13255686088609  1.57709129172917  0.96656730713071
 1 -1.70888534603460  1.28882933583358  3.58587230073007
 1 -3.14809986998700  2.53867792529253  3.54703686908691
 1 -3.67809125182518  0.82967765176518  3.75750816361636
 1 -1.90372285718572 -1.38168812921292 -0.43715762496250
 1 -2.32394406690669  0.20213746414641 -0.60031007060706
 1 -0.25512903030303  0.83026764066407  0.75579597869787
 1 -0.16552435443544 -0.90758527372737  1.36809076427643
 1 -5.74028280368037  6.91107975207521  0.71297700690069
 1 -5.22935992539254  5.76382974607461  1.96125242234223
 1 -4.44610856685669  5.68271943834383  0.12135531113111
 1 -9.12537458995900  5.95069121722172 -0.82351257945795
 1 -9.29171038693869  7.81063180208021  0.86402602440244
 1 -7.96005547134714  7.07276367586759  1.82311069656966
 1 -12.19601370647065  3.02857318331833 -2.00806381108111
 1 -13.08417808700870  1.59713360456046 -1.53160435193519
 1 -12.67703943504351  2.99940859555956 -0.41087233123312
 1 -12.16895167356736 -1.74791423652365 -1.15053000790079
 1 -13.16085480438044 -0.22018875567557 -1.55202072957296
 1 -12.87916426902690 -1.77533221942194 -3.85442532703270
 1 -12.04115767996800 -0.21482602020202 -3.92166566226623
 1 -11.29771605090509 -1.80182504960496 -3.65719433943394
 1 -9.09782938593860 -4.62311305420542 -1.72860612471247
 1 -7.94644400920092 -5.73019302350235 -1.06367598059806
 1 -9.47815770067007 -4.96027104840484 -0.30120194279428
 1 -3.44731542744274 -3.74815806650665 -0.28967423892389
 1 -1.31817998449845 -4.38248468816882  3.63981689698970
 1 -2.74090369896990 -5.08305992359236  3.91404424332433
 1 -1.35818392989299 -6.19864913811381  2.91491544444444
 1  2.52066137023702 -1.33765560146015 -1.78838280328033
 1  2.77247472507251  0.29282356195619 -2.11279443164316
 1  4.19030993659366 -0.97347956315632  0.33416663266327
 1  4.08776774027403  1.38957766816682 -2.96992536223622
 1  5.03374878657866  2.43986424532453 -1.87968443664366
 1  5.85172247984798  1.35806691419142 -2.88293702470247
 1  6.55925798869887  1.55153915391539 -0.03451080828083
 1  6.18606272567257 -0.12100013741374  0.86771648834884
 1  7.19630701540154 -1.01162039723972 -1.23732505610561
 1  7.83027546344635  0.56980018811881 -1.91118404200420
 1  9.15422747434743  1.00040792579258  0.18231586378638
 1  8.51951043974397 -0.55133063926393  0.64668253195320
 1  10.18812636403640 -0.07273473577358 -1.80208509800980
 1  9.17276226172617 -2.24357233373337 -2.00001592639264
 1  10.87911046674667 -2.35726251015101 -1.75883012691269
 1  9.64785767176718 -2.74374631663166 -0.42773221292129
 1  11.39224690559056  0.42970520072007  0.54170565806581
 1  11.69977303070307 -1.17847380868087  0.78053867546755
 1  12.67313063196320 -1.31659982118212 -1.27280494809481
 1  12.67840159265926  0.30958164916492 -1.71661502280228
 1  13.79298073477348  0.70685324132413  0.88527587058706
 1  13.75007776087609 -1.04832443714371  0.90251676817682
 1  15.50525381388139  0.42096158115812 -1.18980333833383
 1  15.70824826772677 -2.48441873397340  0.13084163026303
 1  14.72780583128313 -2.11698407400740 -1.40796821192119
 1  16.60875050445045 -1.92624814971497 -1.10266173567357
 1  15.84183938463846  1.16010384408441  0.66434297859786
 1  16.27540198739874 -0.28460763586359  1.57018978017802
 1  18.09808074677468 -0.71526807420742 -0.35255859625963
 1  17.57360442494249  0.73059037793779 -0.99127270307031
 1  18.18087888048805  2.21943610131013  0.76399440474047
 1  18.81809897019702  0.80427460846085  1.69544954525453
 1  20.63332824552455  0.39174532273227 -0.19140207620762
 1  19.91142524912491  3.21961552345235 -1.06281987538754
 1  21.15334958705871  2.12583923672367 -1.64596595989599
 1  19.53102700710071  1.71821363216322 -1.77215418441844
 1  20.99701567676768  1.48111622072207  2.17989760696070
 1  22.21032273857386  1.75349657935794  0.58380334663466
 1  20.75740547044705  2.77859794309431  1.45454589508951
>>>>>>> 8e03b5b5abfc0030b3aa597dc0de36371bfbd096

