%nproc=4
%Mem=3GB
# td=(NStates=1) iop(3/107=0140000000,3/108=0140000000) CAM-B3LYP/6-31G(d,p) 

TD

0 1
12 -7.10908560026003  0.52187057055706 -0.06243987398740
 6 -4.96163497999800 -1.95686291689169  0.54706010841084
 6 -4.73606963756376  2.82288100600060  1.21373147834783
 6 -9.38590535503550  3.11606915991599 -0.35978845414541
 6 -9.50857695569557 -1.69313107880788 -0.84918172307231
 7 -5.17766479767977  0.41396748734873  0.56344416841684
 6 -4.39044129142914 -0.67896904010401  0.77684557925793
 6 -2.94863108370837 -0.41742014001400  1.20833650275028
 6 -3.03572679957996  1.07963666526653  1.64850112941294
 6 -4.41328156285629  1.49438408950895  1.04307870177018
 6 -3.05555173597360  1.20734355365537  3.15879119371937
 6 -1.83156888658866 -0.56475246444644  0.08563237353735
 6 -0.47678338753875 -0.25491873987399  0.56977035933593
 6  0.53805572877288 -0.73015963786379 -0.43242303240324
 8  0.22067228402840 -1.13419719741974 -1.53314070717072
 8  1.86859545794579 -0.56676661506151 -0.10859624722472
 7 -6.95648329172917  2.60550376027603  0.19233015711571
 6 -6.00054019781978  3.40878464586459  0.78442431853185
 6 -6.36541144954495  4.80738760236024  0.80868912761276
 6 -7.66824160946095  4.91409321452145  0.36737286368637
 6 -8.06205573307331  3.44446138493849 -0.02672467386739
 6 -5.33411544544454  5.76388586228623  1.31524167936794
 6 -8.54327433543354  6.01015128472847  0.10002061456146
 6 -8.29828823882388  7.25211436113611  0.56719077837784
 7 -9.17265630673067  0.68545553995400 -0.55151172507251
 6 -9.83920140644064  1.79852317661766 -0.66614942844284
 6 -11.16318027072707  1.53108255275528 -1.04407926762676
 6 -11.22518200540054  0.13821136693669 -1.15253528182818
 6 -9.92947055065506 -0.37829802320232 -0.93814601590159
 6 -12.28302924062406  2.52106734813481 -1.29952940564056
 6 -12.46262005490549 -0.75088121192119 -1.50335966656666
 6 -12.48221012991299 -1.17737793009301 -3.05772642384238
 7 -7.26530949334933 -1.37264209990999 -0.22851552665267
 6 -8.31880620692069 -2.22456100160016 -0.52612419231923
 6 -7.88907094689469 -3.58571912331233 -0.51372167196720
 6 -6.51155894639464 -3.49642262436244 -0.17975005670567
 6 -6.22477620932093 -2.20767872367237  0.00618245364536
 6 -8.67061940144014 -4.87791388978898 -0.86322970607061
 6 -5.34029949284928 -4.41932549594959  0.22002697679768
 8 -5.15210620292029 -5.58608546554655  0.16024197279728
 6 -4.19563406600660 -3.30630807820782  0.48344666626663
 6 -3.51894607140714 -3.60525846854685  1.89365533403340
 8 -3.74575735913591 -3.04897225512551  2.93323668186819
 8 -2.66190154295430 -4.69444806330633  1.74939397689769
 6 -2.05763472047205 -5.05209041494149  2.89150655105511
 6  2.83445976637664 -0.85979426832683 -1.11974549174917
 6  4.21818270347035 -0.63153842174217 -0.54400696349635
 6  5.06933242454245  0.32318884688469 -0.95978885588559
 6  5.08991271687169  1.26386406170617 -2.08020215521552
 6  6.38742502120212  0.31712232823282 -0.04175469986999
 6  7.54158561116112 -0.10617916591659 -0.94538486718672
 6  8.99532724432443 -0.03730554665467 -0.17881398379838
 6  10.27925338593859 -0.47678934213421 -1.03179889988999
 6  10.07597087368737 -1.90267814771477 -1.60473743974397
 6  11.43104776857686 -0.22112700380038 -0.16934489698970
 6  12.75847358285829 -0.58031806530653 -0.79147665276528
 6  13.92083335513551  0.00134442014201  0.18800521212121
 6  15.29550554155415 -0.14191327492749 -0.53615926842684
 6  15.64752102310231 -1.57363575187519 -0.99144097039704
 6  16.32859985268527  0.36936345364536  0.43662839753975
 6  17.77389497719772  0.56117984758476 -0.24689121612161
 6  18.72050246884688  1.26349442794279  0.78840209690969
 6  20.14406721112111  1.26435586808681  0.33407011301130
 6  20.41634448024802  2.18112541764176 -0.84827952385239
 6  21.13799886688669  1.74823652355236  1.45879981998200
 1 -4.05034539803980  3.42651590299030  1.65061115691569
 1 -10.15832795609561  4.01979425392539 -0.30683520972097
 1 -10.30803522762276 -2.48887442254225 -1.14246206560656
 1 -2.61871915911591 -1.10655085778578  2.04332082278228
 1 -2.14915838213821  1.60672273337334  1.23089673867387
 1 -2.19450253665367  0.60607971437144  3.60253059045905
 1 -3.18011512061206  2.34423364616462  3.60965898809881
 1 -4.02037483798380  0.49864501880188  3.47380906610661
 1 -1.83866898589859 -1.53420409120912 -0.42816082318232
 1 -2.27252362136214  0.20612823262326 -0.63152988758876
 1 -0.41724715341534  0.95432501980198  0.95937980098010
 1 -0.19596801710171 -0.95985675227523  1.51273473177318
 1 -5.35239941764176  6.58056556855685  0.66779661096110
 1 -5.55201667296730  6.07742062346235  2.29814182668267
 1 -4.28516336093609  5.50392466046605  0.93529426202620
 1 -9.40316057585759  5.68952233423342 -0.34297565026503
 1 -9.04955401910191  8.08838855985599  0.44648442414241
 1 -7.25312324442444  7.60776761316132  1.15445440574057
 1 -12.16856732973297  3.15910505760576 -2.12012784428443
 1 -13.24106140384038  2.05791453385339 -1.45512124032403
 1 -12.52174320702070  3.19836717081708 -0.53289372887289
 1 -12.52714467936794 -1.59562048484848 -0.88667216811681
 1 -13.33159545864586 -0.14116682718272 -1.13082883728373
 1 -13.18811401060106 -1.98353201530153 -3.05067602570257
 1 -12.83048345404540 -0.20340881218122 -3.70433941234123
 1 -11.53648848824882 -1.37889891709171 -3.50664894309431
 1 -9.25325994459446 -4.57239374017402 -1.77875393839384
 1 -7.88683306850685 -5.63451940524052 -1.17320727582758
 1 -9.56685086408641 -5.25672412081208  0.13401113241324
 1 -3.54063158165817 -3.57150375597560 -0.24262200030003
 1 -1.10027341494149 -4.28946115951595  3.16906862446245
 1 -2.68245468276828 -5.21365088998900  3.73077411511151
 1 -1.64317483798380 -5.85485627042704  2.55716907800780
 1  2.82572062686269 -1.89023564636464 -1.44576602530253
 1  2.43086952825283 -0.25040695589559 -1.94975603310331
 1  4.46408689538954 -1.24896331013101  0.21747314751475
 1  3.98180349184919  1.39366490919092 -2.49342982868287
 1  5.39595652785279  2.14960538443844 -1.67413485188519
 1  5.79159872837284  0.72674386528653 -2.89427568446845
 1  6.53294147804781  1.26240622122212  0.06546616051605
 1  6.38179605170517 -0.03635097179718  0.88692488798880
 1  7.38905102790279 -1.06932760576058 -1.23177793499350
 1  7.68825138363836  0.44113321632163 -1.76654747764776
 1  9.15425146944694  0.91930142764276  0.26922935103510
 1  8.88915203600360 -0.96133448614861  0.56646276967697
 1  10.21130576237624  0.12323847164716 -1.77285244324432
 1  9.16860646974697 -2.09780806430643 -2.34248263016302
 1  10.91714085468547 -2.20529392869287 -2.14861021912191
 1  9.93018521562156 -2.61489560426043 -0.91270866456646
 1  11.30422206380638  0.80171660506051  0.13283105390539
 1  10.99063665916592 -0.62116341394139  0.78205452555255
 1  12.89946789928993 -1.76032345164516 -0.79602187368737
 1  13.13282911281128 -0.13542860686069 -1.75193952765276
 1  13.67470889118912  1.02480784408441  0.21015584428443
 1  13.95418372897290 -0.52632901180118  1.10762313631363
 1  15.28092849424942  0.32307570457046 -1.44946621542154
 1  15.45510930773077 -2.44082342354235 -0.28201633713371
 1  14.96058770317032 -1.98053257325733 -1.62336370987099
 1  16.71779005860586 -1.83869476647665 -1.31225773907391
 1  15.97683095659566  1.40915924962496  0.84457037333733
 1  16.39323340114012 -0.33676996179618  1.51565005970597
 1  18.22072881058106 -0.42344885888589 -0.47759795539554
 1  17.64711202080208  1.13269216331633 -1.21943768736874
 1  18.36113517041704  2.37916918491849  0.93378532533253
 1  18.63185914841484  0.70398523802380  1.75809905540554
 1  20.20610044234423  0.19995099269927  0.05811170337034
 1  19.80627744624462  3.02451322782278 -0.59450163486349
 1  21.64527832863286  2.10803194529453 -1.17590557175718
 1  19.78845724332433  1.63314360456046 -1.87993637803780
 1  21.04541839533954  1.17284292519252  2.32738640744074
 1  22.21467936073607  1.86847731843184  1.04638129172917
 1  20.92324240274028  2.84675079227923  1.65380251695170

