%nproc=4
%Mem=2GB
# td=(NStates=1) CAM-B3LYP/6-31G(d,p) 

TD

0 1
<<<<<<< HEAD
12 -7.07374794779478  0.61799054715472  0.06936462386239
 6 -4.82353697169717 -2.00759193759376  0.51737827052705
 6 -4.84866479537954  2.78921736903690  1.20746711161116
 6 -9.39501423692369  3.02044754025402 -0.49030188988899
 6 -9.38377869156916 -1.74183969496950 -1.00904733383338
 7 -5.00932435703570  0.42122194029403  0.81396181448145
 6 -4.34215392149215 -0.76367618961896  0.97656567976798
 6 -2.85432443784378 -0.43245267096710  1.37467782198220
 6 -3.03367680608061  1.05453812211221  1.77699843054305
 6 -4.39115611051105  1.44239498829883  1.28423545344534
 6 -3.04409949204921  1.34971725982598  3.23822523142314
 6 -1.90023348434843 -0.63302856425643  0.19253321162116
 6 -0.45973339593959 -0.43880822802280  0.63347747704771
 6  0.46500763796380 -0.65615912881288 -0.61194657515752
 8  0.06468770887089 -0.91646705430543 -1.77118345004500
 8  1.78076988748875 -0.47193458985899 -0.23709049794980
 7 -7.20594104200420  2.59013460326033  0.29188788428843
 6 -6.08600787978798  3.32792376817682  0.76243977757776
 6 -6.37324457755776  4.71164545394539  0.68784947214721
 6 -7.64025673267327  4.93559419091909  0.34540293159316
 6 -8.18847311891189  3.49305850115012 -0.08809626332633
 6 -5.47000495719572  5.79128159405941  1.17342210271027
 6 -8.56745454305431  6.04552558625863  0.12161914731473
 6 -8.57646153745375  7.10706682528253  0.81343759355936
 7 -9.08658093069307  0.67847070817082 -0.59369340304030
 6 -9.87668392809281  1.69275922902290 -0.65663198729873
 6 -11.20447954455445  1.40925926502650 -1.17550927042704
 6 -11.31338374227423  0.08909427352735 -1.29745845984598
 6 -9.85664134483448 -0.35142711701170 -1.02628764486449
 6 -12.26424524822482  2.44352492349235 -1.47674444924492
 6 -12.33343789008901 -0.79523693379338 -1.88445925442544
 6 -12.07156464486449 -1.15276768796880 -3.31128624722472
 7 -7.18325779407941 -1.32953256685669 -0.23074775177518
 6 -8.20318055785579 -2.17234240634063 -0.59838479367937
 6 -7.81556770237024 -3.60925919341934 -0.48708598589859
 6 -6.53861774587459 -3.48660299729973  0.03979224732473
 6 -6.15569816621662 -2.14611289258926  0.17779058325833
 6 -8.54916238363836 -4.83877672007201 -0.83535201360136
 6 -5.37428189848985 -4.36030991449145  0.26126899949995
 8 -5.35948478637864 -5.55335981938194  0.17830486118612
 6 -4.18113169256926 -3.32693848364836  0.59123898919892
 6 -3.48172880378038 -3.70815603690369  1.96309668256826
 8 -3.64424602520252 -3.07705444164416  2.97166984808481
 8 -2.65041623532353 -4.68929365176518  1.76244482538254
 6 -1.95084567246725 -5.25290952005200  2.86392132763276
 6  2.79807231893189 -0.63610140474047 -1.32458365876588
 6  4.05742783178318 -0.38247642394239 -0.52258240724072
 6  5.09530301470147  0.36479274467447 -0.88086785948595
 6  5.05569399239924  1.29973262256226 -2.11172533783378
 6  6.34598893169317  0.40013186338634  0.00136365116512
 6  7.71045858375838  0.01824147724772 -0.93781073157316
 6  8.85591746434643 -0.06406153655366 -0.08227003980398
 6  10.09342996749675 -0.45708277997800 -0.77904887538754
 6  10.03516021622162 -1.97040797689769 -1.19099256425643
 6  11.36684956185619 -0.08718249904990  0.02466333493349
 6  12.66855176287629 -0.35444949604960 -0.70867088998900
 6  13.87326679507951 -0.06629783258326  0.16829389688969
 6  15.29268539343934 -0.27187091619162 -0.50860910071007
 6  15.51746341524152 -1.64952258605861 -0.85070468816882
 6  16.36028013391339  0.40073443344334  0.44928943614361
 6  17.76035062446244  0.48828022642264 -0.25908172277228
 6  18.84927529702970  1.11897011401140  0.69924035703570
 6  20.22653132233223  1.19617995149515  0.10466522972297
 6  20.41664301810181  1.95342363956396 -1.20687167986799
 6  21.26865779657966  1.88935187148715  1.12592795619562
 1 -4.45244672917292  3.58598411981198  1.83230781768177
 1 -10.11969236193619  3.75003583858386 -0.44961035253525
 1 -10.13593688308831 -2.64142348314831 -1.19819647184718
 1 -2.50698715561556 -1.03789210311031  2.19496018721872
 1 -2.24287789298930  1.75752933553355  1.50694134453445
 1 -2.01948640614061  1.00996144904490  3.73205691919192
 1 -3.22627768776878  2.35082914041404  3.57723988938894
 1 -3.89958340104010  0.63997868186819  3.53373578637864
 1 -2.17539002390239 -1.63936389678968 -0.21848575777578
 1 -1.84105577807781  0.11458870927093 -0.80669070867087
 1 -0.29894341174117  0.50672528642864  1.08791919101910
 1  0.03129532753275 -1.17178169336934  1.35818977417742
 1 -5.67534631003100  6.76153479757976  0.57917362656266
 1 -5.41690868026803  6.10965432853285  2.15030132723272
 1 -4.20510446644665  5.63849501590159  0.86075925152515
 1 -9.44903695619562  5.84897104520452 -0.47298752695269
 1 -9.24920613651365  8.01615235413541  0.48986860866087
 1 -7.79464893069307  7.54357075657566  1.46632501800180
 1 -11.72448655375538  2.99408973497350 -2.21351435613561
 1 -13.11301097029703  2.01566545774577 -1.79830102160216
 1 -12.57238896999700  3.14824347904790 -0.68733997799780
 1 -12.21924670307031 -1.77189663476348 -1.30513546844684
 1 -13.29960867976798 -0.20937767456746 -1.78580410791079
 1 -12.83278963156316 -1.79263394959496 -3.67845773027303
 1 -12.18247181138114 -0.20954549214921 -4.03306680238024
 1 -11.09553583288329 -1.52861772887289 -3.30320894089409
 1 -9.03865346834684 -4.43776451935194 -1.93114637873787
 1 -8.07672703750375 -5.72086209040904 -0.92208182118212
 1 -9.51890177507751 -5.21552657395740 -0.19506132873287
 1 -3.56733742964296 -3.61862511321132 -0.17003227472747
 1 -1.08116628312831 -4.66358279797980  3.44960787608761
 1 -2.69510911951195 -5.42342395999600  3.87972081098110
 1 -1.31561967346735 -6.13297257045705  2.72201615451545
 1  2.58769807390739 -1.63837567346735 -1.60966493149315
 1  2.47882536013601  0.27740201980198 -1.94853800600060
 1  4.00624152975297 -1.05312752795279  0.37482069806981
 1  3.95074403790379  1.48382709310931 -2.49814818451845
 1  5.57796320802080  2.26815707460746 -1.91194766296630
 1  5.50856816441644  0.82159326682668 -2.85493422442244
 1  6.31007307020702  1.42513651365136  0.47994063686369
 1  6.23896801620162 -0.35871390879088  0.84180389708971
 1  7.40142752745274 -0.89459869506951 -1.51924324792479
 1  7.90541297719772  0.83854706280628 -1.55129805340534
 1  9.01663371497150  0.97117500250025  0.42706033823382
 1  8.73567205590559 -0.90122562876288  0.67456532023202
 1  10.20636818821882  0.23747628532853 -1.74117900740074
 1  9.11223620912091 -2.33799177567757 -1.86742266706671
 1  10.89390194589459 -2.20192697659766 -1.86366060996100
 1  10.17168005400540 -2.74691663366337 -0.33977341704170
 1  11.26025370627063  0.99748197839784  0.32396388388839
 1  11.16899995339534 -0.76291225252525  1.01273189478948
 1  12.90160347924792 -1.44987314851485 -0.94951261886189
 1  12.64715846834683  0.34170486148615 -1.66409977127713
 1  13.86279771647165  1.14796735273527  0.55462280528053
 1  13.61620437353735 -0.72559216391639  1.07703421992199
 1  15.42549583808381  0.41837132213221 -1.42046640464046
 1  15.44103154605460 -2.15712600470047  0.12946149224923
 1  15.01951500220022 -2.03492586818682 -1.68778619371937
 1  16.58693832323232 -1.80727625252525 -1.30160162966297
 1  15.93147834853485  1.36305413911391  0.97186373067307
 1  16.46005045224522 -0.39082825792579  1.26981974317432
 1  18.24955589428943 -0.36592313971397 -0.70356369676968
 1  17.64376144064407  1.28054537343734 -1.02668624442444
 1  18.61863265586559  2.24686884458446  0.85070307560756
 1  19.01332849314932  0.68536271727173  1.61278127842784
 1  20.79808472117212  0.25649179737974 -0.07039997599760
 1  19.84369847644764  2.97959152105211 -1.26006960036004
 1  21.55234948704870  2.02834948774878 -1.49994135743574
 1  19.82206611101110  1.30105191599160 -1.80391736073607
 1  21.10995697089709  1.27569567866787  2.12379199639964
 1  22.16965867216722  1.75920715041504  0.42981794809481
 1  21.12268199809981  2.82255233853385  1.34619506000600
=======
12 -7.13231380438044  0.59883863196320  0.13853154055406
 6 -4.91521613961396 -1.98837001540154  0.52792932563256
 6 -4.76119604850485  2.91665011231123  1.09787615251525
 6 -9.40375511101110  3.07617311281128 -0.49307216691669
 6 -9.56564687838784 -1.76610212121212 -0.84956138523852
 7 -5.12769619421942  0.40646046414641  0.72870328862886
 6 -4.33499320542054 -0.71638146014601  0.94476249944995
 6 -2.95145415081508 -0.41572099779978  1.26264661886189
 6 -3.00556399479948  1.10068273657366  1.73733446414641
 6 -4.36848384328433  1.53927467626763  1.06379340924092
 6 -2.95727080918092  1.22711499959996  3.20947235613561
 6 -1.92020548154815 -0.70736599799980  0.15071903020302
 6 -0.48760618321832 -0.49052339953995  0.60329445874587
 6  0.49127026422642 -0.67158067096710 -0.54454983548355
 8  0.17131837193719 -0.91029643724372 -1.69943627532753
 8  1.70155196569657 -0.40078747514751 -0.18294508340834
 7 -7.05286573447345  2.61416700650065  0.17103579907991
 6 -6.00935021402140  3.34454543034303  0.67860139373937
 6 -6.41109836293629  4.76533082248225  0.76992767996800
 6 -7.63742644964496  4.93083371487149  0.22604099539954
 6 -8.13595786738674  3.51905110041004 -0.08683613731373
 6 -5.51655961266127  5.78763122902290  1.38165292579258
 6 -8.46944474207421  6.08076911061106  0.08850583598360
 6 -8.33548744004401  7.20528664726473  0.86075232503250
 7 -9.12974524712471  0.62940580168017 -0.52647668136814
 6 -9.85183144284428  1.75767572067207 -0.72181850595059
 6 -11.13503259985998  1.47285562466247 -1.21338305780578
 6 -11.22647505140514  0.03496886098610 -1.21496021002100
 6 -9.93468914961496 -0.44600657495750 -0.97702271837184
 6 -12.26694551825183  2.34631520252025 -1.57009378417842
 6 -12.33365791209121 -0.72885029512951 -1.89456026452645
 6 -12.19417690609061 -1.10673308450845 -3.42242736133613
 7 -7.20408987728773 -1.37360697429743 -0.11907658465847
 6 -8.26893713351335 -2.19718489058906 -0.43972892809281
 6 -7.76570271587159 -3.58291655915592 -0.50096737403740
 6 -6.47029091319132 -3.55869020602060  0.01381965006501
 6 -6.23353594999500 -2.15740402170217  0.17199000320032
 6 -8.52026949434944 -4.82213505590559 -1.00785926432643
 6 -5.29179364966497 -4.29808369186919  0.29999287188719
 8 -5.07536637453745 -5.52591707510751  0.21413844454445
 6 -4.19388296769677 -3.33350914071407  0.52937280258026
 6 -3.51914254515452 -3.67022224352435  1.98358873177318
 8 -3.81917351795180 -3.08156489268927  2.96089877097710
 8 -2.68221941564156 -4.71502622502250  1.80872945384538
 6 -2.22131271917192 -5.24516874597460  3.05400033553355
 6  2.80231274297430 -0.68213600820082 -1.11188238863886
 6  4.07938002700270 -0.44171234753475 -0.39225937493749
 6  5.12537602200220  0.40549681508151 -0.77324709740974
 6  4.98408683168317  1.22792544184418 -2.03589775507551
 6  6.36470080288029  0.34200605080508 -0.02741922712271
 6  7.54481201910191 -0.18949929682968 -0.85262221272127
 6  8.91047291989199 -0.13849898029803 -0.11542335513551
 6  10.11289191369137 -0.61644871657166 -0.96629760026003
 6  10.00586728692869 -2.06971790789079 -1.32134559955996
 6  11.40377325422542 -0.14816859765977 -0.14031316271627
 6  12.70899580728073 -0.44287833893389 -0.77127715061506
 6  13.96765623402340 -0.08633983678368  0.10157722522252
 6  15.33716984188419 -0.10929465856586 -0.61657989778978
 6  15.74322599149915 -1.49088672247225 -1.15634525222522
 6  16.39338344424442  0.48425278527853  0.31958646584658
 6  17.75884047344734  0.44354575297530 -0.09342515711571
 6  18.71305167466747  1.26498471547155  0.75498593159316
 6  20.18089675887589  1.33617395089509  0.15138990219022
 6  20.30341169496950  2.10889918711871 -1.07098809150915
 6  21.21682261306131  1.83021595789579  1.28243360676068
 1 -4.20519200370037  3.72504802620262  1.47696228312831
 1 -10.17494788748875  4.03777461246125 -0.49850524202420
 1 -10.32263555295529 -2.54924426522652 -1.28329498169817
 1 -2.88613507040704 -0.96004431833183  2.13650434163416
 1 -2.18106171137114  1.86358994159416  1.14101475187519
 1 -1.90769522702270  1.23509396229623  3.45223893739374
 1 -3.25813087308731  2.28435249274927  3.50408257365737
 1 -3.71318476117612  0.73763844784478  3.70192260506051
 1 -2.13544602950295 -1.67074703510351 -0.20861477067707
 1 -2.20091176367637 -0.04780753035304 -0.61133117271727
 1 -0.26512002940294  0.52176679057906  1.37914831393139
 1 -0.17070487248725 -1.47214172937294  1.34454841004100
 1 -5.78494727012701  6.75007365146515  0.71675738493849
 1 -5.80438742814281  5.95734909800980  2.44404070117012
 1 -4.33952790879088  5.72055322172217  1.33595677127713
 1 -9.31449350185019  5.99835598369837 -0.41053128132813
 1 -8.99878109400940  7.99341007990799  0.73625324712471
 1 -7.45370483628363  7.34789118861886  1.56930531603160
 1 -11.61671577667767  3.07481780778078 -2.29409241394139
 1 -13.01103077227723  1.68654254545455 -1.95950714221422
 1 -12.88257998909891  2.74169282398240 -0.68412965696570
 1 -12.38243302170217 -1.64020346544654 -1.51442639753975
 1 -13.20862958185818 -0.34842157895790 -1.75559108660866
 1 -12.94391074367437 -1.76335102130213 -3.59445933043304
 1 -12.24556812101210 -0.16444098169817 -4.02936643234323
 1 -11.37802408170817 -1.73138800590059 -3.54849346934693
 1 -9.10394999799980 -4.40066080898090 -2.07729099319932
 1 -7.93374273907391 -5.81202120632063 -1.24362397539754
 1 -9.28276816171617 -5.38868388968897 -0.22510433303330
 1 -3.46645734163416 -3.63678692939294 -0.22988826032603
 1 -1.57684585108511 -4.62870931063106  3.64932784808481
 1 -2.86142575117512 -5.61796341394139  3.72229506840684
 1 -1.49653776527653 -6.02244151735174  2.84547850075008
 1  2.80195950005001 -1.72857469336934 -1.33053701870187
 1  2.63871134873487  0.02506678627863 -2.06054920712071
 1  4.39642054765477 -1.20266248144815  0.40098331433143
 1  4.06558552205221  1.35153386378638 -2.47125549524953
 1  5.13343875557556  2.38240849974998 -1.78003447164716
 1  5.63313062066207  0.84393550105011 -2.71361009200920
 1  6.82227429032903  1.44872887288729  0.39766240904090
 1  6.27022114151415 -0.25764380178018  1.10191990869087
 1  7.51603898859886 -1.17052628782878 -1.08301962556256
 1  7.68777121302130  0.27223043114311 -1.85592851645164
 1  8.89411146274627  0.87094497949795  0.31559919211921
 1  9.13048153685369 -0.80810631683168  0.80983884758476
 1  10.11574912631263 -0.16889435173517 -2.08103299279928
 1  9.22974796029603 -2.28886686318632 -1.97416334113411
 1  10.78162071777178 -2.47030381428143 -2.13236748064807
 1  10.06323920992099 -2.77424936693669 -0.39267870757076
 1  11.43782146304630  0.97279951015102 -0.04770328282828
 1  11.25781883528353 -0.50221618291829  0.78162878447845
 1  12.87101041994199 -1.63643180438044 -0.85233290089009
 1  12.63731748424842  0.07339803080308 -1.80183354465447
 1  13.85428686538654  0.75085764176418  0.57805514851485
 1  14.25499825292529 -0.93057266196620  0.98998551505150
 1  15.12983627212721  0.58954843984398 -1.53458781678168
 1  15.89100654355436 -2.22410270237024 -0.31029248314831
 1  14.96087913861386 -1.95938831443144 -1.74877229232923
 1  16.58183781318132 -1.43077860276028 -2.00596206570657
 1  16.29332453315331  1.49321715541554  0.69407595189519
 1  16.22426687388739 -0.40916009110911  1.15398816001600
 1  18.14414535323532 -0.59763631103110 -0.29847318771877
 1  17.84490155465547  0.80085740464046 -1.08899247504750
 1  18.57475826842684  2.42032619031903  0.94757276257626
 1  18.81891905220522  0.91910609160916  1.77536753705370
 1  20.48042295499550  0.22710885908591 -0.07916085208521
 1  19.97094120072007  3.20387394929493 -0.93041663506351
 1  21.29241349344935  2.23114976777678 -1.37956932023202
 1  19.63398730313031  1.65934774557456 -1.80938790779078
 1  21.24238021322132  1.42299040814081  2.33589320652065
 1  22.28586029232923  1.77098832853285  1.06707167346735
 1  20.91543127302731  2.83823390669067  1.24243468396840
>>>>>>> 8e03b5b5abfc0030b3aa597dc0de36371bfbd096

