%nproc=4
%Mem=2GB
# td=(NStates=1) CAM-B3LYP/6-31G(d,p) 

TD

0 1
12 -7.11482205520552  0.58233698179818  0.11726941434143
 6 -4.84304892289229 -1.97457863626363  0.51513804650465
 6 -4.82914284318432  2.91267971527153  1.21897826272627
 6 -9.40599533503350  3.10276577207721 -0.43556641634163
 6 -9.53630394409441 -1.73372888388839 -0.90020644974497
 7 -5.19892331693169  0.51766158425843  0.79081950025003
 6 -4.38913861996200 -0.67924774677468  0.71212923612361
 6 -3.01292029742974 -0.37821724742474  1.17013736793679
 6 -3.04294773317332  1.05109777807781  1.68254898559856
 6 -4.42067906280628  1.54465521432143  1.22414944484448
 6 -2.78969405150515  1.36676896499650  3.13957536643664
 6 -1.90762422342234 -0.65113037443744  0.07394135243524
 6 -0.52450987358736 -0.37209155635564  0.56095022432243
 6  0.55478661586159 -0.67650116301630 -0.58336371687169
 8  0.28195943604360 -0.89588499609961 -1.79886621832183
 8  1.81574338483848 -0.60955835223522 -0.15885267416742
 7 -7.21102155005501  2.62752834263426  0.37395609110911
 6 -6.12161144014402  3.30751172697270  0.87791132473247
 6 -6.53647090019002  4.83676796619662  0.79834052125213
 6 -7.74023673067307  4.90036066756676  0.29381777307731
 6 -8.21713598519852  3.47384657995800  0.03420596689669
 6 -5.52435039173917  5.86679914581458  1.15197995849585
 6 -8.63925172277228  6.08097913161316 -0.00986400100010
 6 -8.60082397369737  7.16571268986899  0.75562181198120
 7 -9.14254652725273  0.66922978407841 -0.40554458815882
 6 -9.91655791549155  1.75537549064906 -0.65971229532953
 6 -11.18886798339834  1.44248258735874 -1.04803652315232
 6 -11.17782018591859  0.12515787988799 -1.19613832783278
 6 -9.95042072277228 -0.40232220652065 -0.85343035913591
 6 -12.33015183888389  2.29843041404140 -1.50859763456346
 6 -12.36687123342334 -0.77790520062006 -1.80279108760876
 6 -12.45906339473947 -1.04259667086709 -3.24158927752775
 7 -7.27584705300530 -1.44947456105611 -0.12191686868687
 6 -8.24471471127113 -2.33420859295930 -0.65686064126413
 6 -7.80974712031203 -3.63924219171917 -0.50086736403640
 6 -6.51327521162116 -3.57924226122612 -0.03536526842684
 6 -6.20539313571357 -2.25919420072007  0.15852865706571
 6 -8.53727119451945 -4.77532037443744 -1.01019949834983
 6 -5.29197366766677 -4.28356223972397  0.21951482408241
 8 -5.06989582748275 -5.55988047144714  0.13520055075508
 6 -4.15477905730573 -3.25461125092509  0.53947381268127
 6 -3.54551518241824 -3.62044726602660  1.90519089198920
 8 -3.71861346194619 -3.10220695689569  2.92450513161316
 8 -2.75603679737974 -4.67501222362236  1.77156573747375
 6 -2.12768335623562 -5.17171140024002  3.00776571207121
 6  2.87214972667267 -0.67618541314131 -1.12720392079208
 6  4.17234932393239 -0.52300047634763 -0.46459660866087
 6  5.16665014941494  0.33101936733673 -0.83347312001200
 6  4.96568499149915  1.18642129142914 -2.12675684098410
 6  6.46026035883588  0.47138898909891 -0.27743422862286
 6  7.64145168306831 -0.11307165406541 -1.00817776827683
 6  8.87833970657066 -0.13071820222022 -0.21484329712971
 6  10.23494411891189 -0.57431450315032 -0.88111908240824
 6  10.04154085428543 -2.12954389048905 -1.30799426442644
 6  11.40872374927493 -0.33406718751875 -0.10133926532653
 6  12.81096600430043 -0.54769882098210 -0.70463048594859
 6  13.95366483488349 -0.10384158695870  0.21059812731273
 6  15.40028615351535 -0.07058078717872 -0.33878211801180
 6  15.71933360226023 -1.56885451925193 -0.90030964866487
 6  16.44203830973097  0.51214557455746  0.56506101330133
 6  17.79667425682568  0.59749114751475 -0.17271308590859
 6  18.88399876937694  1.17478569556956  0.84656508950895
 6  20.32179084828483  1.25109544304430  0.13138790199020
 6  20.36592794659466  2.02208050525053 -1.18132912561256
 6  21.26559749054906  1.92862579887989  1.18698406180618
 1 -4.14331581608161  3.66216173757376  1.58521310821082
 1 -10.07726811951195  3.87725856085609 -0.63966935843584
 1 -10.20895418481848 -2.57137647844785 -1.30259691189119
 1 -2.66258271517152 -1.02594090799080  2.01743243444344
 1 -2.25397900310031  1.47101068366837  1.15782643304330
 1 -1.78525298279828  0.90181063396340  3.43648736223622
 1 -2.73862892289229  2.49247330483048  3.25346751215121
 1 -3.67945138783878  0.66636132013201  3.78004041684168
 1 -2.05110759565957 -1.72700266066607 -0.36765067426743
 1 -2.32320399289929 -0.15736848644864 -0.93900393999400
 1 -0.18615213261326  0.70730534443444  0.84504490359036
 1 -0.24485228722872 -0.92533704890489  1.47534148934893
 1 -5.69020779617962  6.67558620272027  0.61344705390539
 1 -5.93772076147615  6.14887825092509  2.05966226332633
 1 -4.32325628162816  5.45629679607961  1.27448062366237
 1 -9.37029908240824  5.77833398149815 -0.74767499569957
 1 -9.56798801470147  7.87126786568657  0.62087170897090
 1 -8.02168163396340  7.43973037253725  1.58358674417442
 1 -11.90113421852185  2.84089441544154 -2.41379438413841
 1 -13.23162283148315  1.41506539773977 -1.78799999149915
 1 -12.68504023512351  3.04399305400540 -0.78498974297430
 1 -12.17753253165317 -1.76580602570257 -1.13498845374537
 1 -13.04746346524652 -0.12883962076208 -1.24215974347435
 1 -13.32032838543854 -1.74542922912291 -3.44024390889089
 1 -12.62047561176118 -0.07451198879888 -3.81212470817082
 1 -11.39611589088909 -1.23929879697970 -3.68893751375137
 1 -8.80322992599260 -4.56859760266027 -2.01309457355736
 1 -7.99515888068807 -5.66423642784278 -0.71160077307731
 1 -9.56592647754776 -4.87683270457046 -0.52286410901090
 1 -3.24531522742274 -3.32402565326533 -0.02949822132213
 1 -1.36711487798780 -4.45291173087309  3.57779069436944
 1 -3.02179178777878 -5.13170478807881  3.77270010891089
 1 -1.67715582708271 -6.15430470367037  2.72878683158316
 1  2.78327763186319 -1.65881771767177 -1.59681364636464
 1  2.62497997559756  0.07407168676868 -1.98606175837584
 1  4.26295720132013 -0.94472668786879  0.38662187818782
 1  3.82512147564757  1.27434614501450 -2.52283065276528
 1  5.48816422812281  2.20814107300730 -2.07442391059106
 1  5.57974528212821  0.67758886638664 -2.99550828182818
 1  6.88901096399640  1.49086308630863  0.05954859765977
 1  6.48405252465247 -0.11358939633963  0.73163287998800
 1  7.25016240094009 -1.04514374957496 -1.47724904850485
 1  7.84533696959696  0.37871107920792 -1.96972989658966
 1  9.09828187978798  0.83726161116112  0.04800243244324
 1  8.78253674237424 -0.59204471067107  0.78091595529553
 1  10.18534608600860 -0.26902436473647 -1.93210810031003
 1  9.09505449094909 -2.22345032153215 -1.88116404120412
 1  11.03357591329133 -2.36305308920892 -1.80656490039004
 1  9.99308219421942 -2.67419936193619 -0.46065550525053
 1  11.51061874277428  0.66736896709671  0.32887437493749
 1  11.52540559395940 -0.97592355365537  0.88587920952095
 1  13.02960627952795 -1.45122328352835 -1.18838650625062
 1  13.09734348684868  0.12956364736474 -1.61290465176518
 1  13.54222565926593  0.91502405840584  0.71727907090709
 1  14.08556130923092 -0.79403900860086  1.03490000650065
 1  15.39453274177418  0.42006149114911 -1.32741709970997
 1  15.83666110901090 -2.38641893399340 -0.05011646554655
 1  14.91032408310831 -1.79494186978698 -1.63529094419442
 1  16.58497812721272 -1.41845737063706 -1.45521699119912
 1  16.02750795149515  1.40679851355136  0.97140368466847
 1  16.66041048824883 -0.16136531163116  1.40338309950995
 1  18.02061300000000 -0.35027157455746 -0.58335167556756
 1  17.68578564306431  1.25391271017102 -0.88787236303630
 1  18.66365715831583  2.20858501620162  1.30770877617762
 1  19.00157731803180  0.51137531853185  1.63354335463546
 1  20.68344325702570  0.19142529072907  0.08459552355236
 1  19.83736784338434  2.82464602650265 -1.08951254465447
 1  21.45007926002600  2.06555320812081 -1.34904626792679
 1  19.94422832723273  1.37335914671467 -1.98041501050105
 1  21.20821679687969  1.30769887898790  2.15184480168017
 1  22.23581528782878  1.82552378207821  0.84708967526753
 1  21.09854958485849  3.06957704100410  1.29713015351535

