%nproc=4
%Mem=2GB
# td=(NStates=1) CAM-B3LYP/6-31G(d,p) 

TD

0 1
12 -7.14514508750875  0.59853860196020  0.10470815821582
 6 -4.89401401940194 -1.98203938233823  0.49885641834183
 6 -4.72813274217422  2.82193064036404  1.14338070297030
 6 -9.32581731723172  3.23854935043504 -0.47689054875488
 6 -9.61619193289329 -1.68911442244224 -0.81054748384838
 7 -5.05276870147015  0.39843966206621  0.72165258355836
 6 -4.34094380048005 -0.78056787878788  0.87806582978298
 6 -2.95437444284428 -0.46729615531553  1.30061041524152
 6 -2.94429786818682  1.07888055635564  1.69794052475248
 6 -4.33058005290529  1.48652940174017  1.15124215411541
 6 -2.82772785488549  1.26443873197320  3.20194160306031
 6 -1.97185064606461 -0.72750801220122  0.08252221052105
 6 -0.51019844244424 -0.58914326152615  0.56337046634663
 6  0.50699183638364 -0.84200771367137 -0.52221760226023
 8  0.23869510961096 -1.19531493909391 -1.66200253195320
 8  1.82254406490649 -0.56288368476848 -0.07298408730873
 7 -7.07687813571357  2.61997758755876  0.20160885638564
 6 -5.99783906290629  3.33415439123912  0.76360989458946
 6 -6.32869012211221  4.79819410881088  0.77094778197820
 6 -7.59569227622762  4.93585421692169  0.33495188648865
 6 -8.10648492009201  3.48862805810581  0.11662420872087
 6 -5.37966592329233  5.96079854575458  0.99412417291729
 6 -8.31917971557156  6.10064109780978  0.04262124752475
 6 -8.21772566386639  7.30799691829183  0.74492074187419
 7 -9.15047732033203  0.67333019411941 -0.51050508420842
 6 -9.81588784848485  1.85276522962296 -0.67196352045205
 6 -11.17971706830683  1.56347468656866 -1.08749046854685
 6 -11.22738514241424  0.16209157325733 -1.18669738373837
 6 -9.95449112981298 -0.31063303760376 -0.80679569566957
 6 -12.22402122582258  2.53232380338034 -1.39734650945095
 6 -12.47318186448645 -0.57827523762376 -1.71388219671967
 6 -12.31206869526953 -0.96926933813381 -3.18541365996600
 7 -7.26753622192219 -1.34229384298430 -0.12180685768577
 6 -8.38364860466047 -2.25337050915092 -0.48165312051205
 6 -7.91845799139914 -3.59633790129013 -0.54636191349135
 6 -6.59508339243924 -3.55748008500850 -0.08697042894289
 6 -6.29639223562356 -2.23810209150915  0.07690049424943
 6 -8.64505197259726 -4.84770761316132 -0.95844432283228
 6 -5.35042951325133 -4.31054493799380  0.17129000160016
 8 -5.24754359225923 -5.52795727912791  0.20354738543854
 6 -4.18607218661866 -3.38139392919292  0.51585145044504
 6 -3.60262089298930 -3.68862408370837  1.81620199309931
 8 -3.82317391799180 -3.22530926712671  2.92768544964496
 8 -2.72748394209421 -4.80097481988199  1.66643522442244
 6 -2.25697628552855 -5.38516274537454  2.93610854635464
 6  2.84980749244924 -0.78571636623662 -1.13375457585759
 6  4.11980406940694 -0.55279345564556 -0.53577372637264
 6  5.14026751115111  0.24462072747275 -0.89040881358136
 6  5.17030545354535  1.06684933423342 -2.20658482378238
 6  6.45009934273427  0.23243509370937 -0.15890237543754
 6  7.66296383428343 -0.30854120102010 -0.96976392689269
 6  8.93234510711071 -0.11170630103010 -0.19585139793979
 6  10.17025765026503 -0.72656972867287 -0.85399637013701
 6  10.18149484968497 -2.07857879397940 -1.39012247724772
 6  11.39994287118712 -0.29061284208421  0.02589345794579
 6  12.80896580428043 -0.46793084418442 -0.80265028792879
 6  13.96361582998300 -0.22269347214721  0.25129219671967
 6  15.34468059295930 -0.21049477857786 -0.47635587538754
 6  15.74976664556456 -1.62256989078908 -0.74358397609761
 6  16.31900600650065  0.56291065106511  0.48171267846785
 6  17.72169675907591  0.66500789918992 -0.18097391199120
 6  18.66602697219722  1.47219543654365  0.72785321832183
 6  20.10341901110111  1.65427576107611  0.18566332953295
 6  20.24893624742474  2.36727502470247 -1.11009200190019
 6  21.03744467526753  2.24075701200120  1.16848221162116
 1 -3.86392787728773  3.33842936433643  1.52698728562856
 1 -10.09334972767277  3.89561039603960 -0.75010040154016
 1 -10.41612490189019 -2.35263460426043 -1.24528118031803
 1 -2.67669412631263 -1.03290160406041  2.12541323252325
 1 -2.06746035123512  1.56456003860386  1.34062471287129
 1 -1.91574603210321  1.05506595949595  3.77515122862286
 1 -2.82749780978098  2.32547660516052  3.42150431583158
 1 -3.71680512321232  0.86397108110811  3.80792320512051
 1 -2.15829831473147 -1.77889785018502 -0.30560446964697
 1 -1.93921559405941 -0.00334308390839 -0.72397243684368
 1 -0.34029754715472  0.39782439633963  0.90420081918192
 1 -0.16985478747875 -1.33946846204620  1.34443839903990
 1 -5.74827360276028  6.73024166826683  0.37312302150215
 1 -5.06464345374537  6.28913227632763  2.11856815391539
 1 -4.36964092009201  5.64187535393539  0.72057523312331
 1 -9.32634468696870  5.96255240334033 -0.59478970717072
 1 -8.96955817171717  7.98544928382838  0.40355997779778
 1 -7.64703416921692  7.41839823932393  1.67173555905591
 1 -11.82579668476848  3.15171549754975 -2.21498450315032
 1 -13.16745641484148  2.01173506470647 -1.88582977447745
 1 -12.54001573267327  3.15396405110511 -0.65619686368637
 1 -12.63898867726773 -1.68248769386939 -1.33563851875188
 1 -13.43946266516652 -0.19600633743374 -1.54680020752075
 1 -13.26249260186018 -1.38409309550955 -3.36648653315332
 1 -12.25403896809681 -0.01196573417342 -3.66250974667467
 1 -11.35440171947195 -1.59515438253825 -3.58922754275428
 1 -9.15650525352535 -4.76164690759076 -1.90918418251825
 1 -7.74968433323332 -5.49916992119212 -0.85128474147415
 1 -9.47456734163416 -5.43675869716972 -0.16982880548055
 1 -3.24862555845585 -3.55403865456546 -0.18571384288429
 1 -1.84219238573857 -4.61856829652965  3.75885880118012
 1 -3.22236184478448 -5.89872148974897  3.30839367826783
 1 -1.57667577907791 -6.23796306950695  2.61485543844384
 1  2.81830113421342 -1.64004584048405 -1.47040100510051
 1  2.53615109270927 -0.13270899129913 -1.98078123032303
 1  4.15712661826183 -1.10844305950595  0.42057527352735
 1  4.18793775727573  1.12977168756876 -2.61365973567357
 1  5.49717512921292  1.87038729762976 -2.02220868906891
 1  5.74127143474347  0.71067217471747 -3.15953468446845
 1  6.81650371327133  1.20889488948895  0.12160480328033
 1  6.28466258565857 -0.25322335973597  0.79323904060406
 1  7.62089947464746 -1.34684391959196 -1.24373569716972
 1  7.69761219711971 -0.00368716061606 -2.00347327092709
 1  9.18229028062806  0.88481636663666  0.06836446864686
 1  9.00522901160116 -0.66750225642564  0.97327519121912
 1  10.19614716611661 -0.19907737003700 -1.75232012151215
 1  9.41502648814881 -2.34396237273727 -1.88339426422642
 1  11.18804135983599 -2.09231601550155 -2.04962920682068
 1  10.13905679167917 -2.99874181618162 -0.49190863056306
 1  11.23343102400240  0.81462369256926  0.26465795329533
 1  11.50524357775778 -1.01746770807081  0.92402302390239
 1  12.98799211811181 -1.44697285848585 -1.21673934153415
 1  12.92126587908791  0.10968165916592 -1.66923028432843
 1  13.70864230093009  0.80116267226723  0.70896823982398
 1  13.90209296239624 -0.94420402510251  0.99687620412041
 1  15.15398868736874  0.37887737273727 -1.26793115111511
 1  15.84507195009501 -2.20125041714171  0.16546509260926
 1  15.02503555425543 -2.25124750035003 -1.51497891299130
 1  16.69635926532654 -1.51617714261426 -1.11202267176718
 1  15.89584478517852  1.54731256495650  0.73678022232223
 1  16.56877132433243  0.03577440234023  1.41655441664166
 1  18.32408334703470 -0.22978952635264 -0.49963330373037
 1  17.61905897039704  1.17322464136414 -1.13009658545855
 1  18.06522731533153  2.30344450215021  0.99307731303130
 1  18.82786994729473  1.05380956195620  1.93221322162216
 1  20.36121103380338  0.74944109230923 -0.08336127212721
 1  19.79733383998400  3.43266682858286 -0.85555914931493
 1  21.36703095519552  2.48239489228923 -1.37267863116312
 1  19.48129203360336  1.96208801960196 -1.95839280828083
 1  21.09844581978198  1.67120522962296  1.92529214641464
 1  22.02035374167417  2.26533776347635  0.50702566886689
 1  20.72867259715972  3.24137422072207  1.46845728622862

