%nproc=4
%Mem=2GB
# td=(NStates=1) CAM-B3LYP/6-31G(d,p) 

TD

0 1
12 -7.14181475447545  0.66003475157516  0.05065275267527
 6 -4.89107372537254 -1.97883906230623  0.46190272297230
 6 -4.76511644054405  2.78975742304230  1.10880724562456
 6 -9.34995973147315  3.12370786628663 -0.29649250895090
 6 -9.58766908060806 -1.72460797179718 -0.77727415651565
 7 -5.03096652125213  0.39190900900090  0.59717013531353
 6 -4.34654436053605 -0.80466028802880  0.72692071527153
 6 -2.91973097849785 -0.48050747644764  1.13466382058206
 6 -3.04992843124312  1.07583025132513  1.56938766946695
 6 -4.33655064996500  1.43794454325433  1.04251128102810
 6 -2.89495457755776  1.15595788388839  3.16211762066207
 6 -1.92669613061306 -0.72510777217722  0.09414337263726
 6 -0.45608303090309 -0.51343569076908  0.48687281658166
 6  0.57723886108611 -0.70466397929793 -0.60687606810681
 8  0.33189442954295 -1.11439684728473 -1.73052938463846
 8  1.82975478597860 -0.47470486688669 -0.20479726862686
 7 -7.07307775567557  2.63278886868687  0.35505420092009
 6 -5.95998527752775  3.33665464126413  0.80951448504850
 6 -6.43456070917092  4.74387867726773  0.74485517271727
 6 -7.68568127512751  4.86178681018102  0.35387377867787
 6 -8.08510278187819  3.47631682698270  0.20132267856786
 6 -5.35889384608461  5.92600506640664  0.99751451195120
 6 -8.49908770637064  6.09803083678368  0.08723570897090
 6 -8.28395228652865  7.28092421102110  0.76820307010701
 7 -9.11122339493949  0.66122898399840 -0.48545257895790
 6 -9.78477473717372  1.82098205130513 -0.67365368946895
 6 -11.19145824242424  1.48735707480748 -1.06270799029903
 6 -11.21463386728673  0.14989035313531 -1.11129984398440
 6 -9.89689537023702 -0.34045601990199 -0.81430644674467
 6 -12.15538436213621  2.52447301830183 -1.46061283608361
 6 -12.38894344064406 -0.68542595269527 -1.75342615111511
 6 -12.30900838923892 -1.10914332553255 -3.14209932853285
 7 -7.19704917321732 -1.39222883648365 -0.15947062406241
 6 -8.33860410021002 -2.19748492059206 -0.50745570077008
 6 -7.85390153575358 -3.55804407190719 -0.47898517581758
 6 -6.57044092819282 -3.64411874887489  0.00555882398240
 6 -6.20174277067707 -2.24233251455146  0.14016682088209
 6 -8.70933840124012 -4.81814465686569 -0.90479895829583
 6 -5.39512398269827 -4.37376125962596  0.32903577617762
 8 -5.36359519741974 -5.53396788018802  0.36442347304730
 6 -4.27820139953995 -3.38548433823382  0.52936280158016
 6 -3.56633726462646 -3.71208642994299  1.90667104000400
 8 -3.68996059665967 -3.10200693689369  3.01620430153015
 8 -2.79249044274427 -4.76361108350835  1.66836541744174
 6 -2.29119970787079 -5.49960418951895  2.82685762126213
 6  2.91454396609661 -0.72125992059206 -1.13945514591459
 6  4.12907499649965 -0.40701887818782 -0.53422357135714
 6  5.12986647104710  0.34775104050405 -1.03290306300630
 6  5.05551397439744  1.11416406570657 -2.17417158245825
 6  6.42192652545255  0.50209205940594 -0.29201568676868
 6  7.70046758465847 -0.11286163306331 -1.03098004850485
 6  8.98075994859486 -0.04968009840984 -0.15375718851885
 6  10.25167579207921 -0.48665573727373 -0.90244121462146
 6  10.15207190739074 -2.01778271437144 -1.40698416341634
 6  11.39222209910991 -0.22771655245525 -0.03789292069207
 6  12.80890579827983 -0.44162821392139 -0.72298232113211
 6  13.89525899429943  0.07999679687969  0.15415248274827
 6  15.27151327622762 -0.22058578767877 -0.37159539933993
 6  15.60867253615361 -1.67517515131513 -0.69190880858086
 6  16.36564066996700  0.44258861886189  0.47324183138314
 6  17.80561515091509  0.59507090549055 -0.14307012161216
 6  18.74524489398940  1.35700391739174  0.79516994999500
 6  20.12725139433943  1.46969730323032  0.26032079527953
 6  20.24335568936894  2.06447474467447 -1.19254024672467
 6  21.08270920172017  2.02340527682768  1.34277964136414
 1 -4.00982246674667  3.58869439083908  1.42663725062506
 1 -10.07766815951595  4.03096393139314 -0.46590198169817
 1 -10.30539382878288 -2.42477181798180 -1.09696634883488
 1 -2.50985744264426 -1.14900321422142  1.98674936613661
 1 -2.14201780698070  1.56460004260426  1.11843249364936
 1 -2.00846530403040  0.71655210811081  3.80936464996500
 1 -2.80767582758276  2.13952801030103  3.41696386178618
 1 -3.76156959965997  0.67985266926693  3.49521193399340
 1 -1.90952343724372 -1.63538349874987 -0.44092800200020
 1 -2.03632530503050  0.02727997839784 -0.70114015361536
 1 -0.41735525292529  0.45174978887889  0.84734513361336
 1 -0.21775957795780 -1.15640015521552  1.35531948714871
 1 -6.00400917631763  6.78311695579558  0.38639434863486
 1 -5.27219420882088  6.23644700780078  2.15096139323932
 1 -4.47007096309631  5.91145231163116  0.55426860246025
 1 -9.26160821332133  5.99235538363836 -0.66486671487149
 1 -9.11812302820282  8.03629436833683  0.63098272007201
 1 -7.71655112091209  7.28215461496150  1.64535292079208
 1 -11.63867797289729  3.10058038403840 -2.16578958365837
 1 -12.99234890409041  2.20296418761876 -1.98527971947195
 1 -12.40811254235424  2.99338799349935 -0.53861510551055
 1 -12.59366414481448 -1.51294073917392 -1.18947390229023
 1 -13.53635235413541 -0.12785952275228 -1.54997052455246
 1 -13.30683703630363 -1.99153383958396 -3.06805669016902
 1 -12.35224878907891 -0.41288582618262 -4.07628112381238
 1 -11.49316559585959 -1.75607047414741 -3.55803442344234
 1 -9.10290989398940 -4.79506024892489 -2.03319658375838
 1 -8.19465883068307 -5.64347435163516 -0.96174578757876
 1 -9.43842372727273 -5.13436845814581 -0.08689051165116
 1 -3.43943463936394 -3.63963721442144 -0.19032430393039
 1 -1.82567073357336 -4.78893533323332  3.37131004630463
 1 -3.13998360696070 -6.10237185478548  3.25724856375638
 1 -1.60547865936594 -6.37584685788579  2.64810876377638
 1  2.87011631573157 -1.82066390229023 -1.42742670767077
 1  2.74566204380438  0.03470775037504 -1.88370152235224
 1  4.49478038363836 -0.90679289448945  0.38862207820782
 1  4.02110107360736  1.25654436483648 -2.72517088678868
 1  5.12784819651965  2.26252651155116 -2.24082055025503
 1  5.60484779237924  0.58188929642964 -2.93673240424042
 1  6.47388945184518  1.47413141314131 -0.12767012421242
 1  6.34484860426043 -0.07537557495750  0.61748146484648
 1  7.49450683538354 -1.18158739393939 -1.06961828542854
 1  7.64562699859986  0.47478068616862 -1.84618754235423
 1  9.12494454605461  1.03948183318332  0.08910654285428
 1  8.78023651235124 -0.59242474867487  0.89454731843184
 1  10.35770332173217  0.02841537923792 -1.81764665416542
 1  9.40066505200520 -2.16503447994800 -2.22488841364136
 1  11.19367192289229 -2.48045482938294 -1.66939118301830
 1  9.79517240324033 -2.61225316731673 -0.51596103580358
 1  11.35740342124212  0.72726495669567  0.18884037153715
 1  11.27599065246525 -0.74913087438744  1.00699132073207
 1  12.88553187208721 -1.55477363856386 -0.82029969756976
 1  12.76648040054005  0.07713840484048 -1.65084844614461
 1  13.78839027572757  1.18763131913191  0.26159350235023
 1  13.82143489658966 -0.32380198489849  1.20715723222322
 1  15.24080736923692  0.24309379437944 -1.31024538253825
 1  15.88118556145615 -2.38949924202420  0.04003254935494
 1  14.92485553625363 -2.31881425702570 -1.35892330743074
 1  16.55638526792680 -1.66916244114411 -1.40228169766977
 1  16.11220642134213  1.50024785848585  0.64677122142214
 1  16.60377482468247 -0.04070324542454  1.42636539773977
 1  18.00587152585258 -0.53216976437644 -0.40247358775878
 1  17.88569563406341  0.93186050495050 -1.17393096889689
 1  18.25332612521252  2.44417857555756  0.94337234253425
 1  18.73048020832083  0.91011519251925  1.88457845814582
 1  20.46120103280328  0.36011215941594  0.30729779377938
 1  20.02423653025302  3.13014657655766 -1.02809640304030
 1  21.21768602070207  2.04448110091009 -1.72247361066107
 1  19.58319222362237  1.49217102790279 -1.84034100310031
 1  20.72186816201620  1.42915102420242  2.08505812301230
 1  22.27648935523552  2.00954218391839  1.31758672497250
 1  21.11868159805981  2.95821590489049  1.59861030153015

