%nproc=4
%Mem=3GB
# td=(NStates=1) iop(3/107=0140000000,3/108=0140000000) CAM-B3LYP/6-31G(d,p) 

TD

0 1
12 -7.09569426112611  0.60780916441644  0.11674804480448
 6 -4.80148896539654 -1.99341657225723  0.57869327172717
 6 -4.71963799439944  2.78984770267027  1.20805091029103
 6 -9.29421618611861  3.10657821082108 -0.23050552585259
 6 -9.52027812581258 -1.74930669636964 -0.88202500740074
 7 -5.06424345554555  0.43026911751175  0.73579140314031
 6 -4.33086533383338 -0.74267541074107  0.76594448914891
 6 -2.93794001460146 -0.40353875187519  1.15338100720072
 6 -2.98226145304530  1.01845054665467  1.81359763906391
 6 -4.27634786948695  1.49969462056206  1.17963235713571
 6 -3.12176835763576  1.04361718101810  3.32689800440044
 6 -1.95941167086709 -0.57372336153615 -0.02204839453945
 6 -0.49998570777078 -0.51237448544855  0.41214459675968
 6  0.51397332053205 -0.70227684958496 -0.67900769086909
 8  0.16776699349935 -1.08939271697170 -1.75041243434343
 8  1.82278087648765 -0.41413135153515 -0.27020240784078
 7 -7.10926857025703  2.65262847274727  0.41379230333033
 6 -5.93362350615062  3.31362512991299  0.72089796589659
 6 -6.27678258665867  4.83448031163116  0.77710596929693
 6 -7.59983476877688  4.90499230443044  0.31345747214721
 6 -8.10693022052205  3.56517345614561  0.10246824542454
 6 -5.25159719361936  5.92886235993599  1.04564471967197
 6 -8.36221622962296  6.00458072767277  0.08980959345935
 6 -8.22187059705971  7.24128327802780  0.87605166446645
 7 -9.03436247734773  0.69221621602160 -0.55771234513451
 6 -9.81292877917792  1.87385070937094 -0.59982279577958
 6 -11.14970892359236  1.48051749624963 -1.14383924362436
 6 -11.20545003220322  0.16182372817282 -1.39530955925593
 6 -9.84161176477648 -0.37276747014701 -0.94217641894189
 6 -12.19877081478148  2.54252949434943 -1.43990344304430
 6 -12.35129892279228 -0.71307743154315 -1.82753208380838
 6 -12.19636154505451 -1.16702689498950 -3.26135678687869
 7 -7.19384234663466 -1.46958179387939 -0.02377505260526
 6 -8.30695502180218 -2.19058760426043 -0.40695227512751
 6 -7.87783982378238 -3.53690424182418 -0.36538683848385
 6 -6.52602039253925 -3.61713469556956 -0.02103418511851
 6 -6.11563529522952 -2.28140609640964  0.10373220862086
 6 -8.66294863436344 -4.79121521992199 -0.93182656575658
 6 -5.34071953485349 -4.45609917331733  0.32701767586759
 8 -5.25812680498050 -5.56609346634663  0.28982493109311
 6 -4.11039554215422 -3.29296674407441  0.65325364696470
 6 -3.56484066086609 -3.70546848954895  1.87252322082208
 8 -3.89049183258326 -3.20411776967697  3.06794015221522
 8 -2.59175452825283 -4.59002762126213  1.74657369486949
 6 -2.07326628362836 -5.13414862076208  2.97746514691469
 6  2.69174549494950 -0.71687997689769 -1.32825634283428
 6  4.03791467666767 -0.44414968286829 -0.67672023482348
 6  5.08643413471347  0.35587211521152 -1.13045592259226
 6  4.96684040964096  1.17230490579058 -2.37330146514651
 6  6.26837311601160  0.28867948394839 -0.35098562296230
 6  7.60595204780478 -0.13521206920692 -1.06951728042804
 6  8.88186589818982 -0.14588640474047 -0.29014511691169
 6  10.10420588118812 -0.60932259545955 -1.04727044704470
 6  10.03659693629363 -2.08216609650965 -1.25294226022602
 6  11.31880654445444 -0.28451334243424 -0.20079804230423
 6  12.71302903840384 -0.48355838933893 -0.81683918901890
 6  13.95236650845085 -0.11886760106011  0.14441085268527
 6  15.30139613061306 -0.26778586218622 -0.40923657615762
 6  15.72456872787279 -1.68788717701770 -0.83907573387339
 6  16.31373836653665  0.42364888218822  0.45409014371437
 6  17.69439702740274  0.51139486908691 -0.16723325032503
 6  18.69932035063506  1.22572065056506  0.75333859055906
 6  20.16650945534553  1.39468890139014  0.32269897589759
 6  20.15197804360436  2.56548385348535 -0.79744444034403
 6  21.07626269326932  1.83586528642864  1.50972491249125
 1 -4.06228659215922  3.52531578297830  1.73757985378538
 1 -10.17346947024702  3.97706998149815 -0.38758328452845
 1 -10.40606503060306 -2.28563409850985 -1.04102192159216
 1 -2.46272355955596 -0.86622682538254  2.00628711941194
 1 -2.00101356765677  1.54429649074907  1.37354100310031
 1 -2.18170125652565  0.87746685308531  3.69943028042804
 1 -3.26995410451045  2.04346356915692  3.46943496569657
 1 -3.94172697319732  0.53273842814281  3.84331601680168
 1 -2.09246436543654 -1.54995566636664 -0.52273028012801
 1 -1.94496086508651  0.19866748654866 -0.82162889748975
 1 -0.21099652835283  0.59693928122812  0.88503236623662
 1 -0.52818123842384 -1.18233900050005  1.23302676097610
 1 -5.43642782048205  6.93640115211521  0.72059189048905
 1 -5.37218869016902  5.90555343674367  2.03788580108011
 1 -4.19325417001700  5.74955922392239  0.81139187178718
 1 -9.22105236503650  5.95376875887589 -0.34862621532153
 1 -8.89372843654365  8.11200092109211  0.72582235793579
 1 -7.36785471757176  7.34786162256226  1.60083904420442
 1 -11.96521699469947  3.35737488458846 -2.38186401790179
 1 -13.04802209990999  2.06401514391439 -1.88848457665767
 1 -12.60028106080608  3.20294762886289 -0.58142858235824
 1 -12.75444740964096 -1.31810273307331 -0.86806030693069
 1 -13.29244154325433 -0.11713442394239 -2.01964771917192
 1 -13.01205640484049 -1.65346900900090 -3.60131108920892
 1 -12.11247165286528 -0.23041151245125 -3.84812379077908
 1 -11.37975281468147 -1.65538656585659 -3.23593187138714
 1 -8.89515413401340 -4.60131663246325 -1.98522458545855
 1 -8.12583696889689 -5.77229318261826 -0.85829578467847
 1 -9.64121830083008 -4.74099254765477 -0.45750801950195
 1 -3.36185370387039 -3.45901250685068 -0.06439417751775
 1 -1.35740912851285 -4.54130634403440  3.39253097069707
 1 -2.84126056335634 -5.16098562346235  3.66115715341534
 1 -1.50752127262726 -6.08171895669567  2.55523888498850
 1  2.54077213201320 -1.79890651345134 -1.87794924362436
 1  2.55605204650465  0.08736682148215 -2.16930798829883
 1  4.34321480818082 -1.13152156595660  0.19259065926593
 1  3.83729904140414  1.59158470117012 -2.59187967366737
 1  5.72472940514051  2.23970439433943 -2.10435787418742
 1  5.09907947644765  0.71358254915492 -3.38061431833183
 1  6.41450963486349  1.49116909750975 -0.01883226932693
 1  6.18942681478148 -0.44974231093109  0.50798699419942
 1  7.36234835763576 -1.15293596659666 -1.42173693089309
 1  7.68023058155816  0.43779288228823 -1.93759458235824
 1  8.92647869216922  0.87495699319932  0.05522795089509
 1  8.89170229102910 -0.67921627432743  0.81605772917292
 1  9.97548218001800  0.02879902770277 -1.97343250125013
 1  9.16856646574658 -2.45875415891589 -1.67665604750475
 1  10.81769090969097 -2.37667106640664 -1.85019037713771
 1  10.23156535363536 -2.63314742944294 -0.40364775847585
 1  11.29372101370137  0.74016044944494  0.06414418521852
 1  11.37237483298330 -0.87202850045005  0.68712503260326
 1  12.62765071757176 -1.70481790109011 -0.71794406590659
 1  12.68298412831283  0.02547748374838 -1.82825715941594
 1  13.66560798109811  0.96453181648165  0.53327815651565
 1  13.76542485308531 -0.63761013991399  1.00389276327633
 1  15.08088849024903  0.16698009500950 -1.36494776357636
 1  15.78667246404640 -2.38114745594559 -0.07708584408441
 1  14.74310595499550 -2.06806132613261 -1.38425979947995
 1  16.56919519911991 -1.84858575557556 -1.43596010931093
 1  15.97256052955295  1.54175250895090  0.61994791109111
 1  16.54860893869387 -0.06969325412541  1.39041753645364
 1  17.97170390809081 -0.49770628462846 -0.26662685828583
 1  17.63098040764076  1.07670656475648 -1.09622536613661
 1  18.15165422232223  2.18151941994199  1.05355730253025
 1  18.78571453395340  0.43051789128913  1.89656290179018
 1  20.54030386268627  0.32602359996000 -0.13007711551155
 1  19.66166298479848  3.59755053155316 -0.53361554625462
 1  21.29403320412041  2.72788393049305 -1.31539952115211
 1  19.62950134773477  2.25646593679368 -1.89614799919992
 1  20.90489434293429  1.12340798169817  2.49133280208021
 1  22.01440933373337  1.90808127882788  1.26017267086709
 1  21.07939801830183  2.95354147134713  1.81027816451645

