%nproc=4
%Mem=3GB
# td=(NStates=1) iop(3/107=0140000000,3/108=0140000000) CAM-B3LYP/6-31G(d,p) 

TD

0 1
12 -7.12037672937294  0.63714209770977  0.02617898789879
 6 -4.87155597209721 -1.96795402600260  0.50085548794879
 6 -4.78944497509751  2.88261697959796  1.20324042924292
 6 -9.42903966846685  3.12198975197520 -0.56851932723272
 6 -9.54411050905091 -1.81129289498950 -0.88651545644564
 7 -5.18682571377138  0.44695078567857  0.70027785178518
 6 -4.37223947124713 -0.62272341554155  0.76963485818582
 6 -2.99740596119612 -0.48220661866187  1.26117178627863
 6 -3.01063429032903  1.02204090569057  1.72238851815182
 6 -4.41048128282828  1.53710836193619  1.14117851175118
 6 -2.97707388818882  1.09850266956696  3.26146146074607
 6 -1.84844057375738 -0.53570956015602  0.14870868116812
 6 -0.50451616081608 -0.32977622562256  0.57620100240024
 6  0.50956287948795 -0.61765838773877 -0.59648943904390
 8  0.22340255705571 -0.89509328702870 -1.67361475457546
 8  1.75438403680368 -0.27667760616062 -0.25328071567157
 7 -7.15874351775178  2.54378758865887  0.33274419851985
 6 -6.06683682748275  3.33173694109411  0.78216409250925
 6 -6.46438134653465  4.79541640524052  0.82237049574957
 6 -7.75010979627963  4.88416022122212  0.32749887628763
 6 -8.18214774227423  3.44478141694169 -0.03855585698570
 6 -5.41486352025202  5.74052352605261  1.20814096929693
 6 -8.55480548854885  5.96887715731573  0.12640325282528
 6 -8.37167557755776  7.15370452015202  0.84405846514651
 7 -9.12954199529953  0.63157015141514 -0.69408598249825
 6 -9.89651713801380  1.81321464576458 -0.72423523702370
 6 -11.24727868056806  1.47044648914891 -1.07300215991599
 6 -11.23977346454645  0.15003254905491 -1.25081510981098
 6 -9.94610221382138 -0.39509970337034 -0.93949615091509
 6 -12.44220515821582  2.36923216461646 -1.12818227092709
 6 -12.41792558545855 -0.70493661746175 -1.70958028862886
 6 -12.30430233913391 -0.98027822012201 -3.21087173837384
 7 -7.22870583298330 -1.37870270597060 -0.18544121922192
 6 -8.31496582288229 -2.32462100760076 -0.60037161706171
 6 -7.88089012881288 -3.63997454885489 -0.61243154295430
 6 -6.52621041154115 -3.56842982508251 -0.12626470817082
 6 -6.22021575327533 -2.20089804560456  0.18155999139914
 6 -8.68249058855886 -4.80234633303330 -1.04482786588659
 6 -5.36411187408741 -4.37896145954595  0.25159013311331
 8 -5.21910290259026 -5.54911176817682  0.37718366696670
 6 -4.17683218581858 -3.27918536593659  0.60936925852585
 6 -3.51429560636064 -3.58204614731473  1.93287925642564
 8 -3.74925770917092 -3.04047140504050  2.94781814001400
 8 -2.77019237203720 -4.74806342484248  1.78915795329533
 6 -2.29676863386339 -5.20652585848585  3.05137253765377
 6  2.81217753815382 -0.51424971387139 -1.34057757495750
 6  4.08571945714571 -0.31791705960596 -0.60504306710671
 6  5.19222471377138  0.41083761176118 -0.96755963296330
 6  5.25975970157016  1.08679635493549 -2.25230936593659
 6  6.46292257095710  0.22969358535854 -0.17234775917592
 6  7.72051350395039 -0.29592814081408 -0.97096742544254
 6  8.94170188178818 -0.13224504060406 -0.11511761416142
 6  10.20968642924293 -0.73164482768277 -0.79372509250925
 6  10.02690596719672 -2.21764964486449 -1.28151511751175
 6  11.51221588538854 -0.45624051515152 -0.05241320382038
 6  12.83991172667267 -0.63451348484848 -0.73228073317332
 6  13.99785105690569 -0.06681239553955  0.07575398699870
 6  15.36728271927193 -0.18585766936694 -0.52676832933293
 6  15.74667093809381 -1.58539692799280 -1.03829565586559
 6  16.47071406410641  0.45669218651865  0.37844257895790
 6  17.84545213291329  0.69872360196020 -0.23886041304130
 6  18.84917533613361  1.34217229572957  0.68578183488349
 6  20.30651345574557  1.35931536403640  0.28595530153015
 6  20.57888073387339  2.21490879597960 -1.01591628752875
 6  21.19968503550355  1.78076977687769  1.52803674367437
 1 -4.15606597009701  3.50655390679068  1.41050714651465
 1 -10.06385850915091  3.85721799629963 -0.69083360956096
 1 -10.35006943104310 -2.48828436353635 -1.09658747814781
 1 -2.76639392659266 -1.04370457315732  2.12065855655566
 1 -2.29660312661266  1.50805286638664  1.34626827582758
 1 -2.08538162456246  0.69938904530453  3.53531386878688
 1 -3.11459856895690  2.17340656345635  3.57462548474847
 1 -3.76303910441044  0.50953610791079  3.81035272047205
 1 -1.90021514051405 -1.54816548734874 -0.36923493059306
 1 -1.98557492649265  0.22782040184018 -0.75322205680568
 1 -0.33268869756976  0.74895448274827  0.94742860586059
 1 -0.29820824112411 -1.13887465406541  1.38331178947895
 1 -5.62441661936194  6.63555106710671  0.67663749504950
 1 -5.50777224852485  6.20728360976098  2.19097110961096
 1 -4.33605845044504  5.53746801480148  1.01521225382538
 1 -9.34488474827483  5.96975035703570 -0.64677603030303
 1 -8.98004706840684  8.10648036903690  0.59502927862786
 1 -7.59677760986099  7.30589742614261  1.64288324862486
 1 -12.35529600260026  3.15042418951895 -1.88758458995900
 1 -13.46455375307531  1.79873861626163 -1.47065279347935
 1 -12.34914594729473  2.79025635973597 -0.09295973547355
 1 -12.32402436733673 -1.65919684248425 -1.11408490939094
 1 -13.34832713181318 -0.40055276577658 -1.42775853025303
 1 -12.97619281848185 -1.50298396049605 -3.58179913801380
 1 -12.20640104580458 -0.13920239153915 -3.87428640704070
 1 -11.34695953535353 -1.49225025222522 -3.23363164136414
 1 -9.22287690629063 -4.54035053585358 -2.05869193219322
 1 -8.10396478167817 -5.61623757705771 -0.94592454755475
 1 -9.63216739573958 -4.97200564896490 -0.45343761246125
 1 -3.65583310181018 -3.52031863746375 -0.24556229432943
 1 -1.45653904150415 -4.57178939233923  3.55128684628463
 1 -3.16617305460546 -5.16485601050105  3.79800083778378
 1 -2.01079159965997 -6.23413419821982  2.82791615271527
 1  2.74206226102610 -1.59468609140914 -1.63108455715572
 1  2.47970441174117  0.15825391019102 -2.09725078257826
 1  4.12683317001700 -0.80297871167117  0.37205860606061
 1  4.15857116861686  1.27477302000200 -2.50602108780878
 1  5.61631856405640  2.09920034393439 -2.43287072547255
 1  5.60472004050405  0.33135432633263 -3.17442369926993
 1  6.68583676757676  1.36769675027503  0.01188080198020
 1  6.33225109720972 -0.33522085878588  0.71162735823582
 1  7.44763688648865 -1.31618229122912 -1.25316007320732
 1  7.85321788028803  0.26272537553755 -1.81427225012501
 1  9.33642968726873  0.91054055155516  0.33432586068607
 1  8.82362548334834 -0.73659201190119  0.76202232563256
 1  10.42822745454546 -0.14331818401840 -1.71197635563556
 1  9.21775138423842 -2.25131341484148 -2.10248863076308
 1  10.76988612921292 -2.80434383368337 -1.73364872297230
 1  9.62547474457446 -2.76824093879388 -0.41980937463746
 1  11.22880452205220  0.58936536993699  0.49958772957296
 1  11.59591718721872 -1.12607390499050  0.77175349544955
 1  13.00192814531453 -1.67848526782678 -0.93079535103510
 1  12.97123295319532 -0.22738780278028 -1.90054438813881
 1  13.78779019931993  0.98124348764876  0.34466929562956
 1  14.04046235683568 -0.64610098899890  1.12757513151315
 1  15.41893229462946  0.56005940294029 -1.47909917871787
 1  15.95858965576558 -2.34067340854085 -0.18869700520052
 1  14.89109075347535 -1.86736125612561 -1.70814218771877
 1  16.60611889148915 -1.74551544854485 -1.78637515081508
 1  16.01470474397440  1.43673200690069  0.62477839413941
 1  16.55452953075308 -0.00500678547855  1.37553604830483
 1  18.36862360006000 -0.17817433143314 -0.60856105170517
 1  17.65011232083208  1.30563945804580 -1.19399514311431
 1  18.61208026492649  2.44266553455345  1.01914386118612
 1  18.82807877037704  0.93344818431843  1.65025827132713
 1  20.59979981228123  0.25551654925493  0.11457734993499
 1  20.30144696319632  3.25618639513951 -0.83732591729173
 1  21.66991079187919  2.32361350345034 -1.15589357055706
 1  20.09853825142514  1.87021731193119 -1.91035942034203
 1  21.12038589208921  0.87968360926093  2.20728439723972
 1  22.15220311311131  1.95523599429943  1.22732938653865
 1  20.94761483998400  2.83695981318132  1.93454059075908

