%nproc=4
%Mem=2GB
# td=(NStates=1) CAM-B3LYP/6-31G(d,p) 

TD

0 1
<<<<<<< HEAD
12 -7.14295486848685  0.59994874297430  0.15094278167817
 6 -4.80140475847585 -1.93876505490549  0.55711224392439
 6 -4.92450237913791  2.86181462876288  1.18301466636664
 6 -9.39830456595659  3.11462695819582 -0.32741560126013
 6 -9.50736104980498 -1.81150666166617 -0.79771620072007
 7 -5.09786321092109  0.42414223232323  0.79061948024802
 6 -4.26594630073007 -0.68935875787579  0.83806182938294
 6 -2.92973197859786 -0.36960638633863  1.26147650185019
 6 -3.01255469386939  1.14545721402140  1.70879160986099
 6 -4.37242423732373  1.51354210301030  1.15268229812981
 6 -2.95207028912891  1.38025031313131  3.14939634853485
 6 -1.92385584658466 -0.60580584198420  0.14548850715071
 6 -0.45088251085109 -0.35653000020002  0.52510663996400
 6  0.55987712491249 -0.60688420132013 -0.57683306380638
 8  0.24361560166017 -0.92505791339134 -1.73061939363936
 8  1.72470428092809 -0.34353174957496 -0.16118290719072
 7 -7.11591203910391  2.59844543434343  0.35445414091409
 6 -6.14665394439444  3.30009098489849  0.87908144174417
 6 -6.49330658375838  4.76199048844884  0.93134382158216
 6 -7.78821152815282  4.80440107160716  0.50536892819282
 6 -8.24004827642764  3.48892808810881  0.12424497079708
 6 -5.48088604530453  5.92147461336134  1.14905966646665
 6 -8.58226602420242  5.98330936463646  0.16892387778778
 6 -8.62502639393939  7.19986610521052  0.79266551635164
 7 -9.16465873847385  0.60144300540054 -0.54258829252925
 6 -9.89962622232223  1.75424537763776 -0.69317564166417
 6 -11.18402749934993  1.37682602170217 -1.20348206770677
 6 -11.19473187708771  0.01100646474647 -1.33867258125813
 6 -10.00133581428143 -0.51403337763776 -0.85435045114511
 6 -12.28024684838484  2.39761033203320 -1.48023479827983
 6 -12.33653820012001 -0.82281969206921 -1.79165997449745
 6 -12.10601809020902 -0.99990240144014 -3.36511162976298
 7 -7.23448291659166 -1.44024363796380 -0.03299797679768
 6 -8.37110735053505 -2.25903107520752 -0.41610656585659
 6 -7.88868501410141 -3.67213548104810 -0.45041231853185
 6 -6.53900778487849 -3.55683002000200  0.01602987108711
 6 -6.26487908430843 -2.15080336163616  0.18717152135214
 6 -8.63089055645565 -4.87810065246525 -0.75503398179818
 6 -5.31285575587559 -4.29325320882088  0.04982785538554
 8 -5.09578841674167 -5.49376385978598  0.07247427812781
 6 -4.10940451985199 -3.30786657645765  0.50681054635464
 6 -3.64694532543254 -3.68263348464846  1.86817719061906
 8 -3.92417401800180 -3.12467920412041  2.86632931403140
 8 -2.76561775547555 -4.66744146654665  1.79239782068207
 6 -2.20942153005301 -5.00006423552355  3.07592252775278
 6  2.74719723142314 -0.54965275987599 -1.21604280468047
 6  4.12580466946695 -0.39190736703670 -0.73304345334533
 6  5.22326581098110  0.30659692509251 -1.18257803050305
 6  5.22494091709171  1.11229387868787 -2.34946911221122
 6  6.46439077187719  0.39566141634163 -0.29840632583258
 6  7.65538307620762 -0.09077942484248 -1.14746169666967
 6  8.91458333093309 -0.17455258565857 -0.23795560836084
 6  10.26184680918092 -0.67775484718472 -1.03934490499050
 6  10.19211591179118 -2.12951388748875 -1.54118758375838
 6  11.47249012591259 -0.33295707650765 -0.11526065746575
 6  12.86004091179118 -0.49030308140814 -0.73525354825483
 6  13.87847731613161 -0.14892609540954  0.22680974847485
 6  15.39618574347435 -0.37056078517852 -0.33426166596660
 6  15.63079474837484 -1.79471710551055 -0.64131374907491
 6  16.53622772867287  0.32353671367137  0.63557806500650
 6  17.86318090749075  0.60222162056206 -0.04257007160716
 6  18.84795516501650  1.42488070507051  0.80917135013501
 6  20.31455012421242  1.42808314181418  0.25789055225523
 6  20.34372572637264  2.15389368656866 -1.14111510421042
 6  21.23000393119312  1.94261719801980  1.20674603800380
 1 -4.37268875337534  3.69459498089809  1.41078566546655
 1 -10.09813020572057  3.77358819381938 -0.55971136263626
 1 -10.16222951235124 -2.68494783558356 -1.21663831603160
 1 -2.85493195009501 -0.93420173407341  2.26984767596760
 1 -2.31956556175618  1.77091067366737  1.18326897729773
 1 -1.94243870137014  1.08796924982498  3.72772648614861
 1 -2.95571063106311  2.48701275877588  3.35254742014201
 1 -3.84642808550855  1.02103678767877  3.68840125292529
 1 -1.89385187008701 -1.65683564396440 -0.21756566576658
 1 -2.08658033053305  0.13576082648265 -0.59857989758976
 1 -0.11804532193219  0.73551816571657  0.73910430953095
 1 -0.28932673467347 -0.90924543974397  1.23840779597960
 1 -6.08180695609561  6.77502614671467  0.69458516771677
 1 -5.33934092349235  6.05218858195820  2.38168446554655
 1 -4.43142709870987  5.74273543994399  0.67002017761776
 1 -9.22952500500050  5.90607675577558 -0.71183141134113
 1 -9.24401561746174  8.07317805670567  0.36204582638264
 1 -7.92236170197020  7.24392079157916  1.60900928642864
 1 -12.09413351845185  3.02373269926993 -2.18915191989199
 1 -13.07327699689969  1.93599749094910 -2.05663685518552
 1 -12.49465119621962  3.05998465316532 -0.54552579657966
 1 -12.43694847324732 -1.80534998009801 -1.18179313421342
 1 -13.32799151805180 -0.19315605240524 -1.52720824832483
 1 -12.95294164676468 -1.65758044424442 -3.94502438693869
 1 -12.12818638283828 -0.01026556415641 -3.93510700640064
 1 -11.11046732603260 -1.47630249734973 -3.48457707770777
 1 -9.42111171417142 -4.77963870677068 -1.50995425952595
 1 -7.81963132793279 -5.69919992419242 -0.75283489648965
 1 -9.23277316221622 -4.99047406870687  0.19546772417242
 1 -3.29376007190719 -3.33811706240624 -0.19546481798180
 1 -1.81921008750875 -4.04596103580358  3.55473838913891
 1 -3.02541214981498 -5.45865748334833  3.67478031693169
 1 -1.59875798729873 -6.08836811001100  3.05928988188819
 1  2.62805210931093 -1.49134096999700 -1.57130109510951
 1  2.30488796639664  0.11994627422742 -2.06979013121312
 1  4.19542044764476 -0.87081929712971  0.16564978097810
 1  4.06192515601560  1.22083079347935 -2.74971334103410
 1  5.41801721342134  2.17798805770577 -2.11955842404241
 1  5.85517282488249  0.78083919141914 -3.06448517951795
 1  6.61211327422742  1.56308030803080 -0.08016537373737
 1  6.21889600900090 -0.25092312971297  0.56633635033503
 1  7.54438182288229 -1.02370160536054 -1.57951927552755
 1  7.80415285118512  0.41948515661566 -2.24853777737774
 1  9.13446549814981  0.81141902690269  0.26124375657566
 1  8.99691818051805 -1.15175068126813  0.42972083578358
 1  10.45254280568057 -0.23760122242224 -1.97985287478748
 1  9.44371935743574 -2.55264324082408 -2.16494241904190
 1  11.04704726042604 -2.39195597949795 -2.22931717561756
 1  10.15349823582358 -2.71712365436544 -0.70373981368137
 1  11.56924460536054  0.77983021322132  0.31361284878488
 1  11.54060711411141 -0.95384134543454  0.88721934353435
 1  12.83030634953495 -1.54862302350235 -1.21556922452245
 1  12.98370212271227  0.32651334233423 -1.68092145344534
 1  13.83543498019802  0.99146170217022  0.47855519851985
 1  13.90666341944194 -0.62205180988099  1.28022453895390
 1  15.55199848834883  0.32412189718972 -1.28328268626863
 1  15.36677412031203 -2.44693498559856  0.31728027412741
 1  15.09281233193319 -2.44840721632163 -1.57084449954996
 1  16.64038366776678 -1.98848437333733 -0.80218168766877
 1  15.95289048974897  1.29062689638964  0.88529507380738
 1  16.66304075127513 -0.21954112921292  1.43258601980198
 1  18.11855279397940 -0.41399794719472 -0.06687002740274
 1  17.47113417791779  1.10016733563356 -0.99563313911391
 1  18.40292108470847  2.53297745544555  0.84058206350635
 1  18.81698885918592  1.05115929692969  1.85264526482648
 1  20.39862477517752  0.35990213841384 -0.01458439443944
 1  20.19586369296929  3.28437199909991 -0.99047264066407
 1  21.50228448054806  2.19434608740874 -1.36331769506951
 1  19.69677358175818  1.59487129792979 -1.91087805680568
 1  21.02275825102510  1.38429653875388  2.08926854405441
 1  22.28966067236724  1.83559478917892  1.07794276057606
 1  21.19551928182818  3.00683076637664  1.36978741924192
=======
12 -7.17171774477448  0.59702845094509  0.08477616501650
 6 -4.86768138613861 -1.88380955935594  0.49623615631563
 6 -4.74020394929493  2.89343779107911  1.16038240314031
 6 -9.43981871737174  3.07548304380438 -0.24918777847785
 6 -9.45186550025003 -1.73872938393839 -0.82349877897790
 7 -5.00786421102110  0.53350316841684  0.64336475477548
 6 -4.33966367246725 -0.67611743374337  0.81857988118812
 6 -2.82783178857886 -0.33121254695470  1.14941529572957
 6 -2.96202964136414  1.13746641494149  1.66539727042704
 6 -4.41216821172117  1.55023577237724  1.09345637553755
 6 -2.90280536263626  1.31727401550155  3.13500490939094
 6 -1.88625208620862 -0.57193245464546 -0.00752679437944
 6 -0.41325874847485 -0.62951729892989  0.47829195849585
 6  0.51308244544454 -0.74719823272327 -0.61567694819482
 8  0.25831707180718 -1.11868727632763 -1.70848718041804
 8  1.75531734223422 -0.44585198159816 -0.22695948484848
 7 -7.11199164706471  2.58118370817082  0.40456915241524
 6 -6.06349562856286  3.40614158995900  0.81946548014801
 6 -6.49877713081308  4.86578086748675  0.72379306650665
 6 -7.77896060306031  4.84439507100710  0.34532292359236
 6 -8.19153342494250  3.47789698499850  0.15978852515252
 6 -5.53834179087909  5.90852331823182  1.16722148264826
 6 -8.65238303590359  5.97705873957396  0.17836482188219
 6 -8.54032792409241  7.12497861646165  1.00570682048205
 7 -9.07016928952895  0.69071193229323 -0.57288132183218
 6 -9.81387764746475  1.85517547064706 -0.78469479357936
 6 -11.19084818141814  1.46945528462846 -1.19675139463946
 6 -11.15764816871687  0.11064642874287 -1.38583729772977
 6 -9.84867054775478 -0.31320329462946 -0.84501951805181
 6 -12.23267209090909  2.37797836883688 -1.60390716551655
 6 -12.23293784008401 -0.80535794589459 -1.81456226472647
 6 -12.23304079247925 -1.01211362256226 -3.28866398499850
 7 -7.25975544384438 -1.45206482008201 -0.08496317331733
 6 -8.26750699049905 -2.29995516761676 -0.52871782698270
 6 -7.83817996359636 -3.60737900540054 -0.45856313361336
 6 -6.44985886998700 -3.53034737173717 -0.15708744064406
 6 -6.21971456785679 -2.15162344364436  0.08161096529653
 6 -8.61050851825182 -4.92807564996500 -0.78836731513151
 6 -5.37036150645064 -4.34129801330133  0.20852372497250
 8 -5.17816665456546 -5.52195667906791  0.17673470417042
 6 -4.16384996439644 -3.25966175597560  0.59655952125213
 6 -3.50765139603960 -3.57629285058506  2.01488186108611
 8 -3.79635123572357 -2.97207394359436  3.01459414051405
 8 -2.78079927362736 -4.66265098749875  1.85752433333333
 6 -2.28236882478248 -5.24307853695369  3.00541547704770
 6  2.73631614331433 -0.71716951155116 -1.17235843624362
 6  4.06321841084108 -0.50660883718372 -0.55366551555156
 6  5.02330581498150  0.20844711011101 -0.92259203190319
 6  5.05759418241824  1.00034268356836 -2.14867903320332
 6  6.32298663146315  0.24596644684468 -0.26890337553755
 6  7.66097363526353 -0.25239558645865 -0.89097604810481
 6  8.97369924252425 -0.29164429482948 -0.12485429822982
 6  10.20163078757876 -0.66282335403540 -1.00939190969097
 6  10.14517121732173 -2.13239417551755 -1.55360882588259
 6  11.38689156605661 -0.29503328412841 -0.12142127352735
 6  12.79240414811481 -0.50299435053505 -0.73314333723372
 6  13.97594706310631 -0.10365156795680  0.22804987248725
 6  15.34005012991299 -0.17170089918992 -0.38206644644464
 6  15.70515218411841 -1.58531616541654 -0.86501611931193
 6  16.42475658155816  0.39387374737474  0.38503301050105
 6  17.81183577297730  0.65964736313631 -0.25442125672567
 6  18.82601297079708  1.26506472347235  0.75838627162716
 6  20.29705837503750  1.42214254775478  0.22964772797280
 6  20.33565491929193  2.36140443764376 -1.05020601330133
 6  21.02994392519252  1.97152008830883  1.39481484488449
 1 -4.08587007150715  3.80120564196420  1.24735932283228
 1 -10.00221061376138  3.92145298029803 -0.29588497999800
 1 -10.41940522992299 -2.28450779157916 -0.93463011521152
 1 -2.70550700760076 -1.01949026292629  1.92115280648065
 1 -2.28233183838384  1.93121670427043  1.13961461186119
 1 -1.95385984348435  1.17195764866487  3.56731044454445
 1 -3.22476753675368  2.39769382688269  3.45280744614461
 1 -3.63444688738874  0.61817650165017  3.82463487628763
 1 -2.11219370427043 -1.42156211661166 -0.44281819101910
 1 -2.28451012351235  0.32773002340234 -0.50665070467047
 1 -0.16956047344734  0.35500011391139  0.95563596269627
 1 -0.24873267526753 -1.69744425962596  0.98871282648265
 1 -5.69568834423442  6.84189283338334  0.71452716191619
 1 -5.51612860226023  6.05136849994999  2.13140943804380
 1 -4.55195915191519  5.71684285068507  1.12427560316032
 1 -9.40836288878888  5.95156130423042 -0.64100432863286
 1 -8.98626984288429  8.06427716661666  0.58512813461346
 1 -7.69001846764677  7.18340473997400  1.72318070357036
 1 -11.95480958605861  2.95717604360436 -2.56226923162316
 1 -13.20706037523752  1.98949284048405 -1.34443563506351
 1 -12.23258498959896  3.04594324902490 -0.82907415141514
 1 -12.31889666806681 -1.59973941904190 -1.20490544544454
 1 -13.21309002790279 -0.32937967476748 -1.46798232573257
 1 -13.18747510011001 -1.55196988318832 -3.58936882138214
 1 -12.31469503370337  0.20110557295730 -3.57606110181018
 1 -11.17329360866087 -1.46870173727373 -3.60656927692769
 1 -8.89453905690569 -5.02380312321232 -1.77977124122412
 1 -8.10189955475547 -5.88119812401240 -0.51873148614861
 1 -9.55546543144314 -5.02158718001800 -0.14329615221522
 1 -3.44900559645965 -3.32993624432443 -0.17621289278928
 1 -1.80970913741374 -4.46331277097710  3.58973188848885
 1 -3.09935954455446 -5.69496111371137  3.85782862176218
 1 -1.76634474597460 -6.13546281948195  2.75794974787479
 1  2.47147645174517 -1.79741157705771 -1.18947291229123
 1  2.66463394099410 -0.19940566096610 -2.12117526972697
 1  4.24561546714672 -1.23491570677068  0.30830404640464
 1  4.00028899239924  1.05778448884888 -2.51894026372637
 1  5.57950336203620  2.04862512141214 -2.01945841404140
 1  5.58249555715572  0.51598270577058 -2.94576330733073
 1  6.65510757365737  1.26316031603160 -0.02215957315732
 1  6.38275239463946 -0.35372340974097  0.77466718341834
 1  7.61566895159516 -1.35210444564456 -1.32605392899290
 1  7.68396083198320  0.52416562466247 -1.84718764236424
 1  9.24318637023702  0.59133701870187  0.65808344054405
 1  8.90039852855286 -1.01643714991499  0.71963982768277
 1  10.18157570897090 -0.00403786608661 -1.91139602910291
 1  9.22481746724672 -2.60190816731673 -2.05062098689869
 1  10.99925248094810 -2.42623940784078 -2.19874411831183
 1  10.24027691369137 -2.82129407140714 -0.65351479117912
 1  11.24509219011901  0.76672890309031  0.32383387088709
 1  11.57721077447745 -0.97269323062306  0.88394901650165
 1  13.07181049995000 -1.47294545574558 -0.88626629422942
 1  12.82161591409141  0.07279797079708 -1.78000136143614
 1  13.81550298699870  0.99751230723072  0.67231457445745
 1  13.81906465956596 -0.61440104480448  1.15166168266827
 1  15.34611790029003  0.48183766876688 -1.21996635463546
 1  15.83697114001400 -2.21459175127513 -0.04189564346435
 1  14.92606565726573 -2.01304367996800 -1.59379679477948
 1  16.59616924632464 -1.61247677257726 -1.56591806130613
 1  16.07784298499850  1.41912974667467  0.74159070337034
 1  16.43446789398940 -0.33529270437044  1.34915767696770
 1  18.32517345604560 -0.20241678907891 -0.75259860026003
 1  17.86247331183118  1.37062438133813 -1.24122769856986
 1  18.37740853345334  2.23463762146215  0.79307731303130
 1  18.84403156345635  0.70324450545054  1.70300030033003
 1  20.68288320102010  0.40128627682768 -0.13868680468047
 1  20.03335744234423  3.36826038793879 -0.68742233563356
 1  21.25261951405141  2.33984063686369 -1.56224758805881
 1  19.64808871327133  2.05247705850585 -2.05047201620162
 1  21.24771074627463  1.50054816391639  2.38641825902590
 1  21.91124283058306  2.26533776347635  1.03844881118112
 1  20.56739646954696  3.02744282758276  1.94129456995700
>>>>>>> 8e03b5b5abfc0030b3aa597dc0de36371bfbd096

