%nproc=4
%Mem=3GB
# td=(NStates=1) iop(3/107=0140000000,3/108=0140000000) CAM-B3LYP/6-31G(d,p) 

TD

0 1
12 -7.13401809350935  0.62083046654665  0.06561293129313
 6 -4.85677449394939 -1.99357658825883  0.51360676307631
 6 -4.77244327492749  2.75527424532453  1.02565267046705
 6 -9.42444920942094  3.18930648364837 -0.37065954125413
 6 -9.45816191419142 -1.63841560726073 -0.92007881278128
 7 -5.13282031323132  0.35234132473247  0.78965678967897
 6 -4.36111835913591 -0.68663980718072  0.77632552725273
 6 -2.94420064066407 -0.45506390439044  1.18361403050305
 6 -2.98451167806781  1.00079878147815  1.61124740404040
 6 -4.40500073477348  1.45744039513951  1.08879327322732
 6 -2.81633781458146  1.07333015231523  3.26758207280728
 6 -1.80949667936794 -0.83686967616762  0.12590640094009
 6 -0.45275098429843 -0.54151739973997  0.53828721102110
 6  0.54793671687169 -0.79422604450445 -0.50222001210121
 8  0.23035325212521 -1.20674445214521 -1.59249664276428
 8  1.73890248864887 -0.43093303170317 -0.18342372997300
 7 -7.05383302670267  2.62071528142814  0.27557848194820
 6 -5.98035817961796  3.37252101950195  0.70787666376638
 6 -6.27421232963296  4.75342220582058  0.80728898759876
 6 -7.63715850115011  4.82447425262526  0.35469159555956
 6 -8.12740226772677  3.49836677547755  0.02278027662766
 6 -5.39464149804980  5.87112658635864  1.17747790299030
 6 -8.33266327432743  6.09105937553755  0.28466907940794
 6 -8.21321973197320  7.37289643934393  0.93369742904290
 7 -9.05518455955596  0.70513750815081 -0.64110068396840
 6 -9.74814230053005  1.90819414371437 -0.80441325482548
 6 -11.19870382308231  1.59109855435544 -1.23756861656166
 6 -11.22852233943394  0.20008755455546 -1.45889591789179
 6 -9.88943654725472 -0.33478367176718 -1.04730693199320
 6 -12.35501643934393  2.59662490389039 -1.36895634833483
 6 -12.32404619751975 -0.71482760656066 -1.77683701430143
 6 -12.32292420132013 -1.08163835613561 -3.28258891009101
 7 -7.24353731613161 -1.38334317001700 -0.26385906100610
 6 -8.23865819211921 -2.22443098859886 -0.54569614951495
 6 -7.93798583838384 -3.58601915331533 -0.45786608640864
 6 -6.52998078857886 -3.56400938303830 -0.08057013871387
 6 -6.19725345704570 -2.10546850265027  0.09727156255626
 6 -8.65616795629563 -4.84257035543554 -0.76372975607561
 6 -5.37129259215922 -4.44639820322032  0.24346932103210
 8 -5.26364735703570 -5.62355921292129  0.22381833043304
 6 -4.32248675127513 -3.33584103150315  0.50620894249425
 6 -3.60987516431643 -3.65284322702270  1.90678664716472
 8 -3.69503228662866 -3.06411376927693  2.93539689788979
 8 -2.81566691949195 -4.77425604410441  1.73996303380338
 6 -2.14347330433043 -5.14215942184218  3.03813121352135
 6  2.89973629402940 -0.72839112801280 -1.19380289748975
 6  4.16261714691469 -0.57529279717972 -0.41287385018502
 6  5.04842033333333  0.35109163716372 -0.86960983798380
 6  4.93614734033403  1.22316999229923 -2.03638777377738
 6  6.41336761546155  0.49343995999600 -0.07114763916392
 6  7.65530698329833 -0.22926147414741 -0.87809813851385
 6  8.88635634723472 -0.16876869296930 -0.06208231063106
 6  10.11317677827783 -0.54853651685169 -0.87206292629263
 6  10.03832710931093 -2.06863474337434 -1.36970393639364
 6  11.40993565736574 -0.43328821992199  0.10505254275428
 6  12.73172090759076 -0.56963699719972 -0.75398290339034
 6  13.95980725252525 -0.12000771507151  0.15327173877388
 6  15.23956994799480 -0.17326641024102 -0.61308696119612
 6  15.64719099009901 -1.59952834113411 -0.94524635093509
 6  16.39627662036204  0.46105262256226  0.37761249594960
 6  17.81576916461646  0.67260098969897 -0.29736626362636
 6  18.75232565116512  1.31984006250625  0.67227048374837
 6  20.18051085548555  1.47563699619962  0.11307801380138
 6  20.28975182098210  2.29371667676768 -1.08253294919492
 6  21.04071913891389  2.05729742964296  1.36462040204020
 1 -4.07606797029703  3.69868311971197  1.55258135393539
 1 -10.18076019931993  3.97569984448445 -0.53975850205021
 1 -10.22208663276328 -2.37722325742574 -1.39319713911391
 1 -2.80360764796480 -1.06815701840184  2.12015850655065
 1 -2.19211267756776  1.54581664276428  1.17137078607861
 1 -1.66955004140414  0.91597070347035  3.37579791719172
 1 -3.00682779187919  2.14866408920892  3.65396341854185
 1 -3.43729653015301  0.31720687498750  3.72982466766677
 1 -1.74378949794979 -1.98910958175818  0.09578157105711
 1 -2.11224759375938 -0.47467984818482 -0.87307404200420
 1 -0.27361278997900  0.43416300360036  0.82911677467747
 1 -0.24901332163216 -1.15605637223722  1.46114957325733
 1 -5.58679285698570  6.76456396839684  0.59991982328233
 1 -5.62695416671667  6.22349523092309  2.20941295379538
 1 -4.38827367196720  5.60426469446945  1.19144987758776
 1 -9.33631389118912  6.01009439143914 -0.18943029572957
 1 -8.86671573527353  8.19897961896190  0.58143791949195
 1 -7.35982391449145  7.52577941434143  1.50598955925593
 1 -12.14808528152815  3.62805195229523 -2.09260509200920
 1 -13.36501379907991  2.27691643404340 -1.68479420762076
 1 -12.29701073377338  3.18403573767377 -0.40719115861586
 1 -12.12834479937994 -1.79752067486749 -1.14749825072507
 1 -13.14259655875588 -0.14107681818182 -1.30699645404540
 1 -13.13507870707071 -1.74985864796480 -3.60640159825983
 1 -12.29401980768077 -0.18873734503450 -3.98986796519652
 1 -11.53564840424042 -1.69579060626063 -3.49498777697770
 1 -9.24171879047905 -4.77871437223722 -1.66771283428343
 1 -7.82017640284028 -5.65063101640164 -0.91946190129013
 1 -9.35386956595660 -5.23635208360836  0.15157288858886
 1 -3.38698621712171 -3.69942654825483 -0.24961269936994
 1 -1.15784917251725 -4.54182639603960  3.18429014661466
 1 -2.85592202950295 -5.44034355925593  3.80886192389239
 1 -1.82384290479048 -6.27598838363836  2.76277963906391
 1  2.83571162596260 -1.74547116991699 -1.55252670137014
 1  2.67159360066007 -0.31368328352835 -1.92061311881188
 1  4.40654114081408 -1.19443785758576  0.38919031923192
 1  3.94824013551355  1.17543308600860 -2.39406989268927
 1  5.21683861606161  2.24978540244024 -1.65625306370637
 1  5.65345491399140  0.91799299019902 -2.72698895579558
 1  6.48724690859086  1.62616259685969 -0.03026341244124
 1  6.32207007910791  0.03700636393639  0.91022721822182
 1  7.52267439023902 -1.24794546754675 -1.32348710591059
 1  7.68250080858086  0.28879798279828 -1.87434825772577
 1  9.12942898719872  0.84330382788279  0.34013644174417
 1  8.62211533233323 -0.88935728842884  0.69867599099910
 1  10.28048268006801 -0.18703255545555 -1.92821797979798
 1  9.14726433553355 -2.11016930043004 -2.17125550745074
 1  11.04495363596360 -2.29611301060106 -1.74297965606561
 1  9.91650384748475 -2.89540365506551 -0.47466486018602
 1  11.16794843644364  0.65366179957996  0.60421819261926
 1  11.36745434093409 -1.17054835243524  0.85865218531853
 1  12.78314626712671 -1.61488890819082 -1.02050432193219
 1  12.59474530443044 -0.05976104010401 -1.86985131883188
 1  13.65655707600760  0.83394875817582  0.49613444214421
 1  14.06492480308031 -0.80382676157616  1.03100547454745
 1  15.09263966536654  0.32958635563556 -1.60553182198220
 1  15.93590738753876 -2.10508985018502  0.28844070857086
 1  14.77747939233923 -2.25994051405141 -1.20658203170317
 1  16.49845812541254 -1.83090398739874 -1.55856236953695
 1  16.02228550205020  1.56110444414441  0.43995991229123
 1  16.32779685748575 -0.17470375517552  1.40070856555656
 1  18.03828056575658 -0.20321683568357 -0.50384057965797
 1  17.63113042264226  1.32352124622462 -1.17063280688069
 1  18.27900695759576  2.18100936893689  0.94264621142114
 1  18.83743970647065  0.54102894239424  1.55842908840884
 1  20.44666449874988  0.46079707730773 -0.01406551435144
 1  20.00571739023902  3.33920469696970 -0.80970315501550
 1  21.33718751955195  2.44788593069307 -1.38179616081608
 1  19.58738713631363  1.75590588078808 -1.78411679607961
 1  20.83085693919392  1.21061670257026  2.10352402120212
 1  22.14423231603160  1.99195966666667  1.01913856745675
 1  20.54306438493850  2.98670478767877  1.75441257795780

