%nproc=4
%Mem=3GB
# td=(NStates=1) iop(3/107=0140000000,3/108=0140000000) CAM-B3LYP/6-31G(d,p) 

TD

0 1
12 -7.21178587028703  0.59325770927093 -0.00334396439644
 6 -4.92208102460246 -2.00434766536654  0.49692509490949
 6 -4.78467449804980  2.71224994289429  1.08948905410541
 6 -9.32364912941294  3.16860441344134 -0.50551302660266
 6 -9.50324642264227 -1.75622738843884 -0.94118092299230
 7 -5.15188221942194  0.32109820042004  0.68013583758376
 6 -4.41342358965897 -0.85686682988299  0.86540443514351
 6 -2.96475269586959 -0.52675107310731  1.18436410551055
 6 -3.02464569146915  0.98937763936394  1.67112339163916
 6 -4.37080731543154  1.47631228232823  1.13052744664466
 6 -2.84969114991499  1.26781960126013  3.25923123772377
 6 -1.90491622132213 -0.80174616381638  0.11623543384338
 6 -0.47891360056006 -0.51702495049505  0.59322270457046
 6  0.55267719091909 -0.64996161806181 -0.48918870897090
 8  0.26991720852085 -1.09036281398140 -1.63288068116812
 8  1.80021862026203 -0.27270720912091 -0.07707309490949
 7 -7.05260290369037  2.65943915381538  0.17864878897890
 6 -6.00098024182418  3.36225999339934  0.68505438153815
 6 -6.30608551695169  4.78085494909491  0.72456071477148
 6 -7.64058884418442  4.91264306950695  0.33171929832983
 6 -8.11204073157316  3.53261019981998 -0.00246224762476
 6 -5.31784381828183  5.84155362906291  1.34723487868787
 6 -8.44194420242024  6.05033530313031  0.15964657715772
 6 -8.41752016201620  7.21476062576258  0.84220828012801
 7 -9.03998303940394  0.74851184558456 -0.71006758065807
 6 -9.77975546184618  1.87060038433843 -0.76938975247525
 6 -11.19102305500550  1.60850029452945 -1.18288314801480
 6 -11.19125861306131  0.24657220302030 -1.36228625692569
 6 -9.92896049964997 -0.27968816221622 -0.93108530983098
 6 -12.28144908260826  2.62695793719372 -1.17971742444244
 6 -12.36960075297530 -0.71696782058206 -1.70433976457646
 6 -12.37531944084409 -1.03015320762076 -3.22947359855986
 7 -7.26378934133413 -1.38376321202120 -0.20318299339934
 6 -8.28584291059106 -2.18470701620162 -0.63503508340834
 6 -7.97466950675067 -3.55423597499750 -0.49177947774777
 6 -6.58125591609161 -3.58459144124412 -0.16883896559656
 6 -6.28877260896090 -2.18422637843784  0.02411424682468
 6 -8.77481982148215 -4.78465456385639 -0.82467585068507
 6 -5.46726218911891 -4.41055461886189  0.21606658075808
 8 -5.32962395469547 -5.68428528552855  0.17401334993499
 6 -4.29209371197120 -3.39504695209521  0.61017933953395
 6 -3.50113429022902 -3.77655559825983  1.86765273377338
 8 -3.54032681608161 -3.19984734263426  2.93366672487249
 8 -2.82647800060006 -4.94857347584759  1.77872691019102
 6 -2.17606656365637 -5.49764497039704  2.92546994739474
 6  2.76078239863986 -0.69260754965497 -1.07523104030403
 6  4.12598348354835 -0.31614688258826 -0.39144170697070
 6  5.11190668196820  0.39609613761376 -0.94449732673267
 6  5.11161488708871  1.02049972527253 -2.31321545654565
 6  6.43009928862886  0.65690630663066 -0.10178070247025
 6  7.58914036663666  0.04939639163916 -0.94450477917792
 6  8.86756446804680  0.08811699559956 -0.09728583098310
 6  10.19939540014001 -0.54250591379138 -0.76215193519352
 6  9.94943822042204 -2.06391427132713 -0.99290625662566
 6  11.46739140294029 -0.16027091819182  0.01610364786479
 6  12.73315105060506 -0.48966900040004 -0.69279678477848
 6  14.00474174597460 -0.06619233353335  0.09416582818282
 6  15.40245623662366 -0.25083416701670 -0.52865851835184
 6  15.71548781978198 -1.71832022032203 -0.83711553785379
 6  16.55984297699770  0.42639915721572  0.37781251595160
 6  17.84874246194619  0.59532326192619 -0.14090061706171
 6  18.77363778237824  1.28690676917692  0.74294755145515
 6  20.33594639903990  1.26337577007701  0.13752045804580
 6  20.30032287808781  2.03306061116112 -1.24249894579458
 6  21.19111417841784  2.07455915581558  1.12798673867387
 1 -3.96577694119412  3.57939119051905  1.25827192299230
 1 -10.10521264456446  3.89982225672567 -0.61221574777478
 1 -10.37961238533853 -2.41637717281728 -1.22566038543854
 1 -2.75931321852185 -1.23703390609061  1.93614010471047
 1 -2.25506897319732  1.46049811091109  1.21549519851985
 1 -1.77225031143114  0.79406851325132  3.63397373477348
 1 -2.87384449354935  2.39614883768377  3.56911493369337
 1 -3.66450925142514  0.62673782808281  3.74081576677668
 1 -1.96248136713671 -1.82093276407641 -0.42090009710971
 1 -2.12994936393639 -0.08175055525553 -0.66942367696770
 1 -0.37626305500550  0.50897048434844  0.89847371037104
 1 -0.29553797409741 -1.14461522812281  1.40392385068507
 1 -5.53816799449945  6.87569508150815  0.96372620392039
 1 -5.31209268056806  5.92952583398340  2.52799481198120
 1 -4.17099194379438  5.50823509150915  1.11912264486449
 1 -9.15128538833883  6.02176555855586 -0.52640399309931
 1 -9.07252631633163  8.02998271927193  0.69887966366637
 1 -7.62340027212721  7.23562039843984  1.53772273257326
 1 -12.25736620962096  3.15261440854085 -2.29176500800080
 1 -13.28252555025503  2.10646938933893 -1.47579330753075
 1 -12.13886491919192  3.48890622472247 -0.23101354085409
 1 -12.28822078697870 -1.64778570137014 -1.07252075297530
 1 -13.35736803590359 -0.23588629912991 -1.48328408280828
 1 -13.23646884608461 -1.55256891899190 -3.41182214031403
 1 -12.16849725542554 -0.23891236253625 -3.95888486688669
 1 -11.51617645704570 -1.80804183138314 -3.43598187638764
 1 -9.56955157375737 -4.72694919571957 -1.69943600660066
 1 -8.17660204540454 -5.64237019031903 -0.70632058715872
 1 -9.69394357335734 -5.10633908230823  0.09872760406041
 1 -3.57221473997400 -3.54191079667967 -0.28783652175218
 1 -1.39656304390439 -4.81959417281728  3.32799451705171
 1 -3.13109954725473 -5.62727225212521  3.85190622832283
 1 -1.53694421492149 -6.48395918071807  2.49648300940094
 1  2.75004305910591 -1.69397602040204 -1.36050749944994
 1  2.72917935923592  0.00355844064406 -1.94090514801480
 1  4.14477496419642 -0.92259067286729  0.59210061026103
 1  4.19122443394339  1.01317686038604 -2.79672015771577
 1  5.20931786398640  2.23059348324832 -2.17651508990899
 1  5.86602617111711  0.59551074197420 -2.89554581148115
 1  6.62334051795180  1.65502548314831  0.18278789268927
 1  6.43415128722872  0.04906757005701  0.78742493799380
 1  7.18495061786179 -1.00195086808681 -1.13329808700870
 1  7.60079263776378  0.67385648864886 -2.01214203710371
 1  9.11900794509451  1.11561105860586 -0.07751532343234
 1  8.52391551235124 -0.26313466616662  0.77958408180818
 1  10.17467209900990 -0.17644149634963 -1.66132129012901
 1  8.96943655275528 -2.05615389888989 -1.53049143104310
 1  10.73021216181618 -2.55517891719172 -1.51039639773977
 1  9.87423962106211 -2.55440955565557  0.19035164146415
 1  11.42808445004500  0.96375280868087  0.29225699649965
 1  11.60818841434143 -0.67541883948395  0.95086140624062
 1  12.64227217971797 -1.68529594889489 -0.83796606810681
 1  12.69976580648065 -0.01843690769077 -1.73432776647665
 1  13.64160558085809  1.01000636393639  0.32243707240724
 1  13.92173048364836 -0.65706208510851  0.98734110811081
 1  15.26232663406341  0.43780717771777 -1.50961223002300
 1  15.83826762356236 -2.27428676987699  0.23796566106611
 1  14.83718536293629 -2.29892441244124 -1.17528890239024
 1  16.65167344694470 -1.82932382938294 -1.53541005430543
 1  16.15224849834983  1.22627096079608  0.67135305160516
 1  16.66838091589159 -0.04666095089509  1.31420991569157
 1  18.28584532223222 -0.52176869086909 -0.47504770037004
 1  17.79681699129913  1.24034292839284 -1.05235097869787
 1  18.43689274617462  2.26907817581758  0.87245919271927
 1  18.98624458695870  0.86576141564156  1.78966221172117
 1  20.65776560886089  0.14899589718972  0.12889878207821
 1  19.85807262576258  3.02930370687069 -1.14669685438544
 1  21.43882768356836  2.28770991309131 -1.64783276447645
 1  19.76335473307331  1.56842713291329 -2.02258064246425
 1  21.32894674817481  1.50877651855186  2.14733840264026
 1  22.36490438323832  2.17423789448945  0.93617027062706
 1  20.74130420892089  3.12362848004800  1.19850698739874

