%nproc=4
%Mem=2GB
# td=(NStates=1) CAM-B3LYP/6-31G(d,p) 

TD

0 1
<<<<<<< HEAD
12 -7.14652522552255  0.59505825392539  0.11324901230123
 6 -4.83456807480748 -1.94010518891889  0.56793332603260
 6 -4.80280020892089  2.77816626392639  1.15459182408241
 6 -9.48724345984598  3.09588508400840 -0.41134399409941
 6 -9.50909122282228 -1.68910442144214 -0.92844927402740
 7 -5.05423884848485  0.50670048814881  0.73483390169017
 6 -4.29608931503150 -0.65097491949195  0.76789481268127
 6 -2.86798580398040 -0.40501992769277  1.13765411961196
 6 -2.94439787818782  1.13181584988499  1.66848757945795
 6 -4.34900189508951  1.53362411121112  1.14602163206321
 6 -2.86953203530353  1.34158644674467  3.16191760066007
 6 -1.91198465946595 -0.61563682508251  0.05364932323232
 6 -0.39347677027703 -0.38616296349635  0.45575970527053
 6  0.50431156835684 -0.77141065396540 -0.66497187768777
 8  0.28214945504550 -1.05378078567857 -1.83230956265627
 8  1.83609542004200 -0.61878927532753 -0.24767155605561
 7 -7.15383583148315  2.62195778557856  0.30164886038604
 6 -6.02666194519452  3.31058203400340  0.72419595319532
 6 -6.38452570567057  4.71725601500150  0.72380306750675
 6 -7.71604431143114  4.90456108760876  0.33195158645865
 6 -8.22075634723472  3.45888508380838  0.09280182648265
 6 -5.53589154585459  5.87236970287029  1.20028478897890
 6 -8.56631442904290  6.00094112781278  0.16803378877888
 6 -8.56526041734173  7.14621073967397  0.98076432623262
 7 -9.08270054265427  0.69146200730073 -0.57997203090309
 6 -9.92163842354235  1.72348230133013 -0.62684900900090
 6 -11.23355245184518  1.40196853595360 -1.09081080058006
 6 -11.25358776267627  0.05494085818582 -1.18746746074607
 6 -9.95793147384738 -0.32533450775077 -0.88153316941694
 6 -12.29426825052505  2.38137870887089 -1.43041981678168
 6 -12.45770031633163 -0.80899830993099 -1.65877668616862
 6 -12.50128761716172 -0.95883829502950 -3.18686380498050
 7 -7.23985345364536 -1.41381099469947 -0.18258293529353
 6 -8.27690793059306 -2.23389856195620 -0.53335829102910
 6 -7.82544869046905 -3.57002527002700 -0.59473675097510
 6 -6.55041892599260 -3.57826216321632 -0.10070180208021
 6 -6.13657625402540 -2.14591287258726  0.04101690589059
 6 -8.62187965536554 -4.77350019241924 -0.74024250265026
 6 -5.35821029132913 -4.28061194469447  0.22254512711271
 8 -5.20556939483948 -5.56815129852985  0.25152218291829
 6 -4.11740531993199 -3.31607739753975  0.66513637893789
 6 -3.60441107200720 -3.64711993329333  1.94898527142714
 8 -3.85447704830483 -3.09053578977898  2.98810149124912
 8 -2.82485367906791 -4.80134485688569  1.72046062696270
 6 -2.33886447434744 -5.26833106220622  3.03742867836784
 6  2.87118963066307 -0.76384417901790 -1.24992619301930
 6  4.13422551155116 -0.41780995729573 -0.56426657565757
 6  5.15456894129413  0.26669293469347 -1.03524329702970
 6  5.12890131313131  1.09860250955096 -2.33944811011101
 6  6.53215754855486  0.42033388358836 -0.31416790199020
 6  7.71593913181318 -0.11631197809781 -1.10243719421942
 6  8.96802867546755 -0.12419755015502 -0.21430324312431
 6  10.23857448194819 -0.52732980468047 -0.91659262976298
 6  10.15194189438944 -2.04395533163316 -1.36072953795380
 6  11.52133501040104 -0.18895267606761 -0.02085121652165
 6  12.77336224392439 -0.40632468356836 -0.71412143504350
 6  13.95754522292229  0.01873067026703  0.18550561806181
 6  15.38314443934394 -0.12655638473847 -0.41902014181418
 6  15.71801347024702 -1.61800943474347 -0.66049566726673
 6  16.42072617851785  0.55644000400040  0.55508001520152
 6  17.68011260066006  0.70369176757676 -0.17381319591959
 6  18.81801217071707  1.30467868486849  0.73346377937794
 6  20.23846251545154  1.32833316681668  0.30448521172117
 6  20.54756611041104  1.91243954115412 -1.05827682038204
 6  21.18404933573358  1.86620955725573  1.26560192359236
 1 -4.11536302080208  3.59597511891189  1.35950053695369
 1 -10.30014040674067  3.76482731773177 -0.49277466896690
 1 -10.07917120652065 -2.61737107790779 -1.27417406960696
 1 -2.66188264516452 -1.10573888778878  1.98923961516152
 1 -2.36062966816682  1.86189977257726  1.06549720012001
 1 -1.83793825132513  1.17346779967997  3.51301501500150
 1 -3.33402846284628  2.39354341184118  3.35271743714371
 1 -3.50268371107111  0.69888457245725  3.60964337713771
 1 -2.10711319621962 -1.71500146054606 -0.23834774397440
 1 -2.38323999649965  0.01913916431643 -0.92592263186319
 1 -0.22575609300930  0.48934354825483  0.93379377847785
 1 -0.14490229222922 -1.06109062426243  1.31374532973297
 1 -5.77998677407741  6.86365500960096  0.62395810501050
 1 -5.66649363876388  6.10661402450245  2.26029232633263
 1 -4.53175713171317  5.68693986038604  1.08263143874387
 1 -9.25357741024103  5.85403155125513 -0.63711393959396
 1 -9.15608682458246  7.96118685758576  0.81147076887689
 1 -7.69187865366537  7.21521792129213  1.63436182168217
 1 -12.23817792289229  2.99295962196220 -2.34186719141914
 1 -13.26046571577158  2.00006389758976 -1.73081427292729
 1 -12.47719945104511  3.11223987868787 -0.59070031403140
 1 -12.53436821522152 -1.78083752885289 -1.15535048994899
 1 -13.51405012391239 -0.43773050985099 -1.18057358485849
 1 -13.30744709730973 -1.82929761596160 -3.32447233173317
 1 -12.63977754195420 -0.06584112171217 -3.66270976667667
 1 -11.58658493779378 -1.54965983308331 -3.42712133213321
 1 -9.37375697869787 -4.81190193309331 -1.61884514861486
 1 -7.92510187498750 -5.73952395659566 -0.95155476847685
 1 -9.43167305220522 -4.91674669596960 -0.03029485208521
 1 -3.38603929982998 -3.58731198189819 -0.02281755325533
 1 -1.84460262676268 -4.33242968266827  3.51922483778378
 1 -3.22819242784278 -5.62768438603860  3.79043188208821
 1 -1.93557166866687 -6.34822409560956  2.85568952185219
 1  2.83664296839684 -1.65880771667167 -1.73160712571257
 1  2.47373485108511 -0.10433615401540 -2.12346549874987
 1  4.39164006960696 -0.99304151935193  0.38944216021602
 1  4.14362332583258  1.39370808120812 -2.69110748044805
 1  5.56540195189519  2.13770402930293 -2.20740720892089
 1  5.63476078367837  0.40520162766277 -3.05111384238424
 1  6.75267733063306  1.46198019801980  0.02577522032203
 1  6.53701782118212 -0.07152518991899  0.75161487818782
 1  7.41271865656566 -1.15128436363636 -1.43915523912391
 1  7.90825326122612  0.54841804990499 -2.05936886048605
 1  9.13880593219322  0.78701658665867  0.05264289648965
 1  8.86660514921492 -0.81294680088009  0.54862272597260
 1  10.38599615101510 -0.01589905220522 -1.76747163666367
 1  9.59515450095009 -2.32445042154215 -2.37534345914591
 1  11.15213776947695 -2.42325910981098 -1.68361260516052
 1  9.88330121612161 -2.71521346334633 -0.57650709040904
 1  11.52198987988799  0.68794102430243  0.42121360886089
 1  11.38068112151215 -0.65295125642564  0.96699732133213
 1  12.98823214211421 -1.33708186938694 -1.12921058865887
 1  12.72762651515151  0.34348503950395 -1.63807716901690
 1  13.60442187888789  1.01801435743574  0.56960430343034
 1  13.77837059015902 -0.65182478717872  1.08889540604060
 1  15.34590787928793  0.40479996499650 -1.41876623462346
 1  15.82820026292629 -2.21703199529953  0.36380492659266
 1  14.92529558025803 -2.08316069166917 -1.18756617171717
 1  16.62985261466147 -1.69613513841384 -0.97894936443644
 1  15.90171537223722  1.54708254195420  0.93502004630463
 1  16.64920936813681 -0.05757493259326  1.49485224642464
 1  17.86431737043704 -0.37994454185419 -0.63644698509851
 1  17.68984604910491  1.25453277217722 -1.16040961676168
 1  18.60885167776778  2.27914207190719  1.04648265356536
 1  18.70627778807881  0.61665584658466  1.67504750505051
 1  20.52291720442044  0.26267241544154 -0.02310524652465
 1  20.26713081968197  3.10744430633063 -0.90179377277728
 1  21.53824807690769  1.72270892369237 -1.21626298959896
 1  19.90311421582159  1.31682349314932 -1.85634260326033
 1  21.03863983918392  1.55371348044805  2.27179679687969
 1  22.25797750405041  1.71800303000300  1.18351331763176
 1  21.09194892479248  2.88250833413341  1.48729917041704
=======
12 -7.14283485648565  0.64986373447345 -0.02264457705771
 6 -4.88316293429343 -1.89828100650065  0.56435296799680
 6 -4.79869979887989  2.80111855915592  1.07796416131613
 6 -9.43511824732473  3.12380787628763 -0.44824768446845
 6 -9.50485079877988 -1.76803231423142 -0.80374680378038
 7 -5.08355177977798  0.50103992209221  0.66258667696770
 6 -4.35819552565257 -0.71820164216422  0.76370439363936
 6 -2.84833383878388 -0.31543096879688  1.23116347054705
 6 -3.03153659205921  1.11100376867687  1.66024675537554
 6 -4.36365336023602  1.54809555835584  1.12251928182818
 6 -2.82017709980998  1.39226151425143  3.19197060596060
 6 -1.85382884388439 -0.56371163256326  0.16754071237124
 6 -0.39366678927893 -0.44176852405241  0.60523465276528
 6  0.61587272447245 -0.74306781968197 -0.50586596709671
 8  0.38782002210221 -1.22290769836984 -1.60796712841284
 8  1.88725053555356 -0.38479587598760 -0.10597738663866
 7 -7.09943039093909  2.58351394119412  0.24810350585058
 6 -6.03346262526253  3.36870784658466  0.72016555015502
 6 -6.45868312141214  4.78649293869387  0.77873856105611
 6 -7.73862656965697  4.79838046954695  0.31341973327333
 6 -8.15116938853885  3.49020821612161  0.05073762006201
 6 -5.62223017971797  5.98170063596360  1.28674343484348
 6 -8.70995879347935  5.91755278897890  0.16066305170517
 6 -8.62567645894589  7.02458857745775  0.87209345914591
 7 -9.07397967056706  0.67055991709171 -0.66922095579558
 6 -9.90599685938594  1.77777773087309 -0.71045736983698
 6 -11.31278037463746  1.50852919201920 -1.09584130363036
 6 -11.29791219511951  0.07440280438044 -1.29802851685169
 6 -9.95422110281028 -0.37837981228123 -0.93632864896490
 6 -12.34927375107511  2.45034560556056 -1.42857963276328
 6 -12.42004655095510 -0.74503191329133 -1.70132094059406
 6 -12.48432592099210 -1.06488890009001 -3.30726584518452
 7 -7.23277274557456 -1.39976959055906 -0.25236991399140
 6 -8.22964320412041 -2.22583775587559 -0.51124607980798
 6 -7.78974512011201 -3.59425769326933 -0.51681895919592
 6 -6.47700158425843 -3.55791012801280 -0.12374410631063
 6 -6.21459405580558 -2.24880316161616  0.07416022022202
 6 -8.78964643204320 -4.77095993839384 -0.68000647904791
 6 -5.23962843314331 -4.37547143064306  0.32021489408941
 8 -5.10300913881388 -5.56016049944994  0.13838086878688
 6 -4.16594017341734 -3.31756754655466  0.59610947624762
 6 -3.54327495839584 -3.72431765306531  1.92079245214521
 8 -3.72224382498250 -3.06067280348035  2.95711839293929
 8 -2.71603279697970 -4.76638136053605  1.66129471037104
 6 -2.12049263716372 -5.27973220232023  2.89931486698670
 6  2.85146765846585 -0.68476627122712 -1.12867406780678
 6  4.13147523652365 -0.45262343864386 -0.50331048004800
 6  5.13824730913091  0.31545781118112 -0.94149392209221
 6  5.00802922592259  1.25622827212721 -2.14483864916492
 6  6.42248658145815  0.54329617981798 -0.19889637483748
 6  7.68249578747875 -0.09450979787979 -0.93665061556156
 6  8.93564543714371 -0.07920305070507 -0.06404821762176
 6  10.15851647614761 -0.56375344704470 -0.83850482098210
 6  10.02970967116712 -2.05752668876888 -1.26036950195020
 6  11.50228310521052 -0.38857263806381 -0.03215234663466
 6  12.80996590429043 -0.54363841494149 -0.77255727862786
 6  13.96639610801080 -0.14131533433343  0.11351841934193
 6  15.38087421232123 -0.32790651975198 -0.48190643044304
 6  15.86659832873287 -1.68995662946295 -0.77042666036604
 6  16.40123422932293  0.34573893389339  0.45141964916492
 6  17.79499408880888  0.58277967636764 -0.25039085368537
 6  18.82307267676768  1.27768598559856  0.68838927192719
 6  20.24504317351735  1.30680101360136  0.21551631483148
 6  20.37117847164717  2.23680197739774 -1.12286327902790
 6  21.09135006580658  1.90264320062006  1.25319068246825
 1 -4.24306579107911  3.54892041344134  1.55320990789079
 1 -10.25167556025603  3.71955279027903 -0.71637702920292
 1 -10.24054734413441 -2.45320466126613 -1.12740939313931
 1 -2.80910736763676 -0.94571288518852  2.14799549074907
 1 -2.39803340854086  1.85228881148115  1.04926557695770
 1 -1.62703716121612  1.02381283418342  3.25933964746475
 1 -2.84115917591759  2.42211626912691  3.52878504390439
 1 -3.39836327902790  0.74296898089809  4.08129054185419
 1 -2.15252773767377 -1.52151211161116 -0.22776668586859
 1 -1.97423909640964  0.21391864226423 -0.69160920052005
 1 -0.18058157555756  0.55685029892989  1.10304070317032
 1 -0.28074587658766 -1.16619113431343  1.46711066626663
 1 -6.11398017341734  6.88216686078608  0.67130283948395
 1 -5.89739672907291  6.23460682378238  2.24970126722672
 1 -4.43735769176918  5.81807297369737  1.15005818141814
 1 -9.50428248074807  5.86651279937994 -0.52006223442344
 1 -9.38431964786479  7.81107184608461  0.71885150695069
 1 -7.93198266406641  7.09986638613861  1.74268265376538
 1 -11.95349945504551  3.11743206920692 -2.15061806650665
 1 -13.28349801900190  2.03401729292929 -1.92516370787079
 1 -12.63994572567257  2.95410406510651 -0.53832507650765
 1 -12.47779255765577 -1.72696214131413 -1.37771272617262
 1 -13.27901662056206 -0.09382611941194 -1.32376790429043
 1 -13.53737008960896 -1.51898658485849 -3.35236512101210
 1 -12.54225778997900 -0.11060559815982 -3.74283777947795
 1 -11.62907918721872 -1.65443031013101 -3.74022264226423
 1 -9.27247685068507 -4.79892063496350 -1.59850311441144
 1 -8.22417178197820 -5.66924692889289 -0.61933154615462
 1 -9.53225311021102 -4.76450147144714 -0.00264208680868
 1 -3.39062975887589 -3.40545379607961 -0.09739501100110
 1 -1.39527769426943 -4.65791223092309  3.30967388268827
 1 -3.02129173777378 -5.61926354395440  3.52463530243024
 1 -1.53467157865787 -6.24786405960596  2.60312426532653
 1  2.84806411051105 -1.72149398529853 -1.44999896489649
 1  2.63383086068607 -0.08921464186419 -2.07428058025803
 1  4.23487439303930 -0.93785600080008  0.41417463346335
 1  3.93150211371137  1.04261297169717 -2.45653402310231
 1  5.20776618831883  2.39725998489849 -1.74645111331133
 1  5.79634694229423  1.09154026152615 -2.97814654565457
 1  6.50740280318032  1.48729272927293 -0.07826518371837
 1  6.32872699209921  0.00355231783178  0.83270298699870
 1  7.62310969566957 -1.20981021622162 -1.06821814541454
 1  7.86665910181018  0.37184039213921 -2.07682060566057
 1  8.99982203380338  0.96367425242524  0.10731836403640
 1  8.86409489818982 -0.76273177937794  0.78560642434243
 1  10.25250280168017 -0.14523198549855 -1.86655154465447
 1  9.23742872837284 -2.28063604010401 -1.99385531033103
 1  11.09376193189319 -2.25560234413441 -1.66365060896090
 1  9.85458834483448 -2.62522446444644 -0.15588502820282
 1  11.62234991589159  0.60257248744875  0.39390087758776
 1  11.50332338573858 -0.87549351065106  0.80353097469747
 1  12.79041236013601 -1.56357451865187 -1.09752742034203
 1  12.84707846034603  0.06851754275428 -1.69554291559156
 1  13.86148758545855  0.80766332233223  0.28692603560356
 1  14.02793554665467 -0.68888849354935  1.16975349184919
 1  15.35987927642764  0.36411589658966 -1.38667302530253
 1  15.76227367026703 -2.45283557565757  0.00363890999100
 1  15.03140619131913 -2.02824520012001 -1.47469488458846
 1  16.75738536793680 -1.87652317721772 -1.06321779127913
 1  16.06737193789379  1.56289412311231  0.50364690899090
 1  16.39547399459946 -0.22231140624062  1.27023978517852
 1  18.15622656135614 -0.37742428982898 -0.34613795419542
 1  17.80184724922492  1.14932225112511 -1.27869144494449
 1  18.42061285388539  2.26251040874087  0.79487749304930
 1  18.62795995629563  1.08287246824682  1.72819281958196
 1  20.58662357505751  0.45851199939994 -0.34369730573057
 1  19.88087219381938  3.25638920082008 -0.96866045944595
 1  21.44736898899890  2.35407206000600 -1.27719908320832
 1  19.79454335873588  2.02125393619362 -2.17083405240524
 1  21.16275225042504  1.09552766186619  2.04535415261526
 1  22.10702240854085  2.06671790149015  0.86913187948795
 1  20.33683341324133  2.66669675297530  1.87616805730573
>>>>>>> 8e03b5b5abfc0030b3aa597dc0de36371bfbd096

