%nproc=4
%Mem=2GB
# td=(NStates=1) CAM-B3LYP/6-31G(d,p) 

TD

0 1
12 -7.13344391739174  0.53682243034303  0.09201688908891
 6 -4.78513313131313 -1.95817699609961  0.50352688538854
 6 -4.82581251015102  2.90802925022502  1.10151651655166
 6 -9.32020675617562  3.13162865836584 -0.37242010171017
 6 -9.51925223892389 -1.76251176217622 -0.84404083318332
 7 -5.08528195279528  0.41780159825983  0.70608102640264
 6 -4.21924163026303 -0.69943976597660  0.80871889508951
 6 -2.84333333873387 -0.38254768046805  1.31006136033603
 6 -3.07741117951795  1.16011868016802  1.79979070977098
 6 -4.42153914881488  1.51175192399240  1.15891292119212
 6 -3.09684476657666  1.27969025712571  3.27956936583658
 6 -1.86836029702970 -0.61776703810381  0.13650760906091
 6 -0.48344576717672 -0.31196554375438  0.52715684498450
 6  0.48501963916392 -0.53100661356136 -0.68949432993299
 8  0.08751999209921 -0.82649805740574 -1.80976730843084
 8  1.79556136663666 -0.31990938733873 -0.24684147304730
 7 -7.11409185708571  2.62712830263026  0.27113580908091
 6 -6.06795607460746  3.40012098789879  0.80579411301130
 6 -6.43727098019802  4.76873116251625  0.80588127532753
 6 -7.75217792479248  4.86938757025703  0.41295968726873
 6 -8.12643691529153  3.48437763306331  0.10534308060806
 6 -5.59870782748275  5.92672513841384  1.28556331683168
 6 -8.56872467006701  6.03168420212021  0.12432941834183
 6 -8.49290318161816  7.16500261886189  0.75123137293729
 7 -9.20672294489449  0.62548540964096 -0.44605863956396
 6 -9.81350761046105  1.76023597669767 -0.73579990409041
 6 -11.15194429102910  1.51401974107411 -1.14657637713771
 6 -11.19763216711671  0.12415777987799 -1.30161887588759
 6 -9.97109278997900 -0.37420939523952 -0.84741975807581
 6 -12.25151397509751  2.47878844984498 -1.57554432923292
 6 -12.39270381668167 -0.78849625972597 -1.77602841134113
 6 -12.15033252165217 -1.36642905410541 -3.16466158475848
 7 -7.19889935823582 -1.40922053565357 -0.19260393739374
 6 -8.27095733553355 -2.27377254935494 -0.52091704690469
 6 -7.78498464406441 -3.69991825932593 -0.49752703000300
 6 -6.49708359245925 -3.58683302030203 -0.04705643754375
 6 -6.13903650005000 -2.19752803410341  0.07924072827283
 6 -8.51771923932393 -4.85839868226823 -0.69905838423842
 6 -5.33725819611961 -4.33577746124612  0.23913678627863
 8 -5.24546338423842 -5.56703118651865  0.09167619831983
 6 -4.16634021342134 -3.38041383118312  0.55442530783078
 6 -3.53032366326633 -3.66594181548155  1.90717109000900
 8 -3.68471007160716 -2.96653338953895  2.84768744984498
 8 -2.76201739543954 -4.72128685108511  1.87070565146515
 6 -2.05976656455646 -5.15531976107611  3.06863179867987
 6  2.69366187788779 -0.50957875247525 -1.31543274367437
 6  4.05270735973597 -0.38913709000900 -0.67524767376738
 6  5.14125761016102  0.33961022642264 -1.11791156385639
 6  5.13125154815481  1.20974362366237 -2.31230539583958
 6  6.44460879367937  0.37709956015602 -0.31187767296730
 6  7.64939247714771 -0.29382972987299 -1.00551750225022
 6  8.84706657925793 -0.20713584398440 -0.16852866566657
 6  10.18881950645064 -0.63612068376838 -0.88226919741974
 6  10.18953565376538 -2.10399133523352 -1.42599606460646
 6  11.38975185208521 -0.38256203700370  0.06573744234423
 6  12.77562246994699 -0.53686773787379 -0.68347837073707
 6  14.00088955735574 -0.06511771457146  0.23917098459846
 6  15.30520664556456 -0.19556328542854 -0.51015925572557
 6  15.68584025292529 -1.64194182798280 -0.86462608030803
 6  16.40610471637164  0.33463782378238  0.42963747094709
 6  17.85444003340334  0.49042044044404 -0.16044185878588
 6  18.75131550105010  1.26154437143714  0.80186061906191
 6  20.24877354655466  1.34495482898290  0.23507827102710
 6  20.29818117191719  2.23335163236324 -1.00690168286829
 6  21.20497142794279  1.89650258655866  1.34887025042504
 1 -4.16641812631263  3.50176569796980  1.72990757765777
 1 -10.07809820252025  3.93389422442244 -0.60949634113411
 1 -10.35762905230523 -2.49558889968997 -0.96276292849285
 1 -2.47576403330333 -1.11455976987699  2.03347403860386
 1 -2.26069967516752  1.68232181478148  1.36412706310631
 1 -2.32254671217122  0.64035448834884  4.02723643714372
 1 -3.19267432743274  2.36512056955696  3.67329949534953
 1 -4.01520496319632  0.82034671867187  3.76520893369337
 1 -2.19873235813581 -1.67708766916692  0.00945703650365
 1 -2.16371804430443 -0.01383413301330 -0.57736777637764
 1 -0.17644116151615  0.59000361426143  0.97542794189419
 1 -0.28111591359136 -1.11246576177618  1.30484443964396
 1 -6.00778955435544  7.03130177427743  1.18440414961496
 1 -5.18250523992399  5.66863022612261  2.38860515761576
 1 -4.62227618361836  5.79483064946495  0.63683685928593
 1 -9.23221527402740  5.85568171627163 -0.77275750395039
 1 -9.24260547644764  8.02561330023002  0.36846646844685
 1 -8.06570603640364  7.15276167566757  1.61645003050305
 1 -11.84087819291929  3.26237656365637 -2.26275928062806
 1 -13.15053472267227  2.14221811301130 -1.99492068356836
 1 -12.70972270337034  2.84663331803180 -0.57142838683868
 1 -12.36934171257126 -1.62945239033903 -1.12910786568657
 1 -13.41441015991599 -0.31155789258926 -1.69118464596460
 1 -12.85831218381838 -1.88920360656066 -3.55034491899190
 1 -12.11031459565957 -0.57579211681168 -3.92369586528653
 1 -11.06617289658966 -1.73127799489949 -3.19944856485649
 1 -8.80566016901690 -5.13625436833683 -1.77083034713471
 1 -7.67902726752675 -5.69708971317132 -0.54505411841184
 1 -9.38343822872287 -4.73008803010301 -0.22499432203220
 1 -3.36963765966597 -3.37614086478648 -0.10028530003000
 1 -1.37007517401740 -4.54164060376038  3.52085500080008
 1 -2.69337894649465 -5.37157877547755  3.87705054395440
 1 -1.55718382988299 -6.09291856505651  2.79706365926593
 1  2.44157346144614 -1.46933876977698 -1.89923388838884
 1  2.40877835543554  0.17803208280828 -2.20725387758776
 1  4.21849275487549 -0.90657287248725  0.13525674167417
 1  4.15822478597860  1.14594330473047 -2.79903827352735
 1  5.41433684538454  2.23291355025503 -2.18585505370537
 1  5.64992229982998  0.84643575107511 -3.09980871187119
 1  6.70630269316932  1.55444944494449 -0.08931628882888
 1  6.27942206160616 -0.18694673207321  0.66548626532653
 1  7.39108649334933 -1.19897913311331 -1.34373569716972
 1  7.73215565146515  0.23295650375037 -1.96972989658966
 1  9.07256930853085  0.77256514151415  0.29874750695070
 1  8.82432092079208 -0.96497200340034  0.51073893759376
 1  10.34225177657766  0.00283282098210 -1.73412830233023
 1  9.43015800130013 -2.30450842734273 -2.10252617741774
 1  11.08415097079708 -2.28528531243124 -1.92007625152515
 1  9.92692557855786 -2.92569451145115 -0.65619505920592
 1  11.49421710261026  0.76139837003700  0.41500298779878
 1  11.30181323472347 -0.85828178947895  0.83133375497550
 1  12.81662498139814 -1.70603876507651 -0.97269493709371
 1  12.66076982948295  0.05244593559356 -1.41722508380838
 1  13.77826926362636  0.90417297329733  0.62390973397340
 1  13.94332708580858 -0.95981558625863  1.06981349784979
 1  15.00890417891789  0.53885337033703 -1.23436779477948
 1  15.71782922582258 -2.23229352145215 -0.08826027992799
 1  15.15513856455646 -2.15832820842084 -1.69580699579958
 1  16.69971960136014 -1.59688521342134 -1.41411288078808
 1  16.12592779347935  1.39981781548155  0.81961850615062
 1  16.39751419861986 -0.25159433453345  1.28666142734273
 1  18.23218415711571 -0.38978552595260 -0.34785812621262
 1  17.61006807130713  1.13341065996600 -1.01316489228923
 1  18.37338813141314  2.44886904460446  0.96228423372337
 1  18.74303146344635  0.78681286228623  1.92793279357936
 1  20.48403331603160  0.36801294949495  0.13928099209921
 1  20.04802890949095  3.32797635953595 -0.89922351575158
 1  21.40949520162016  1.94840149294930 -1.43314467776778
 1  19.60796470087009  1.63659547034703 -1.79339630863086
 1  21.19330530573057  1.26959506860686  2.22420203740374
 1  22.12267397369737  1.82041327102710  0.63151811811181
 1  20.84708443834383  3.00867095039504  1.63568400890089

