%nproc=4
%Mem=2GB
# td=(NStates=1) CAM-B3LYP/6-31G(d,p) 

TD

0 1
<<<<<<< HEAD
12 -7.14306487948795  0.52684143224322  0.14491217861786
 6 -4.79683430143014 -1.94194537293729  0.52550908360836
 6 -4.84863479237924  2.76041448874888  1.25305167006701
 6 -9.33978871437144  3.03289878537854 -0.47162002170217
 6 -9.51239155285529 -1.77156266726673 -0.74295072417242
 7 -5.11812523712371  0.40731054915492  0.83131354965497
 6 -4.26101580768077 -0.71712153415342  0.81916994019402
 6 -2.89674868026803 -0.32402182788279  1.39620997519752
 6 -3.08061149954995  1.18074074237424  1.73882461316132
 6 -4.40553754865487  1.56004675347535  1.18558558845885
 6 -2.94010909300930  1.49565185328533  3.16203761266127
 6 -1.95092855385539 -0.51618688008801  0.17149110741074
 6 -0.48386580918092 -0.27744209140914  0.47056118541854
 6  0.50412154935494 -0.54964847774777 -0.64738011851185
 8  0.17118835893589 -0.81917732533253 -1.75856218791879
 8  1.74174598509851 -0.43180057645765 -0.20412720162016
 7 -7.05300574847485  2.70517610741074  0.29888858435844
 6 -6.06279555855586  3.39157013281328  0.87283081668167
 6 -6.41998925202520  4.79807409680968  0.73645433263326
 6 -7.67707041404140  4.82998362986299  0.38368675997600
 6 -8.10984525612561  3.40714991029103  0.03186573287329
 6 -5.51784974167417  5.90724319021902  1.09722448294829
 6 -8.57368516611661  6.03189422312231 -0.01864487908791
 6 -8.66378026932693  7.11797791639164  0.84873112291229
 7 -9.14996726932693  0.68238109920992 -0.52160619431943
 6 -9.84212047174717  1.79843979707971 -0.72374869896990
 6 -11.10646974357436  1.45676401550155 -1.14053577307731
 6 -11.22455485938594  0.08582394649465 -1.21902061606161
 6 -9.92151783248325 -0.42413438773877 -0.90211522762276
 6 -12.23998282198220  2.46917748874887 -1.41890866566657
 6 -12.39231377767777 -0.77187459755976 -1.66987779627963
 6 -12.33567105550555 -1.25817822902290 -3.22540765936594
 7 -7.20275974427443 -1.46100571417142 -0.17090176717672
 6 -8.23013325312531 -2.30472564466447 -0.52184713991399
 6 -7.77039318491849 -3.70636890439044 -0.49842712001200
 6 -6.44307819191919 -3.56206054305431 -0.16713844574457
 6 -6.08940153655366 -2.17158543984398 -0.00167736353635
 6 -8.52094956235623 -4.84544738713871 -0.78413689208921
 6 -5.33430790109011 -4.35144902840284  0.16876974957496
 8 -5.04786362426243 -5.55014949834983  0.17222425312531
 6 -4.18915249464946 -3.35553134293429  0.57050691599160
 6 -3.55327595849585 -3.61683690499050  1.84973534643464
 8 -3.81443304390439 -3.09762649884988  2.90753343444344
 8 -2.60636182988299 -4.66307102950295  1.71158973987399
 6 -2.17496808470847 -5.11693592269227  2.89939487498750
 6  2.71138365006501 -0.77385518011801 -1.19744094449445
 6  3.99295138413841 -0.47330550685069 -0.52235238423842
 6  5.11553503790379  0.27989425482548 -0.98851862456246
 6  5.04798322132213  1.10666331563156 -2.33259742504250
 6  6.37312164496450  0.23103495369537 -0.21883836903690
 6  7.63146068396840 -0.25087543444344 -0.96174312481248
 6  8.87097897049705 -0.10530566096610 -0.11220303310331
 6  10.28400902540254 -0.56304337603760 -0.82627359785979
 6  10.09888658885889 -1.88540947704770 -1.49574303930393
 6  11.51354423132313 -0.27469124992499 -0.07271640304030
 6  12.85278018571857 -0.52963701480148 -0.70192021492149
 6  13.99288875727573 -0.05637684048405  0.17770483798380
 6  15.37754387928793 -0.17634136323632 -0.44924316411641
 6  15.60675234413441 -1.56080371417142 -1.06923654135414
 6  16.36251035693569  0.33866822682268  0.43674818201820
 6  17.71779636903690  0.48246964536454 -0.25958177277728
 6  18.73087345684569  1.22147036403640  0.72486291929193
 6  20.18749741894189  1.28847918141814  0.35458022122212
 6  20.35765711951195  2.04275257245725 -1.00803179587959
 6  20.99976090689069  1.97065000130013  1.46873223662366
 1 -4.14166565106511  3.50186570797080  1.67057164406441
 1 -10.01198159085909  3.86190702570257 -0.54009940144014
 1 -10.15930922032203 -2.32399173997400 -0.95815246744674
 1 -2.70279673657366 -0.91503981788179  2.19164985618562
 1 -2.43360696589659  1.68139172177218  1.13765441584158
 1 -2.09038349584959  1.09044949784978  3.63027674117412
 1 -2.98036309630963  2.62268632613261  3.48333049844984
 1 -3.93708715141514  0.95183986798680  3.64360677347735
 1 -2.22126461136114 -1.63468342874287 -0.08153206240624
 1 -2.41746341884188 -0.06036878647865 -0.65951599119912
 1 -0.27708122552255  0.56257087098710  0.99879027812781
 1 -0.21230903290329 -1.09726424162416  1.08285224042404
 1 -5.72917169256926  6.81619026312631  0.47277298649865
 1 -5.55338232763276  6.18621198429843  2.20726702380238
 1 -4.45377933393339  5.74785595199520  0.92632580818082
 1 -9.28500055255526  5.84389053715371 -0.78578880708071
 1 -9.17010822672267  8.05931667056706  0.44197381918192
 1 -7.91277074287429  7.04046044554456  1.62041042654265
 1 -11.85723982908291  3.37274760076008 -2.05322832753275
 1 -13.06567623682368  2.07131102230223 -1.81614280578058
 1 -12.26797852895290  2.93042169686969 -0.42219346334633
 1 -12.53621840024002 -1.69133857895790 -1.06166112101210
 1 -13.24062278117812 -0.18470520732073 -1.49074460196020
 1 -13.06108246084608 -1.78122280848085 -3.70484036853685
 1 -12.30794435863586 -0.30046458405841 -3.75446894259426
 1 -11.24095037433743 -1.83660852795280 -3.23394201420142
 1 -8.87039664266427 -4.71556229912991 -1.79083234733473
 1 -7.84310367516752 -5.59892989718972 -0.68294790779078
 1 -9.32812269716972 -4.98995401670167 -0.01596341894189
 1 -3.42489318521852 -3.49932318301830 -0.28673394489449
 1 -1.51494966146615 -4.22704914461446  3.15743865916592
 1 -3.02508211681168 -5.39010062766277  3.60352319121912
 1 -1.74041215271527 -6.00973024622462  2.75754970787079
 1  2.65724502860286 -1.76721855775578 -1.36187015201520
 1  2.65724320192019 -0.29570529092909 -2.09666281848185
 1  4.06846775237524 -0.81310352555256  0.37158037403740
 1  4.14925388888889  0.99083779417942 -2.92489085878588
 1  5.31576698839884  2.02732299119912 -1.95791225942594
 1  5.78734604220422  0.70481158865887 -2.96384511551155
 1  6.68843090599060  1.10922492249225  0.26783942674267
 1  6.18573269266927 -0.31483952135213  0.72863257995800
 1  7.35153253795380 -1.23980321552155 -1.26776810041004
 1  7.69325176107611  0.22809601770177 -1.91311423502350
 1  9.12183423502350  0.75231311631163  0.30393802600260
 1  8.70064855355536 -0.70066557275728  0.56880474417442
 1  10.38765631703170  0.12782532023202 -1.83794868436844
 1  9.21935692119212 -1.86128410491049 -2.06866279107911
 1  11.17104966066607 -2.03666044994499 -2.12593683758376
 1  10.04432731873187 -2.69679162116212 -0.71847128682868
 1  11.40721840274027  0.84903713391339  0.27839932743274
 1  11.47985103850385 -0.77895385668567  0.96423704530453
 1  13.10973429232923 -1.60976913811381 -0.76528419601960
 1  12.86265001750175 -0.15005431443144 -1.81249461076108
 1  13.74513595029503  1.00475303130313  0.56905424842484
 1  14.02770552365237 -0.84731433613361  1.03383990049005
 1  15.26296958545855  0.61459094409441 -1.42577693569357
 1  15.49772721562156 -2.42388268036804 -0.22719417331733
 1  14.95066811751175 -2.01363373897390 -1.61865928102810
 1  16.69282891229123 -1.47596312121212 -1.43860533003300
 1  15.88892409310931  1.22191002470247  0.67103364766477
 1  16.39868431563156 -0.09757893299330  1.55470823202320
 1  18.40933187188719 -0.45234178157816 -0.57100044044404
 1  17.61782884738474  0.93639095799580 -1.29253282908291
 1  18.50760155275528  2.21812597029703  0.86406441174117
 1  18.71739890019002  0.80795497649765  1.64956495679568
 1  20.68396330903090  0.22102825102510  0.25873293729373
 1  19.66344045064506  2.99991355325533 -1.14892848624862
 1  21.45432968506851  2.35922257505751 -1.27856922022202
 1  19.91950585498550  1.15896770757076 -1.79404637363736
 1  21.07123309850985  1.20914902400240  2.54486410361036
 1  22.04226593289329  2.15195642534253  1.27374234053405
 1  20.84616434633464  2.87135721902190  1.83496393689369
=======
12 -7.17056762976298  0.62080082818282  0.10482817021702
 6 -4.82896751475147 -2.01129230763076  0.45033156585659
 6 -4.76984691359136  2.90499894719472  1.06004236913691
 6 -9.42675741124112  3.05738123362336 -0.37068992869287
 6 -9.56109642334233 -1.76574208520852 -0.90164659375938
 7 -5.09921334593459  0.42958277637764  0.65305572387239
 6 -4.34019372547255 -0.72223204520452  0.74967299049905
 6 -2.87715672107211 -0.35841526722672  1.15811616581658
 6 -2.95919935833583  1.15086775507551  1.67990872157216
 6 -4.43087008190819  1.51482223102310  1.02092912281228
 6 -2.92557763986399  1.24628691679168  3.26103751265127
 6 -1.94421788278828 -0.50263552495250 -0.05285132683268
 6 -0.44901232383238 -0.46084043124312  0.49570369966997
 6  0.57269840704070 -0.67934144704470 -0.57273265376538
 8  0.29714095419542 -1.13957936553655 -1.67487381908191
 8  1.81264307480748 -0.29094649104910 -0.14511130003000
 7 -7.07518796669667  2.61171676147615  0.35858455395540
 6 -6.03063234223422  3.41854283008301  0.77404093769377
 6 -6.43850110321032  4.78237252665267  0.85268595579558
 6 -7.72157486448645  4.83093372487249  0.44566295759576
 6 -8.18528279987999  3.49781897719772  0.10027257355736
 6 -5.57468542524252  5.87406987288729  1.16237099759976
 6 -8.54238203580358  6.06014704840484  0.23203018841884
 6 -8.46262015331533  7.22131825042504  0.80346659645965
 7 -9.14780705330533  0.67982084318432 -0.56449048274827
 6 -9.87003326302630  1.79729968306831 -0.70783710781078
 6 -11.23043213981398  1.40097843694369 -1.10499221872187
 6 -11.22189459335934  0.05620098419842 -1.22580129412941
 6 -9.87490317101710 -0.38833080738074 -0.99523453955396
 6 -12.30596942064206  2.42018258925893 -1.36472324712471
 6 -12.33588813511351 -0.83861127122712 -1.68921973047305
 6 -12.37136462486249 -1.25064747594760 -3.14304942354235
 7 -7.20628009630963 -1.37697731133113 -0.17912258925893
 6 -8.33702394219422 -2.18809398149815 -0.56953190839084
 6 -7.78686483208321 -3.62221048854886 -0.70298757605761
 6 -6.41951583568357 -3.66013035003500 -0.28483021492149
 6 -6.15972856925693 -2.18092637393739  0.02101490569057
 6 -8.46659412681268 -4.97487032943294 -0.90835931433143
 6 -5.24986945724572 -4.36840072357236  0.10213308590859
 8 -5.13929276717672 -5.55942042544254  0.15118214891489
 6 -4.01977555695569 -3.29386517631763  0.57486735203520
 6 -3.63562419331933 -3.69122434373437  1.94452482538254
 8 -3.86651825242524 -3.07318405460546  3.01014369546955
 8 -2.78199939363936 -4.67712243464346  1.87145572647265
 6 -2.18978956685669 -5.19908413751375  3.09056399189919
 6  2.80052256395640 -0.58941673627363 -1.13797499789979
 6  4.24743683268327 -0.40061823812381 -0.52849299829983
 6  5.12963644804480  0.46675294069407 -0.95059483218322
 6  5.06919534253425  1.40716336563656 -2.07348151345135
 6  6.37242157495750  0.53485533573357 -0.20275676087609
 6  7.53240077797780 -0.23915426232623 -0.87644459495950
 6  8.84212608520852 -0.14927005740574 -0.08249006180618
 6  10.22117274177418 -0.57106417811781 -0.77243821432143
 6  9.99934663486349 -2.02767370347035 -1.36315978097810
 6  11.36863974087409 -0.33596737753775  0.13035390399040
 6  12.76335124282428 -0.46541059215922 -0.58073809670967
 6  13.93280274867487 -0.21665286808681  0.22039910741074
 6  15.32793891879188 -0.23566729582958 -0.48656689648965
 6  15.81500316921692 -1.74674230803080 -0.83394301200120
 6  16.42640674657466  0.46802116211621  0.43409791699170
 6  17.81049563896390  0.55733713211321 -0.21603741834183
 6  18.77582795229523  1.23624184118412  0.70145057805781
 6  20.24641331053105  1.24095442894289  0.17376213941394
 6  20.39110046384639  1.92702099929993 -1.24386537923792
 6  21.21289222002200  2.04168710501050  1.15146050945095
 1 -4.06975846034604  3.49794531593159  1.41832641954195
 1 -10.21759215191519  3.79181001600160 -0.42825821732173
 1 -10.34343763316332 -2.59980932173217 -1.21021767396740
 1 -2.41769822672267 -0.91078939283928  1.95660635183518
 1 -2.21646525172517  1.91050463306331  1.29510016041604
 1 -1.93363782128213  1.20384083698370  3.64665837933793
 1 -3.05145020502050  2.44956901440144  3.19909207460746
 1 -3.78430187288729  0.82543722772277  3.59846225902590
 1 -2.00253273817382 -1.60701066146615 -0.53157706690669
 1 -1.98945061756176  0.29044629502950 -0.92227226682668
 1 -0.21852536993699  0.56024063796380  0.92382278137814
 1 -0.25003280528053 -1.13344785998600  1.37803175837584
 1 -6.03898267366737  6.90526917101710  0.84822053125313
 1 -5.44231122052205  6.18992235533553  2.17146344344434
 1 -4.51737569356936  5.74155532193219  0.75785896149615
 1 -9.32543459595960  5.74221036913691 -0.52239246744674
 1 -8.92465368126813  8.14795553445344  0.33485310711071
 1 -7.62798226402640  7.44110050955095  1.37740612611261
 1 -12.20891499659966  2.98597892389239 -2.43421642634263
 1 -13.26337600680068  1.99634352555256 -1.63124431593159
 1 -12.44810654175418  3.31062971767177 -0.57384862886289
 1 -12.54692947134714 -1.64796424152415 -1.00311526642664
 1 -13.30575929482948 -0.22027876467647 -1.48016354385439
 1 -13.22363871647165 -2.01072575877588 -3.82716260076007
 1 -12.31214477867787 -0.24382892049205 -3.77424091979198
 1 -11.54978125742574 -1.87271213831383 -3.39443806380638
 1 -8.93118272127213 -5.00832157505751 -1.80530379447945
 1 -7.75393475827583 -5.78820882508251 -0.54682429542954
 1 -9.34855474037404 -5.21035605690569 -0.15903772637264
 1 -3.32917361326133 -3.52822607330733 -0.31920719221922
 1 -1.75338350485049 -4.31144758445845  3.68578149344934
 1 -2.98533814241424 -5.39646126372637  3.69450228912891
 1 -1.49588770027003 -5.94452372557256  2.70309426232623
 1  2.61705100920092 -1.57739957585759 -1.60054401940194
 1  2.65194267186719  0.18679295889589 -2.05884903710371
 1  4.40840174577458 -1.25680789598960  0.21792500850085
 1  4.15583454695470  1.29395810621062 -2.68624699439944
 1  5.21061647334733  2.50150040894089 -1.82367883608361
 1  5.91439874747475  1.27758886638664 -2.78019675067507
 1  6.67359942284228  1.65556955695570  0.00005264806481
 1  6.24690881028103  0.12962492509251  0.70100981768177
 1  7.22233961866187 -1.25393462866287 -1.20279160276028
 1  7.79483191909191  0.36520972907291 -1.78620154375438
 1  9.18451050265026  0.89449733473347  0.10709834203420
 1  8.73343183188319 -0.65153065926593  0.93159102280228
 1  10.18960651205120  0.09033157085709 -1.64453934343434
 1  9.04201918741874 -2.20103808030803 -1.82472839763976
 1  10.85982853855386 -2.49614639853985 -1.95174941884188
 1  9.96265915191519 -2.59998194019402 -0.49902934263426
 1  11.39061674257426  0.72710494069407  0.63049453695370
 1  11.07793084648465 -1.24315027632763  1.01859248084808
 1  12.73227654655466 -1.54807296849685 -0.78062573017302
 1  12.64948870137014  0.42338302930293 -1.43957731903190
 1  13.79271070777078  0.81747430343034  0.47948529152915
 1  14.03448620172017 -0.98180778547855  1.14678119461946
 1  15.24165745424543  0.40888037303730 -1.44477883588359
 1  16.03007044994499 -2.27582787488749  0.12384093019302
 1  14.84202725342534 -2.27908028362836 -1.24172158725873
 1  16.53530315971597 -1.74133965886589 -1.68985045454546
 1  16.03536873757376  1.39678751245125  0.65917246154615
 1  16.40695514271427 -0.07879705480548  1.37201996319632
 1  18.00818175687569 -0.57725427282728 -0.52787612801280
 1  17.85050211471147  1.16436375527553 -1.14684826062606
 1  18.39442023462346  2.26728088578858  0.65256326162616
 1  18.69063622392239  0.93788796979698  1.77114711501150
 1  20.43375828852885  0.11466761496150  0.09649671367137
 1  19.93197730433043  3.10766432833283 -1.46928052145215
 1  21.45168942104210  1.97509416221622 -1.62661402470247
 1  19.66345024942494  1.39891170197020 -1.75362233123312
 1  21.13752972817282  1.54102221132113  2.00635025222522
 1  22.14332603890389  2.29481071077108  0.76543150945095
 1  20.73611334123412  3.20563064636464  1.36540698119812
>>>>>>> 8e03b5b5abfc0030b3aa597dc0de36371bfbd096

