%nproc=4
%Mem=2GB
# td=(NStates=1) CAM-B3LYP/6-31G(d,p) 

TD

0 1
12 -7.07842841584158  0.51392014011401  0.21085877327733
 6 -4.80166478447845 -2.00584176257626  0.45910244294429
 6 -4.82161209010901  2.84191263856386  1.19520588548855
 6 -9.35847058255826  3.03671916741674 -0.49165202490249
 6 -9.57340765446545 -1.77961347234723 -0.89229565866587
 7 -5.09418284288429  0.46983680178018  0.83106352465247
 6 -4.33784349044905 -0.69344916691669  0.81997002020202
 6 -2.88415742114211 -0.36242566826683  1.25469582378238
 6 -2.98756219461946  1.10161282958296  1.64680541124112
 6 -4.38023501840184  1.53294404320432  1.27532456235624
 6 -2.94179926202620  1.20645293339334  3.26265767466747
 6 -1.89965342634263 -0.53548881028103  0.05584954325433
 6 -0.46244366696670 -0.36821116831683  0.62189631893189
 6  0.56891802900290 -0.71757527042704 -0.49882526302630
 8  0.29211045114511 -1.19918532613261 -1.55391172287229
 8  1.85493730423042 -0.42836023242324 -0.10826761566157
 7 -7.10812126002600  2.55724131393139  0.33374206970697
 6 -6.15373465246525  3.40523149894989  0.87602113571357
 6 -6.53535078817882  4.78014230363036  0.79039972717272
 6 -7.76780948794879  4.80187081858186  0.20884927622762
 6 -8.15148942054206  3.42003119841984 -0.01564901860186
 6 -5.51368932563256  5.87552001790179  1.18851361186119
 6 -8.63865166276628  6.04011504520452  0.13239022442244
 6 -8.50592448374837  7.14638075667567  0.78469471927193
 7 -9.15988826142614  0.61262412351235 -0.62062609630963
 6 -9.82937919761976  1.76876682978298 -0.70715703980398
 6 -11.15782487908791  1.40378871797180 -1.08646036553655
 6 -11.20083248714871  0.11289665376538 -1.31724043804380
 6 -9.96742242294229 -0.38400037433743 -0.97915293139314
 6 -12.23071189488949  2.59064963596360 -1.49593636843684
 6 -12.45711025732573 -0.58067547764776 -1.72727353585359
 6 -12.39141663006301 -1.21462387358736 -3.14305942454245
 7 -7.18464793309331 -1.36943655725573 -0.34960963796380
 6 -8.30002024182418 -2.28043321542154 -0.57525248044804
 6 -7.81635778137814 -3.59676794429443 -0.51465874317432
 6 -6.49701358545855 -3.49483382038204 -0.22253398529853
 6 -6.15844844124412 -2.20695897719772 -0.05053224902490
 6 -8.66977444484448 -4.83467631003100 -0.78124660306031
 6 -5.27609207950795 -4.28825270877088  0.12925579817982
 8 -5.10822966086609 -5.52347683108311  0.11502853355336
 6 -4.17365094449445 -3.28609439923992  0.54387425272527
 6 -3.57326795769577 -3.66625184648465  1.84273464636464
 8 -3.83077467806781 -3.02731946814681  2.83870655175518
 8 -2.73601479517952 -4.68718344074407  1.73838241914191
 6 -2.28995958385839 -5.10528475757576  3.06003093859386
 6  2.80304281598160 -0.59628742334233 -1.15653685408541
 6  4.14581667066707 -0.50014819111911 -0.46412656165617
 6  5.11360484488449  0.32642890829083 -0.83308308100810
 6  4.95500392339234  1.07790043934393 -2.22062622792279
 6  6.45461979477948  0.31989383958396 -0.21560804600460
 6  7.66971450935093 -0.24745509240924 -0.93855080558056
 6  8.94863673627363 -0.13048817921792 -0.07707952075208
 6  10.20120074457446 -0.55835290699070 -0.71386235673567
 6  10.07589428962896 -2.00426136223622 -1.11021448644864
 6  11.50792366926693 -0.24408818961896  0.12838370697070
 6  12.72941784948495 -0.52170622172217 -0.74291431433143
 6  13.98920838923892 -0.05766696949695  0.12471953945395
 6  15.34036016091609 -0.16806053515352 -0.50716895669567
 6  15.60717238613861 -1.63115074887489 -1.01896151385139
 6  16.47235134103410  0.41885624562456  0.37851235843584
 6  17.89041363076307  0.64019541794179 -0.28033384798480
 6  18.80099046854685  1.37740595759576  0.69138957195720
 6  20.23389205840584  1.44727506100610  0.16254101730173
 6  20.34305565936594  2.19121741894189 -1.10064105680568
 6  21.22302323312331  1.81613454975498  1.20731609500950
 1 -4.14537602210221  3.67614313571357  1.20107469436944
 1 -9.97719811251125  3.83149398439844 -0.58885427692769
 1 -10.41232452185218 -2.35360470127013 -1.31149780198020
 1 -2.52889934683468 -1.14618293219322  1.95564625582558
 1 -2.13155676087609  1.62714629722972  1.23235388578858
 1 -1.96286074357436  0.79741019391939  3.66581029452945
 1 -3.03652871287129  2.36810086758676  3.50542270767077
 1 -3.70065350805080  0.63874855885589  3.66044845764576
 1 -1.96991947684768 -1.52086204660466 -0.50246415561556
 1 -1.99299097159716  0.18330558095810 -0.82539257885789
 1 -0.28183170057006  0.58821343524352  0.94713511261126
 1 -0.27742554455446 -1.11340585578558  1.44106806200620
 1 -5.56923569896990  6.82924156825683  0.57206291549155
 1 -5.73768075747575  6.33308667176718  2.29103540064006
 1 -4.57893184918492  5.46464763116312  1.14686786238624
 1 -9.39229128162816  6.10358650675067 -0.79885011321132
 1 -9.23362457835784  7.90536127502750  0.64429405120512
 1 -7.84561402720272  7.33151955145515  1.53748213371337
 1 -11.93975808090809  3.06814714071407 -2.35963896859686
 1 -13.09054872407241  1.97448133933393 -1.53218440994099
 1 -12.28600033113311  3.29208786348635 -0.67894913891389
 1 -12.78215299369937 -1.42116156125613 -1.05593054795480
 1 -13.19983870277028  0.15216848004800 -1.75311083858386
 1 -13.37463381598160 -1.79407409360936 -3.32277216171617
 1 -12.22223578777878 -0.46943148074807 -3.97817131283128
 1 -11.58278455775578 -1.93435830293029 -3.32570119011901
 1 -8.90295989898990 -4.77120786368637 -1.85474873897390
 1 -8.00302966776678 -5.77790779497950 -0.63419303230323
 1 -9.67030691559156 -4.92696771807181 -0.20877269986999
 1 -3.57157785368537 -3.42760601130113 -0.27490276177618
 1 -1.32398056455646 -4.53805024472447  3.43484639993999
 1 -3.09477908650865 -5.53087470507051  3.77233007190719
 1 -1.93507161866187 -6.12838211141114  2.71289524242424
 1  2.57316662076208 -1.63638547444744 -1.60367433243324
 1  2.77057453505351  0.03262754235424 -1.97217036923692
 1  4.30834173977398 -1.26278849404940  0.30970418641864
 1  3.87340630413041  1.21155986638664 -2.51414978467847
 1  5.57962337403740  2.09881013991399 -2.12213868206821
 1  5.45150245784578  0.60038114561456 -3.05491422242224
 1  6.77799986288629  1.23346734673467  0.21815445824582
 1  6.34143826322632 -0.01865990339034  0.76267598429843
 1  7.63903128782878 -1.29390862606261 -1.27754907850785
 1  7.57683011891189  0.58492170027003 -1.87512043564356
 1  9.11438348994899  1.03862174717472  0.13346097829783
 1  8.79574806350635 -0.75348085428543  0.87913577727773
 1  10.34220177157716 -0.03420088238824 -1.61188607810781
 1  9.17673265876588 -2.10541851835184 -1.83506943174317
 1  11.04663721942194 -2.32712949684969 -1.64547879177918
 1  9.76378926492649 -2.69341128312831 -0.18280772047205
 1  11.41198887978798  0.78768099829983  0.28040952845285
 1  11.65448850225023 -0.81706766806681  0.97790841244124
 1  12.82706602550255 -1.64118227942794 -0.87465513311331
 1  12.67797154965496  0.08034872587259 -1.73919728102810
 1  13.79874131083108  0.93288584458446  0.15451279427943
 1  14.05366811991199 -0.63521312601260  1.16872338883888
 1  15.49614290279028  0.28513799879988 -1.62033639163916
 1  15.58588603150315 -2.27625791789179 -0.13299475337534
 1  14.85114816551655 -2.10010238583858 -1.47402481758176
 1  16.43733336273628 -1.81540706560656 -1.54967643714371
 1  16.13796899759976  1.29714754845485  0.78578512281228
 1  16.42136658385838 -0.30564974007401  1.16372913411341
 1  18.36266720542054 -0.34287083448345 -0.43665700610061
 1  17.63951101560156  0.75357267616762 -1.29369294509451
 1  18.56967776037604  2.33542770047005  0.95198320362036
 1  18.84032119241924  0.75392957395740  1.70923092339234
 1  20.55777068976898  0.44477062526253 -0.18031096709671
 1  20.15551965856585  3.12758632053205 -1.01323491689169
 1  21.47933218531853  2.07149380218022 -1.37269863316332
 1  19.84662856725673  1.83012482328233 -2.04267123612361
 1  21.11960793599360  1.15523363246325  2.04412402960296
 1  22.22953465976597  1.80553178287829  0.66713167946795
 1  20.88710844074408  2.78868895219522  1.50909134963496

