%nproc=4
%Mem=3GB
# td=(NStates=1) iop(3/107=0140000000,3/108=0140000000) CAM-B3LYP/6-31G(d,p) 

TD

0 1
12 -7.13856854855486  0.66799518301830  0.17496386638664
 6 -4.86510532703270 -1.96242347294729  0.46383178557856
 6 -4.86639266986699  2.86856557445745  1.05153525872587
 6 -9.44543130763076  3.11870942394239 -0.33448592389239
 6 -9.50799689768977 -1.70157192289229 -0.91481828672867
 7 -5.11834886608661  0.51665775637564  0.62066989098910
 6 -4.36091833913391 -0.72589373257326  0.63572146684668
 6 -2.92795901650165 -0.39632803080308  1.01107677677768
 6 -3.03447667456746  1.14335303690369  1.54187046634663
 6 -4.43652388708871  1.48150280138014  0.95576997089709
 6 -2.93584976577658  1.23485630493049  3.10058537313731
 6 -1.84859058875888 -0.59986597579758 -0.00926711641164
 6 -0.49000470967097 -0.51849509750975  0.49723310561056
 6  0.55631755495550 -0.74452107400740 -0.57821761186119
 8  0.33391360816082 -1.09611338903890 -1.75592298539854
 8  1.82122072047205 -0.44090402880288 -0.17437282488249
 7 -7.12338998239824  2.66724993489349  0.36099702380238
 6 -6.08110825462546  3.36875064246425  0.83636951305131
 6 -6.45161006940694  4.73776063966397  0.80833909260926
 6 -7.68758354365437  4.83969577477748  0.32680880728073
 6 -8.18573810131013  3.48733567236724  0.01899989858986
 6 -5.54437647154715  5.94355382908291  1.16143629882988
 6 -8.50916092409241  6.06713698329833  0.11100171267127
 6 -8.55348375837584  7.24043319301930  0.80329438873887
 7 -9.12823186428643  0.65010200460046 -0.48970554445445
 6 -9.89040652695270  1.80052337663766 -0.57955076857686
 6 -11.22334628732873  1.46563600810081 -1.05259011871187
 6 -11.25433492069207  0.10878842464246 -1.28421845014501
 6 -9.91374897849785 -0.38962915631563 -0.89105130643064
 6 -12.41059199689969  2.43586882828283 -1.05162461516152
 6 -12.42067586048605 -0.78079420322032 -1.62011134173417
 6 -12.27372928182818 -1.19547974027403 -3.09464011521152
 7 -7.24454741714171 -1.40125496119612 -0.20043271837184
 6 -8.24763909020902 -2.19256780228023 -0.63820540044004
 6 -7.81630367016702 -3.55166571797180 -0.57545784558456
 6 -6.50504829532953 -3.52022500460046 -0.22896497819782
 6 -6.20443417511751 -2.13142109790979  0.03907574297430
 6 -8.69215155465547 -4.66609270767077 -0.85405878897890
 6 -5.27855331823182 -4.35958952235224  0.02818779287929
 8 -5.08287928022802 -5.54852170917092  0.02606855545555
 6 -4.16285078767877 -3.23482092949295  0.42152047364736
 6 -3.64971914871487 -3.64134207690769  1.82039800830083
 8 -3.92273505690569 -3.01575893379338  2.91845520372037
 8 -2.72427778057806 -4.70417903640364  1.71710074757476
 6 -2.24433339033903 -5.13436864276428  3.04491189158916
 6  2.84561088148815 -0.75128341724172 -1.08886240344034
 6  4.14519540474047 -0.51672694059406 -0.34372693549355
 6  5.17850334163416  0.29502603060306 -0.83797667466747
 6  5.04427815341534  1.08536621192119 -2.05550968596860
 6  6.41520779947995  0.30213082908291 -0.03573409780978
 6  7.66567802040204 -0.10331887988799 -0.85541587028703
 6  8.96495420702070 -0.10072188828883  0.05508940654065
 6  10.24213967456746 -0.64575623882388 -0.71327704770477
 6  10.17935121172117 -2.08893677357736 -1.25018198419842
 6  11.55027969176918 -0.36190108120812  0.05087712521252
 6  12.82982071757176 -0.54623465696570 -0.68081558665867
 6  14.01403267506751 -0.09564527882788  0.14706111771177
 6  15.46535252625262 -0.29205828942894 -0.50907656015602
 6  15.75842211321132 -1.71263965226523 -0.83282510881088
 6  16.44730172287229  0.36851336863686  0.40643537823782
 6  17.86690427812781  0.62962669226923 -0.22673920092009
 6  18.79407982658266  1.24286236473647  0.73309656635664
 6  20.12024482888289  1.37532696519652  0.15109181518152
 6  20.23937678347835  2.22422972807281 -1.22493718961896
 6  21.15672073907391  1.91007270717072  1.22031597159716
 1 -4.23081344484448  3.51736498789879  1.53149924572457
 1 -10.30052217551755  3.77388966346635 -0.58407293349335
 1 -10.31657608170817 -2.38116365146515 -0.96244406380638
 1 -2.64377166436644 -1.15952615531553  1.87508399909991
 1 -2.47332079837984  1.91059312041204  1.14229787878788
 1 -1.82727581398140  0.71015012141214  3.30121045844584
 1 -2.75802291139114  2.51630085288529  3.34533255545554
 1 -3.69779257975798  0.85009016331633  3.73088477367737
 1 -1.95370048904890 -1.59849051985199 -0.39027703480348
 1 -2.07557392639264  0.20779839963996 -0.79447618221822
 1 -0.11411684038404  0.17487707500750  1.25896975997600
 1 -0.31743016331633 -1.27082784938494  1.23849730803080
 1 -5.94916909460946  6.73380089208921  0.75955578687869
 1 -5.24449592089209  5.94023690509051  2.22332434493449
 1 -4.32249709430943  5.92784705270527  0.52744347694770
 1 -9.08161842164216  5.64915829782978 -0.88636998969897
 1 -9.18997806150615  7.98413813481348  0.61001077677768
 1 -8.02213014511451  7.51662849924992  1.47074603490349
 1 -12.05737621062106  3.23481262836284 -1.78424425592559
 1 -13.22311960966097  2.21798054045404 -1.43208893709371
 1 -12.52616364906491  3.24860219431943 -0.18351879137914
 1 -12.55532749764977 -1.77280820362036 -0.94228772967297
 1 -13.44111641074107 -0.46002871337134 -1.45321107550755
 1 -12.92588778797880 -2.26245990809081 -3.30823178127813
 1 -12.56406681238124 -0.66688515981598 -3.96504548294830
 1 -11.39299413881388 -1.65884691189119 -3.31019929812981
 1 -8.69231384998500 -4.72172867366737 -2.01053711671167
 1 -8.25705009020902 -5.69519547284729 -0.48244819991999
 1 -9.76529070807081 -4.53566201460146 -0.61823409210921
 1 -3.41299881838184 -3.49152575817582 -0.11133887198720
 1 -1.79573296089609 -4.11394360776078  3.53442516011601
 1 -3.02055849314932 -5.40239976487649  3.85451648934893
 1 -1.40843136363636 -5.78706949174917  2.70380374147415
 1  2.90223827862786 -1.86575319811981 -1.52194364306431
 1  2.63121956325633  0.06058414321432 -1.91425248274827
 1  4.26383687038704 -1.16144455825583  0.68640004020402
 1  4.13957926942694  1.09139468216822 -2.57243772947295
 1  5.15855278747875  2.34257468136814 -1.82160959935994
 1  5.91678124662466  0.58541973287329 -2.72340859775978
 1  6.65468365226523  1.32030201080108  0.34186380028003
 1  6.36872474457446 -0.38035537223722  0.78391458695870
 1  7.58843096589659 -1.03881455445545 -1.46031078827883
 1  7.89666222472247  0.82742184518452 -1.66745756865687
 1  9.26568261256126  0.88344784228423  0.27298972707271
 1  8.85352847364737 -0.78825717841784  1.06222234563456
 1  10.05627025882588 -0.13337718991899 -1.71415657365737
 1  9.32540214931493 -2.22143042654265 -1.88313669556956
 1  11.01716085668567 -2.20886428572857 -1.88460381848185
 1  10.31514371147115 -2.96677079177918 -0.66400379407941
 1  11.37961960356036  0.80468690209021  0.20078784958496
 1  11.57703529902990 -1.01966326392639  0.97878419851985
 1  12.95925387788779 -1.68017543684368 -0.83662593409341
 1  12.90768659855986 -0.11519658365837 -1.72158649234923
 1  13.65991741204120  0.89825518881888  0.49116394509451
 1  14.03604191479148 -0.48337471637164  1.23903627762776
 1  15.38889929132913  0.20364376137614 -1.37833910271027
 1  15.84049784658466 -2.31057039823982 -0.08822695819582
 1  14.99310095449545 -2.09403392339234 -1.59821119461946
 1  16.75928420802080 -1.42651354835483 -1.39866637993799
 1  15.98483175667567  1.47158549224923  0.76244216051605
 1  16.55140921872187 -0.22576886168617  1.49612810751075
 1  18.33473021072107 -0.40158667266727 -0.54006420202020
 1  17.84048135773577  1.11366026012601 -1.01482722632263
 1  18.65141419831983  2.20808207620762  1.27446939373937
 1  18.61051701420142  0.48021286078608  1.44957820332033
 1  20.42945277757776  0.47705870347035 -0.21533564136414
 1  19.64241105960596  3.14514529102910 -1.16240842554255
 1  21.34354815561556  2.42599374147415 -1.72428040924092
 1  19.54488288588859  1.64955524572457 -1.82699108350835
 1  21.34980883438344  1.20314595549555  1.99638330713071
 1  22.20677857065706  1.92962343304330  0.65136178977898
 1  20.90377045554555  2.71113723092309  1.75985312201220

