%nproc=4
%Mem=3GB
# td=(NStates=1) iop(3/107=0140000000,3/108=0140000000) CAM-B3LYP/6-31G(d,p) 

TD

0 1
12 -7.14119881158116  0.64309269276928  0.05274164416442
 6 -4.90568938543854 -1.93744097469747  0.52360776317632
 6 -4.83849988058806  2.79907862576258  1.15447555275528
 6 -9.39368613311331  3.12890044304430 -0.44918739403940
 6 -9.48730482848285 -1.63165493119312 -0.95183198809881
 7 -5.15400243144314  0.40308639923992  0.81183900790079
 6 -4.34036628392839 -0.69405054825483  0.82543043774377
 6 -2.98615483608361 -0.37555595359536  1.20634630373037
 6 -3.04350757765777  1.10870957255726  1.64649092839284
 6 -4.40850108480848  1.43477812891289  1.18502289618962
 6 -2.96297247804780  1.20446326562656  3.24835014961496
 6 -2.03502923262326 -0.64416040524052 -0.05661185088509
 6 -0.56056176537654 -0.56078932693269  0.49840322262226
 6  0.54856677987799 -0.76946356825683 -0.59850964106411
 8  0.17812802960296 -1.09314309200920 -1.73943133623362
 8  1.75385398379838 -0.50274021242124 -0.14525991359136
 7 -7.01560920432043  2.67043025292529  0.33835475957596
 6 -5.98771891569157  3.39813358075808  0.76611248734874
 6 -6.30557546594659  4.78470533413341  0.77405566426643
 6 -7.67793257855786  4.84748655385539  0.37992411881188
 6 -8.05066459395940  3.54377131593159 -0.04855685708571
 6 -5.37862989688969  5.91585105880588  1.06618677387739
 6 -8.58089809780978  5.90992126172617  0.21598221072107
 6 -8.35613402340234  7.14109325902590  0.84089814911491
 7 -9.09885892699270  0.78043503790379 -0.55873244714471
 6 -9.79767725402540  1.85415874017402 -0.65246806030603
 6 -11.17750170287029  1.46129557405741 -1.11499635933593
 6 -11.20961044824482  0.08920646644664 -1.27933796209621
 6 -9.91698930253025 -0.29834002740274 -0.93182538383838
 6 -12.23704464216422  2.50536577797780 -1.36428588128813
 6 -12.42942673557356 -0.73762988678868 -1.70658998959896
 6 -12.15945785468547 -1.19830002230223 -3.17449810101010
 7 -7.21290425282528 -1.39580441614161 -0.18545122022202
 6 -8.29260358665867 -2.17207575307531 -0.49261084098410
 6 -7.84557659745975 -3.68962951435144 -0.39989028882888
 6 -6.49862765326533 -3.57438042014201 -0.13252533423342
 6 -6.19984371607161 -2.16259421522152  0.06505834123412
 6 -8.71060339983998 -4.65841193959396 -0.82882626572657
 6 -5.38849431233123 -4.24477804120412  0.21827680178018
 8 -5.24836582888289 -5.55529238623862  0.15503145174517
 6 -4.25819032163216 -3.32743019041904  0.52164048564856
 6 -3.58935311211121 -3.77871581428143  1.90934690319032
 8 -3.76588937233723 -3.20082744064406  2.98964232243224
 8 -2.78094344714471 -4.78048666716672  1.68570760826083
 6 -1.97235619261926 -5.33106831273127  2.81737913831383
 6  2.78382470287029 -0.67162545144514 -1.19180269746975
 6  4.10957184238424 -0.43311857975798 -0.51913447624763
 6  5.12716820812081  0.40381690969097 -0.93814669166917
 6  5.00490421602160  1.29793746904690 -2.16318045304530
 6  6.31880815951595  0.23352396839684 -0.21886241064106
 6  7.57719917251725 -0.30455900390039 -1.01734206290629
 6  8.91021873347335  0.00161834573457 -0.22014811721172
 6  10.23057851845185 -0.42852451565157 -0.77600332033203
 6  10.16027930453045 -1.96780466036604 -1.16687365336534
 6  11.48410307410741 -0.23572846394639  0.09191122862286
 6  12.85521325682568 -0.47151718521852 -0.59125663076308
 6  13.96803807560756 -0.02983869816982  0.25490190179018
 6  15.33412940394039 -0.24016309990999 -0.46537218971897
 6  15.64320059105911 -1.74239262756276 -0.88416024232423
 6  16.42035902860286  0.45939245654565  0.49045378007801
 6  17.82525011271127  0.54113784338434 -0.17501402840284
 6  18.80472089068907  1.25547362586259  0.74286754345435
 6  20.19989279367937  1.40298973147315  0.14496120212021
 6  20.23124597039704  2.14527183228323 -1.15320001590159
 6  21.19807487448745  1.89799149904990  1.15268920892089
 1 -4.11944230773077  3.52975622702270  1.49206530233023
 1 -10.05561768506851  3.97484975947595 -0.64847937413741
 1 -10.30578500260026 -2.32131766686669 -1.30207802720272
 1 -2.60007729492949 -1.06108631133113  2.11810830153015
 1 -2.14170763706371  1.76216827792779  1.30158380738074
 1 -1.87112019841984  0.93189229562956  3.48793913131313
 1 -3.17159426852685  2.24878410121012  3.34166218841884
 1 -3.69107190769077  0.53285844014401  3.71521320652065
 1 -2.10760587958796 -1.55367603840384 -0.65039304640464
 1 -2.13925029402940  0.15510313011301 -0.74774150875087
 1 -0.25450087878788  0.53593318061806  1.21857572057206
 1 -0.53643206350635 -1.38308907550755  1.24245770407041
 1 -5.44880905860586  6.78859637163716  0.40215004630463
 1 -5.75015648694869  6.46014889628963  2.11139315181518
 1 -4.15969081368137  5.69851411941194  1.25844657725773
 1 -9.24307456725673  5.68755213721372 -0.42514386708671
 1 -8.92758182188219  8.07103682468247  0.53230300600060
 1 -7.55099303140314  7.25035187158716  1.43135209550955
 1 -11.85309578257826  2.92703185028503 -2.25046087758776
 1 -13.18682598029803  2.07458620102010 -1.69543527172717
 1 -12.48201923462346  3.25883321742174 -0.58591903140314
 1 -12.46260822572257 -1.64029495229523 -1.10757425832583
 1 -13.46139843894389 -0.39362207270727 -1.68750450485049
 1 -12.88387358655866 -2.13845750785079 -3.40685164326433
 1 -12.32806321202120 -0.36989546084608 -3.93645262366237
 1 -11.03628846824682 -1.43355438263826 -3.16023430163016
 1 -8.85474009260926 -4.83605010581058 -1.90566662966297
 1 -8.36179056425643 -5.64165011831183 -0.37234718981898
 1 -9.88950312931293 -4.46153460186019 -0.33940620932093
 1 -3.35178269676968 -3.49911651725173 -0.15557329542954
 1 -1.28972235983598 -4.66584879827983  3.15962768036804
 1 -2.71973841114111 -5.62123164806481  3.46917795549555
 1 -1.48170869136914 -6.29563034783478  2.52635599669967
 1  2.68274632943294 -1.73543016581658 -1.51430287898790
 1  2.46737317861786  0.00402848764876 -1.85383644114411
 1  4.41939242594259 -1.33913232703270  0.09673107330733
 1  4.06174148564856  1.70899644234423 -2.61184166986699
 1  5.58785571777178  2.01843226712671 -1.59262670107011
 1  5.56192576107611  0.97858904980498 -2.94508076497650
 1  6.69361754565457  1.24269425002500  0.09707932183218
 1  6.18808668076808 -0.32462979967997  0.57231342684268
 1  7.21761388418842 -1.44277495049505 -1.09243400060006
 1  7.61415397389739  0.01080018301830 -2.24721554445444
 1  8.94736078037804  1.03815331283128 -0.08257582948295
 1  8.77870099089909 -0.25583393609361  0.92728885228523
 1  10.51622625442544 -0.03728758095810 -1.80721587958796
 1  9.35089469856986 -2.38353663716372 -1.79671805370537
 1  10.97911705230523 -2.23250664996500 -1.67340269836984
 1  10.12074427152715 -2.43611772647265 -0.21022841654165
 1  11.62532417401740  0.58207464086409  0.52990076087609
 1  11.49514711021102 -0.87558885648565  1.08114443454345
 1  13.00552850535054 -1.53669108840884 -0.77497976947695
 1  12.83721955185518 -0.00897596159616 -1.52253658735874
 1  13.94760618091809  1.11163652695270  0.37694252295230
 1  13.74909321992199 -0.55680205910591  1.19733210721072
 1  15.39470987238724  0.32450584758476 -1.35085635443544
 1  15.90255405220522 -2.30232957415742  0.10684254875488
 1  14.83609525392539 -2.14741926192619 -1.39865123862386
 1  16.48311659125913 -1.79529042604260 -1.51562807610761
 1  16.23483675717572  1.45297363106311  0.60509642594259
 1  16.54435851365136 -0.21625791059106  1.31927042174217
 1  18.19376611431143 -0.57017353135313 -0.23548374397440
 1  17.81876918651865  1.04704359845985 -1.28201394499450
 1  18.40747980488049  2.23153442144214  0.95732767956796
 1  18.95685164766477  0.70471531103110  1.75751899739974
 1  20.33544337663766  0.13371436903690  0.31051694389439
 1  19.86086290479048  3.10457123362336 -1.25616780148015
 1  21.22607640844085  2.51209235133513 -1.59360734193419
 1  19.75977437503751  1.86445673587359 -2.05847423182318
 1  20.93316717021702  1.24999063996400  2.09084275307531
 1  22.29707760056005  1.59910038073807  0.75573222682268
 1  21.32149222772277  3.10261637883788  1.16702383908391

