%nproc=4
%Mem=3GB
# td=(NStates=1) iop(3/107=0140000000,3/108=0140000000) CAM-B3LYP/6-31G(d,p) 

TD

0 1
12 -7.13797848954895  0.60956934043404  0.16682305230523
 6 -4.95455427192719 -2.06478370897090  0.64222962536254
 6 -4.68401443204320  2.76763548144814  1.13134323952395
 6 -9.28059482398240  3.08094564756476 -0.39668214351435
 6 -9.58118421642164 -1.69326109180918 -0.96417322222222
 7 -5.11079811101110  0.41106719731973  0.91486931093109
 6 -4.41247349464947 -0.80156129932993  0.97613550825083
 6 -2.90652687328733 -0.42989138713871  1.34769043814381
 6 -3.04213744064406  0.98011671327133  1.86287256655666
 6 -4.35562579727973  1.42175682678268  1.27737213111311
 6 -3.09877605840584  1.12313513281328  3.46067138173817
 6 -2.01433716341634 -0.64738072727273  0.12707651795180
 6 -0.53051876107611 -0.59684293229323  0.62317569986999
 6  0.48311023422342 -0.80583720562056 -0.56207599769977
 8  0.21075129192919 -1.04433821152115 -1.71860925402540
 8  1.71948054645465 -0.47041698009801 -0.17743313091309
 7 -6.98910655405541  2.65109831973197  0.31639256335634
 6 -5.87873801760176  3.38926269366937  0.88275415151515
 6 -6.19823473187319  4.80866773037304  0.80221848054805
 6 -7.54866965226523  4.83579538473847  0.33120924732473
 6 -7.97560708820882  3.50101704050405  0.05653365196520
 6 -5.27367940184018  5.83301277497750  1.00640079527953
 6 -8.42220222822282  5.98935920552055  0.18449906240624
 6 -8.21106951695170  7.26898604830483  0.61545560486049
 7 -9.10945998709871  0.68264525892589 -0.52079865376538
 6 -9.76568405470547  1.82082540684068 -0.58925173867387
 6 -11.10940489318932  1.61438088258826 -1.16998185788579
 6 -11.12191167836784  0.24822236803680 -1.37289731803180
 6 -9.86948455205521 -0.35672586598660 -0.99953215451545
 6 -12.08977991569157  2.67788302970297 -1.48559801250125
 6 -12.33586737963796 -0.59494561836184 -1.93447277787779
 6 -12.08580048894890 -1.16308650095009 -3.40502115331533
 7 -7.26188915131513 -1.30832566826683 -0.15775845094509
 6 -8.35187951425143 -2.21294984048405 -0.59745132503250
 6 -7.87988002780278 -3.62868341974197 -0.55750605040504
 6 -6.61473926442644 -3.60035301740174 -0.10863294499450
 6 -6.26950068176818 -2.18946690249025  0.06907874327433
 6 -8.71963430293029 -4.69683578197820 -0.85432881598160
 6 -5.38033349624962 -4.38621218461846  0.31352632673267
 8 -5.32306329862986 -5.66664352135214  0.33696964556456
 6 -4.23286778937894 -3.37621506890689  0.65220354195420
 6 -3.50207438423842 -3.74470241294129  1.92119808830883
 8 -3.65927871127113 -3.25681303920392  3.06016937513751
 8 -2.78228358115812 -4.79079769826983  1.72798183568357
 6 -2.26088504550455 -5.24692989888989  2.99906730713071
 6  2.72454877527753 -0.66753504240424 -1.17240075727573
 6  4.03104398959896 -0.44592986088609 -0.50667323012301
 6  5.11283677497750  0.29676620462046 -1.08213109010901
 6  4.97411113671367  1.11008868416842 -2.30326446144614
 6  6.33849012771277  0.39721033703370 -0.32338286268627
 6  7.56383783638364 -0.17890643864386 -1.18370869956996
 6  8.82663037463746 -0.10371218731873 -0.31215731813181
 6  10.17050251085108 -0.54875653885389 -1.02597831783178
 6  10.03810708730873 -2.01991987188719 -1.40953791979198
 6  11.29530419421942 -0.19778466956696 -0.06323428592859
 6  12.75472320782078 -0.43463349684969 -0.80887839293929
 6  13.88628990079008  0.03857814351435  0.09440585218522
 6  15.35197118811881 -0.15310439403940 -0.50464611711171
 6  15.71686795779578 -1.53149153745375 -0.96543837013701
 6  16.38823581628163  0.44780129742974  0.46089082378238
 6  17.86363395109511  0.46948067766777 -0.15040156715672
 6  18.80017043564356  1.20013809230923  0.76478973567357
 6  20.16612941734174  1.40295972847285  0.30344705070507
 6  20.16821966776678  2.33001030613061 -0.88469316521652
 6  21.10207527452745  1.92853455335534  1.40365430543054
 1 -3.75878624212421  3.55355860726073  1.33199929572957
 1 -10.18740086338634  3.73763603810381 -0.37387191339134
 1 -10.27422184628463 -2.35278081318132 -1.39108692809281
 1 -2.54828211541154 -1.18706890959096  1.90715720642064
 1 -2.37226069236924  1.56591865296530  1.43604725372537
 1 -2.27125021142114  0.61600070647065  3.99200953835383
 1 -3.06087319641964  2.35812503530353  3.68493651585158
 1 -4.17738053855386  0.81341649594959  3.72059374457446
 1 -2.17520263926393 -1.69408007880788 -0.15858386548655
 1 -1.90557692669267 -0.02632501270127 -0.95841257585759
 1 -0.34750017871787  0.38117770507051  0.89992385538554
 1 -0.39279770007001 -1.36175694229423  1.39031248954895
 1 -5.47989216691669  6.74674218621862  0.55830566186619
 1 -5.12036350765077  5.99393227462746  2.10452246474647
 1 -4.20030487508751  5.59103337133713  0.72168290089009
 1 -9.20624088388839  6.03770715271527 -0.51083243594359
 1 -8.99092815651565  8.02829255025503  0.17094687038704
 1 -7.55834376647665  7.55652248864886  1.40803976427643
 1 -11.61855232823282  3.53740288738874 -2.15098092959296
 1 -12.97760505820582  2.27046578897890 -1.78024375257526
 1 -12.34140517321732  3.20791812591259 -0.55903634313431
 1 -12.48654061896189 -1.30318124092409 -1.25024852575258
 1 -13.12189448854886 -0.00344305480548 -1.96535228962896
 1 -12.91516671587159 -1.80407406950695 -3.64970592869287
 1 -12.01950235593559 -0.25787425872587 -4.19844882328233
 1 -11.15339017841784 -1.82726375357536 -3.46119439763976
 1 -8.88245286388639 -4.82781928272827 -2.06237230023002
 1 -8.29106349154915 -5.73036899019902 -0.44459441454145
 1 -9.87583176217622 -4.75707415581558 -0.47581985068507
 1 -3.57234475297530 -3.34340094569457 -0.24020175827583
 1 -1.89743313091309 -4.39225143854385  3.46873859145915
 1 -2.92649908720872 -5.43841336623662  3.73158419611961
 1 -1.41231175167517 -6.00704148894889  2.77708106920692
 1  2.70723877867787 -1.78758538133813 -1.40441188988899
 1  2.47425386668667 -0.15398731393139 -2.09642069956996
 1  4.15712619931993 -0.83438185198520  0.29168056825683
 1  3.87754306580658  1.11459700240024 -2.86444693039304
 1  5.25844277647765  2.19988041194119 -1.83369080748075
 1  5.60971053955396  0.69977116801680 -3.08049430633063
 1  6.71882006590659  1.37655763636364 -0.07426781288129
 1  5.95820369246925 -0.04178151485148  0.71209740524052
 1  7.28321044384438 -1.16310698369837 -1.43957871507151
 1  7.55576813531353  0.52373147614761 -2.15347617051705
 1  9.01164720902090  0.93204270177018  0.00434286238624
 1  8.71212433323332 -0.72909126182618  0.59877600100010
 1  10.37989262106211 -0.07102095429543 -1.85279043704370
 1  9.07056666576658 -2.17523580708071 -1.94284266616662
 1  11.07529667026703 -2.43891729102910 -1.88294365246525
 1  10.00413261036104 -2.54675879057906 -0.51728912261226
 1  11.34210585218522  0.80320675407541  0.28548631943194
 1  11.44904249974998 -0.84710600820082  0.82282860296030
 1  12.88306625912591 -1.51601902120212 -1.12027429892989
 1  12.64682051195119  0.13990892689269 -1.81960629432943
 1  13.82487390769077  1.10700606390639  0.28758358705871
 1  13.80980929152915 -0.54076045494549  0.91503387738774
 1  15.50290069146915  0.57357075407541 -1.40948221702170
 1  15.74990878767877 -2.39500884208421 -0.13879201470147
 1  15.04865651005101 -1.77378189818982 -1.82434380788079
 1  16.75771405100510 -1.57389828682868 -1.38509502280228
 1  16.15812908640864  1.70809914361436  0.64923083938394
 1  16.51853593139314  0.02726644184418  1.52876137083708
 1  18.23208994669467 -0.63618013201320 -0.28088828442844
 1  17.85677298689869  0.96216511061106 -1.06258200180018
 1  18.63826288318832  2.23018428642864  1.09033097989799
 1  18.84422038453846  0.50508534803480  1.56946019151915
 1  20.62083191549155  0.47702870047005 -0.27267137493749
 1  19.66796361486149  3.40092086858686 -0.59674185888589
 1  21.21418521932193  2.70317145924592 -1.35612359355936
 1  19.38313671127113  1.86855714591459 -1.59132751715172
 1  20.82105595909591  1.57235287618762  2.32811648044805
 1  22.31343923672367  1.84249472017202  1.11251790539054
 1  20.82717279577958  3.04706082328233  1.30340747744774

