%nproc=4
%Mem=2GB
# td=(NStates=1) CAM-B3LYP/6-31G(d,p) 

TD

0 1
12 -7.14261483448345  0.61157990609061  0.07499518691869
 6 -4.82725734373437 -1.91155233363336  0.51588812151215
 6 -4.79763969286929  2.81742018931893  1.16166253115312
 6 -9.31241597709771  3.00535603110311 -0.35154801450145
 6 -9.59864017771777 -1.73167867886789 -0.76370279937994
 7 -5.03166659125913  0.42544236233623  0.65538595689569
 6 -4.29139884598460 -0.67158698069807  0.79468749194919
 6 -2.85068407380738 -0.40959038473847  1.21353170737074
 6 -2.97248068646865  1.09224189248925  1.53783451415142
 6 -4.30269726462646  1.54251500030003  1.14883191309131
 6 -2.93276835893589  1.38849113721372  3.08876028492849
 6 -1.94644810581058 -0.61238650005000  0.02326628492849
 6 -0.46460388298830 -0.37878222542254  0.44038816811681
 6  0.48204934213421 -0.70882439533953 -0.63820920142014
 8  0.28475971607161 -1.09003441104110 -1.81168750045005
 8  1.79220103060306 -0.44173156955696 -0.21307809670967
 7 -7.06425687358736  2.64045963576358  0.27068576407641
 6 -6.08019729872987  3.37048802460246  0.74571810541054
 6 -6.40775802890289  4.77735202460246  0.76327701490149
 6 -7.74746745374537  4.83317394889489  0.38601699299930
 6 -8.11200547214722  3.51918111341134 -0.00183763746375
 6 -5.66323428012801  5.87546001190119  1.24388914941494
 6 -8.59379717731773  5.97213824752475  0.17018400380038
 6 -8.27456134743474  7.20838695729573  0.76287253705371
 7 -9.14755702830283  0.63801666276628 -0.47119115281528
 6 -9.87652391209121  1.73495344844484 -0.67282360646065
 6 -11.16831592819282  1.45760409950995 -1.09272099159916
 6 -11.34125652955296  0.06339170327033 -1.23813252725273
 6 -9.95742142284228 -0.44394636893689 -0.86731174727473
 6 -12.36813563726373  2.44297486848685 -1.30365714051405
 6 -12.36123066936694 -0.77571498159816 -1.69908071657166
 6 -12.39489697809781 -1.00243265446545 -3.21949706830683
 7 -7.16894636293629 -1.42765237883788 -0.21740641764176
 6 -8.33411365116512 -2.25418059015902 -0.60768572377238
 6 -7.81900804640464 -3.70892916041604 -0.49027630493049
 6 -6.55745963006301 -3.59527386438644 -0.07163889578958
 6 -6.14107670407041 -2.12886116741674  0.02081488568857
 6 -8.63295076247625 -4.89633247564757 -0.87780625902590
 6 -5.34789926022602 -4.41700558405841  0.27792066466647
 8 -5.19145798369837 -5.68400288368837  0.32777980868087
 6 -4.17850142954295 -3.29124491429143  0.48533839913991
 6 -3.65441607250725 -3.72530775207521  1.81901227412741
 8 -3.87628922952295 -3.05975271147115  2.85390807190719
 8 -2.86758795249525 -4.80724544694469  1.84386296719672
 6 -2.26740732863286 -5.15131936103610  3.10737567306731
 6  2.80119263096310 -0.54103189778978 -1.21010221062106
 6  4.19542163116312 -0.38609678597860 -0.58029817881788
 6  5.19889337373737  0.46065233063306 -0.98805857855786
 6  5.15092351535153  1.35672832213221 -2.13684785008501
 6  6.51777611041104  0.25459730993099 -0.13303978917892
 6  7.68032557045705 -0.15040538743874 -0.89834678517852
 6  8.97265913851385 -0.18699382978298 -0.07030884368437
 6  10.24394501900190 -0.58635570727073 -0.97861883238324
 6  10.13427012721272 -2.03920485658566 -1.30945441044104
 6  11.47025990289029 -0.18864264506451 -0.11499063046305
 6  12.87751265896590 -0.55670972207221 -0.71412143504350
 6  14.01308077647765 -0.21857306010601  0.06816388388839
 6  15.32878900380038 -0.32804653375338 -0.57317555735574
 6  15.67626929582958 -1.80493812761276 -0.79842946064606
 6  16.35769987588759  0.45285964596460  0.36604111131113
 6  17.74822941234123  0.55706710511051 -0.14748056265627
 6  18.66979734923492  1.33297151415142  0.74742517551755
 6  20.24590325952595  1.44477481098110  0.22426718991899
 6  20.43878523232323  2.28776707390739 -0.98753974667467
 6  21.21085201600160  1.98699163546355  1.41216658005801
 1 -4.10747223172317  3.55838135953595  1.46196078297830
 1 -10.21607199989999  3.67770860586059 -0.15622101360136
 1 -10.33675696509651 -2.69508884968497 -0.60811746394639
 1 -2.55920237713771 -0.95831414531453  2.14439513071307
 1 -2.24867847304731  1.83246682928293  1.10357100750075
 1 -2.07563202070207  1.27347780068007  3.52739645314531
 1 -3.20967602760276  2.52256631413141  3.13852601800180
 1 -3.68136157885789  0.80032471647165  3.77582999579958
 1 -1.70995348024802 -1.49962992339234 -0.47817172637264
 1 -2.13090476297630  0.18123537393739 -0.76357639723972
 1 -0.12934645204520  0.63176779067907  0.76421682078208
 1 -0.14116191819182 -0.95733024822482  1.26524047924792
 1 -5.88643741914191  6.90093873797380  0.52928863806381
 1 -5.70388737813781  6.15733909700970  2.37096339343934
 1 -4.60770472647265  5.60630179657966  1.10543371897190
 1 -9.52712476497650  5.77816396449645 -0.41971219941994
 1 -8.91758297419742  7.95527626652665  0.39886950875087
 1 -7.40509997579758  7.47892429192919  1.36041442694269
 1 -12.25721982708271  3.33656398239824 -2.11514451915192
 1 -13.42425209440944  1.95865975717572 -1.45203639513951
 1 -12.35713744484448  3.04026268096810 -0.46670791479148
 1 -12.37679245764576 -1.68606805190519 -1.19434438933893
 1 -13.42375109400940 -0.55244198099810 -1.47376290379038
 1 -13.30420677327733 -1.67300198639864 -3.32814269876988
 1 -12.56471003520352 -0.05000953855386 -3.82987648334833
 1 -11.56617289658966 -1.43624849194919 -3.73682230223022
 1 -9.04259386238624 -4.78584932783278 -1.78695195929593
 1 -8.08082744754475 -5.73984398859886 -0.53134274727473
 1 -9.50437032193219 -4.89642466376638 -0.11837365996600
 1 -3.08798949484949 -3.43911716241624 -0.17055232673267
 1 -1.62278044454445 -4.33780021972197  3.43548646394639
 1 -2.94874448304831 -5.38421003860386  3.83278611751175
 1 -1.74029214071407 -6.10613988718872  2.85930988388839
 1  2.73479278337834 -1.48092992889289 -1.83481744674467
 1  2.83060053765377  0.54774905450545 -1.99967311951195
 1  4.26973787938794 -0.91236345154516  0.46524974097410
 1  4.24378334183418  1.63142185258526 -2.59487785748575
 1  5.24274968666867  2.44302456135614 -1.75396186438644
 1  5.77796510411041  1.04348545604560 -3.01396012701270
 1  6.64742680558056  1.26547054705470  0.29955259805981
 1  6.10968508790879 -0.31322936033603  0.67380709740974
 1  7.42790017471747 -1.24557379257926 -1.46059738333833
 1  7.85499793569357  0.65927913601360 -1.79652257585759
 1  9.00961301290129  0.84950283528353  0.28226585878588
 1  8.90200868956896 -0.84319982618262  0.85422328602860
 1  10.58018556995700 -0.05073253555356 -1.93741863136314
 1  9.16207119261926 -2.30319829632963 -1.65165108990899
 1  10.92445500120012 -2.30105688958896 -1.95180942484248
 1  10.23992687868787 -2.79104104610461 -0.45564500420042
 1  11.38035571647165  0.79622185238524  0.20799228672867
 1  11.36947000040004 -0.74470043134313  0.92908352995300
 1  12.81104442334233 -1.69458761996200 -1.03556122372237
 1  12.87428118061806 -0.19844915391539 -1.61297465876588
 1  13.73924536123612  0.89661221722172  0.53542088508851
 1  13.82708546164617 -0.96572617731773  0.92225874237424
 1  15.42204549304930  0.21122060706071 -1.46536089408941
 1  15.63345078797880 -2.24807509960996  0.09575812191219
 1  14.79140219091909 -2.34540691629163 -1.27736515161516
 1  16.56110573997400 -2.02133765866587 -1.57162863236324
 1  16.03134833553355  1.45743357705771  0.37299384368437
 1  16.35362981018102 -0.09408858395840  1.28000076127613
 1  18.27862880158016 -0.39203575097510  0.02960962056206
 1  17.75201226572657  1.00332765166517 -1.28413198899890
 1  18.20027081968197  2.24010816851685  0.92347035233523
 1  18.62528968926893  0.87566174717472  1.76082608290829
 1  20.47299221192119  0.39147529572957 -0.06580951695169
 1  20.08440254685468  3.24426798869887 -0.82917651105110
 1  21.45834008610861  2.16554320712071 -1.37640900420042
 1  19.75504940934094  1.65115692649265 -1.75462243124312
 1  21.34009998519852  1.67753586268627  2.33243286048605
 1  22.14612631893189  2.11732296199620  0.84855982228223
 1  21.11208093799380  3.00430051335134  1.60650109060906

