%nproc=4
%Mem=2GB
# td=(NStates=1) CAM-B3LYP/6-31G(d,p) 

TD

0 1
<<<<<<< HEAD
12 -7.12296286928693  0.58167691579158 -0.08035034763476
 6 -4.82833745174517 -1.97976915531553  0.49941647434743
 6 -4.77720764966497  2.76312475977598  1.11232759765977
 6 -9.34224896039604  3.12176767226723 -0.33592645234523
 6 -9.52763307700770 -1.72040755175518 -0.95529195829583
 7 -5.14874829942994  0.42046186428643  0.64768518681868
 6 -4.38067777387739 -0.64465428742874  0.78390641384138
 6 -2.90824983038304 -0.38704813051305  1.13430378457846
 6 -3.00422386078608  1.10000266856686  1.67178790949095
 6 -4.30856785168517  1.44139488828883  1.13097012691269
 6 -3.06232131423142  1.31555384348435  3.23236464536454
 6 -1.84937839883988 -0.68388364976498  0.10421437973797
 6 -0.41721914451445 -0.45177952515252  0.52594672397240
 6  0.64526566376638 -0.66093960686069 -0.56465184568457
 8  0.33839507960796 -1.12145755335534 -1.62066839853985
 8  1.88665047554755 -0.25329272567257 -0.13856064496450
 7 -7.07159760766077  2.64279986978698  0.32128082358236
 6 -6.00402968196820  3.32731370717072  0.70811434503450
 6 -6.42340959405941  4.77959224862486  0.78616930413041
 6 -7.77708041504150  4.87646827832783  0.36542493379338
 6 -8.14202847444744  3.48022721802180  0.04773732003200
 6 -5.54384234093409  5.85063752965297  1.16398115861586
 6 -8.59553735133513  5.99452048574858  0.21603858925893
 6 -8.52762665396540  7.29443556215622  0.84683093289329
 7 -9.07335960856086  0.67686054715472 -0.53346738043804
 6 -9.81800806050605  1.75471542464246 -0.71790811491149
 6 -11.14260335693569  1.45974431353135 -1.19064078357836
 6 -11.16621902580258  0.08163352745275 -1.30849956395640
 6 -9.86257193789379 -0.46598857315732 -0.99231424752475
 6 -12.26906573027303  2.44635520652065 -1.40510728552855
 6 -12.36186073237324 -0.79565697579758 -1.70107091559156
 6 -12.31693918231823 -1.23180559175918 -3.21517663626363
 7 -7.25893536183618 -1.40717033063306 -0.12586726372637
 6 -8.27344758455846 -2.26913208530853 -0.57103205840584
 6 -7.83705985158516 -3.64479274677468 -0.55806308360836
 6 -6.55663954805481 -3.51201553855386 -0.03715544744474
 6 -6.20771336773677 -2.14603288458846  0.12545534973497
 6 -8.66636410381038 -4.86069891229123 -0.92416089448945
 6 -5.36742121242124 -4.37074095759576  0.14545741834183
 8 -5.19623846174617 -5.58699318271827  0.10347737843784
 6 -4.25233881328133 -3.34475026482648  0.64150401570157
 6 -3.67151778267827 -3.75430065136514  1.97444781768177
 8 -3.90795239583958 -3.18238497469747  2.92145482658266
 8 -2.77477867156716 -4.77371209360936  1.79856843774377
 6 -2.03180376827683 -5.08345257435743  3.03852878837884
 6  2.85164767646765 -0.53114090869087 -1.19164036443644
 6  4.17031912091209 -0.29274745104510 -0.61392154115412
 6  5.13430691509151  0.54102036743674 -0.90566033873387
 6  5.15514393739374  1.36299894919492 -2.13277744304430
 6  6.35790012281228  0.56886873707371 -0.06685317051705
 6  7.66805434333433 -0.02041238813881 -0.83060001050105
 6  8.95941781438144 -0.09224435483548  0.00681886908691
 6  10.21777240174017 -0.64884195589559 -0.74851582208221
 6  10.06723342354235 -2.14051498759876 -1.00243370837084
 6  11.46969984688469 -0.30203398419842  0.07016788538854
 6  12.77090199789979 -0.69634368546855 -0.64012403530353
 6  13.98702817121712 -0.12067327012701  0.25390245774577
 6  15.32978910381038 -0.29614334343434 -0.60884912471247
 6  15.53591526042604 -1.74635226902690 -1.02431204890489
 6  16.39616372227223  0.39569392939294  0.21641614881488
 6  17.72041663106311  0.61758315671567 -0.32483829842984
 6  18.74955532503250  1.35088330533053  0.63011344434443
 6  20.18826749594959  1.38142847634763  0.15795055825583
 6  20.55519687348735  2.08152644984498 -1.16527752045204
 6  21.05930686148615  1.93863679998000  1.21941730513051
 1 -4.06006749124913  3.62803832523252  1.46879146604660
 1 -9.98393878657866  4.01277211221122 -0.23980937243724
 1 -10.45117840724072 -2.46711605240524 -0.93962061426143
 1 -2.68196465336534 -0.92347066096610  2.03593428462846
 1 -2.50044364956496  1.84242782538254  1.16197684808481
 1 -1.96179063656366  1.19250970387039  3.68198191169117
 1 -3.27613267326733  2.23660771827183  3.73585575097510
 1 -3.55576901960196  0.49648433243324  3.69136154895490
 1 -2.11726421132113 -1.78215817621762 -0.14915882508251
 1 -2.33973564606461 -0.15712846244624 -0.74899493909391
 1 -0.43138665606561  0.56820143404340  1.06864726382638
 1  0.03269546754676 -1.20834534973497  1.20167412261226
 1 -5.98262703810381  6.72008065216522  0.90510621982198
 1 -5.40092708210821  5.92672603570357  2.28442473957396
 1 -4.42242619861986  5.81038220462046  0.43474665026503
 1 -9.57658971147115  5.99678582668267 -0.39704993319332
 1 -9.26580779667967  8.00559129802980  1.01996161796180
 1 -7.70920038583858  7.46981338083808  1.61756014151415
 1 -12.06937104220422  2.98148847484748 -2.31629463416342
 1 -13.09817948714871  1.79643353455346 -1.35125631713171
 1 -12.06702843394340  3.16121477617762 -0.46955819981998
 1 -12.43020779917992 -1.67165661076108 -1.14221917681768
 1 -13.20842956185619 -0.12829956675668 -1.48958448594859
 1 -13.07305365796580 -2.02899758595860 -3.31201108560856
 1 -12.41342490669067 -0.37065160276028 -3.85264876057606
 1 -11.33152943224323 -1.53652851995200 -3.49746836683668
 1 -8.93892349534953 -4.82878362126213 -1.99728299239924
 1 -7.87005637043704 -5.69609961416142 -0.66755636863686
 1 -9.63716360126013 -4.98017303860386 -0.46629845244525
 1 -3.31546224212421 -3.55945919661966 -0.10612588408841
 1 -1.60507867436744 -4.14415085478548  3.49208212351235
 1 -2.78577818641864 -5.45237685528553  3.87126996589659
 1 -1.45655376687669 -5.92539181238124  2.80560451335134
 1  2.63849315341534 -1.62305414131413 -1.63777774277428
 1  2.70271774937494  0.25866014561456 -1.97293044524452
 1  4.42292319791979 -0.78630084528453  0.15042825882588
 1  4.18854781828183  1.33453216361636 -2.92614098379838
 1  5.20873628532853  2.53457371627163 -1.67957442564256
 1  6.03570087768777  0.97838894639464 -2.83447217821782
 1  6.54830689358936  1.48523252325232  0.37154979777978
 1  6.33910803020302 -0.28875691309131  0.82831254795480
 1  7.39630701540154 -1.12787202240224 -0.89608093169317
 1  7.74409684558456  0.27941114921492 -1.92614553815382
 1  9.04887693929393  1.01084896989699  0.57994562676268
 1  8.80360884958496 -0.86398190439044  0.86292415611561
 1  10.28787633903390 -0.14654211651165 -1.72120701020102
 1  9.26045103060306 -2.36929490599060 -1.75651157595760
 1  10.84743729942994 -2.59483626752675 -1.39341358525853
 1  9.97044993099310 -2.77412935493549 -0.10880031973197
 1  11.41867954885489  0.72958518871887  0.34121560906091
 1  11.29048210161016 -0.90770673197320  1.04599522112211
 1  12.66787010591059 -1.84315247644764 -0.44466213381338
 1  12.72028578107811 -0.29071838083808 -1.61087444874487
 1  13.80024146084608  1.06558911491149  0.53218056105611
 1  14.12189494259426 -0.78747835253525  1.31616813331333
 1  15.42997628612861  0.25951543654365 -1.67391174917492
 1  15.46255369826983 -2.36481677377738 -0.09765121902190
 1  14.68028107880788 -2.10286266186619 -1.64609202430243
 1  16.37753738313831 -2.04967049194920 -1.52987445694569
 1  16.04738993969397  1.19767760146015  0.74248079237924
 1  16.57212165936593 -0.17346652175218  1.10695345654565
 1  18.13175411411141 -0.35137168456846 -0.83265660606061
 1  17.59453651815182  1.26336365526553 -1.32137571337134
 1  18.50238103070307  2.33112727042704  0.86006401170117
 1  18.66531369166917  0.72676685768577  1.42901290159016
 1  20.51933684638464  0.25991213941394  0.07112417641764
 1  20.25129923652365  3.13843740564056 -1.24892848624863
 1  21.66279053115312  2.05667232003200 -1.30211157445745
 1  19.91950585498550  1.64576638743874 -1.87643461246125
 1  20.79631560676068  1.50893900300030  2.20358997619762
 1  22.14807651395139  1.86891812151215  0.83654862116212
 1  20.74423415331533  3.11310139343934  1.36062650315032
=======
12 -7.16753732673267  0.62298104620462  0.13446113351335
 6 -4.86005062306231 -1.90444162256226  0.53388992169217
 6 -4.86345627452745  2.74282272957296  1.18130449534954
 6 -9.44781951745174  3.11145664116412 -0.38845170487049
 6 -9.49024933863386 -1.74018952995300 -0.81906833593359
 7 -5.14874829942994  0.41462128022802  0.72348276657666
 6 -4.32454216031603 -0.67807762976298  0.90024804800480
 6 -2.86438544394439 -0.33249267496750  1.29325968016802
 6 -3.09185262366237  1.13423609190919  1.75437616831683
 6 -4.49454644954495  1.48172892169217  1.24931196109611
 6 -2.95619070117012  1.21199348744875  3.27432884178418
 6 -1.87920138113811 -0.45870113151315  0.16286024432443
 6 -0.47408483108311 -0.42731707890789  0.71211534083408
 6  0.49477061426143 -0.62699621252125 -0.50801618211821
 8  0.18888012811281 -0.81813722132213 -1.66056238793879
 8  1.79606141664166 -0.41100849724973 -0.13798058695870
 7 -7.01450189808981  2.65246083588359  0.33233192869287
 6 -6.06343562256226  3.31885286108611  0.83379691329133
 6 -6.36452370547055  4.71822611201120  0.82675336253625
 6 -7.72687539453945  4.81649228072807  0.27134552585259
 6 -8.11689596119612  3.48899809510951  0.07406995329533
 6 -5.46781473817382  5.80577304320432  1.16973173367337
 6 -8.58446624422442  6.08470950465047 -0.00783379797980
 6 -8.57184107540754  7.19463558215822  0.66852310211021
 7 -9.13024529712971  0.64658751985199 -0.47074110781078
 6 -9.89590585028503  1.76588654175418 -0.53393971807181
 6 -11.22290138673867  1.44680301940194 -1.14883660316032
 6 -11.23426583048305  0.08212357645765 -1.26295500950095
 6 -9.89524520522052 -0.37810978527853 -0.85420043614361
 6 -12.36842566626663  2.47273784478448 -1.39545632043204
 6 -12.32840738703870 -0.84063147324732 -1.78825963446345
 6 -12.16457394579458 -1.11308371957196 -3.41995711431143
 7 -7.19396886518652 -1.31973158675868 -0.12865754275428
 6 -8.21059129892989 -2.27309248134813 -0.61048600380038
 6 -7.79419556515652 -3.62524079157916 -0.53121039833983
 6 -6.46210009410941 -3.55320965796580 -0.16156788868887
 6 -6.16821941834183 -2.15281356265627  0.12858566276628
 6 -8.63625109250925 -4.83769661206121 -0.94698317671767
 6 -5.29272374267427 -4.42035591909191  0.13090596319632
 8 -5.17810664856486 -5.66602108550855  0.25190222092209
 6 -4.23864744414441 -3.33728951875187  0.56563642894289
 6 -3.50159078997900 -3.64337955925593  1.88148852175217
 8 -3.62282388298830 -3.13308004420442  2.95781846294629
 8 -2.70136132983298 -4.75100982338234  1.75388396929693
 6 -2.28221880978098 -5.20446467556756  2.93736867236724
 6  2.75463797549755 -0.72788058265827 -1.27307850825082
 6  4.17454954395440 -0.37572574887489 -0.71777192619262
 6  5.15879936433643  0.35379164456446 -1.02943271597160
 6  5.04268269126913  1.17204985428543 -2.23895806110611
 6  6.46918125092509  0.49347119731973 -0.22144863006301
 6  7.67454499239924 -0.07727807470747 -0.97466441694169
 6  8.90623249584958 -0.02455758615862 -0.16560837363736
 6  10.17987861236124 -0.61883895559556 -0.98560953145315
 6  9.98404510471047 -2.11272220832083 -1.20531399639964
 6  11.42950582748275 -0.21017479827983 -0.15341447284728
 6  12.78104301200120 -0.58185223632363 -0.79091911481148
 6  13.93529299769977 -0.16477768056806  0.08833590109011
 6  15.40225635053505 -0.32978670777078 -0.49418765856586
 6  15.75575724462446 -1.71967960176018 -0.82577219491949
 6  16.34324843074307  0.39233359335934  0.45602010921092
 6  17.89940452985298  0.31617301570157 -0.03411922652265
 6  18.79714008350835  1.28070628762876  0.72861329432943
 6  20.27492616181618  1.36046638013801  0.21480624382438
 6  20.27282863666367  2.09229752695270 -1.08862985568557
 6  21.16564749554956  2.16194913121312  1.25608097149715
 1 -4.14994647914792  3.48219374077408  1.62644723162316
 1 -9.92152254495450  3.99500033503350 -0.50927631913191
 1 -10.32906619601960 -2.53599294009401 -1.40565721792179
 1 -2.57499395629563 -0.91078939283928  1.99971066226623
 1 -2.32733633883388  1.54243782638264  1.22007265766577
 1 -1.97527198469847  0.79402985588559  3.52199591309131
 1 -3.23010807080708  2.21196525402540  3.74291645704570
 1 -3.75663910661066  0.49371405540554  3.91200361316132
 1 -2.02682516741674 -1.45255521592159 -0.55373928312831
 1 -2.09791146364636  0.38417566796680 -0.71714175377538
 1 -0.25473899129913  0.61469608350835  1.13041344044404
 1 -0.13151095309531 -1.09035355055506  1.62223617881788
 1 -5.85456423182318  6.81911055515552  0.82148785798580
 1 -5.32173916331633  5.84429779287929  2.19930622772277
 1 -4.51596555255526  5.61563272967297  0.51877505310531
 1 -9.26008806130613  6.04308045614561 -0.88553878207821
 1 -9.13438465436544  8.05582632153215  0.20123974577458
 1 -8.18626809260926  7.40073647314732  1.69069745524552
 1 -12.28970307540754  2.93990431643164 -2.38616162086209
 1 -13.29180885008501  2.01957584878488 -1.55479667116712
 1 -12.16677840894089  3.35648430313031 -0.48941018501850
 1 -12.48989376777678 -1.74281372647265 -1.36177113201320
 1 -13.15215393429343 -0.34411114791479 -1.54891041854185
 1 -13.20923727632763 -1.63312799899990 -3.71061094559456
 1 -12.29489305350535  0.01537700010001 -3.70306380208021
 1 -11.36059233853385 -1.58738360546055 -3.85085370537054
 1 -9.20670027302730 -4.90268101100110 -1.89095235933593
 1 -7.92912227702770 -5.82410241444144 -0.86155576857686
 1 -9.39788967386739 -5.04496951825183 -0.09824164676468
 1 -3.33041373727373 -3.47417066776678 -0.23298857035704
 1 -1.51816998349835 -4.50091653135314  3.31343425872587
 1 -3.15374498309831 -5.23584520212021  3.59286212511251
 1 -2.00966907840784 -6.45851512471247  2.76742069496950
 1  2.80878018211821 -1.67395923182318 -1.50902486748675
 1  2.35910338793879 -0.06912263266327 -2.06623977617762
 1  4.35981688728873 -0.82703491869187  0.29552276827683
 1  3.90258922242224  1.36586529692969 -2.63404177387739
 1  5.47327273897390  2.28917917681768 -2.13549001720172
 1  5.61250855845584  0.89186029352935 -3.29565829682968
 1  6.80292235513551  1.56888088808881 -0.15966332353235
 1  6.45548966836684  0.06395835843584  0.71731144784478
 1  7.41530891559156 -1.07609684488449 -1.43110443404340
 1  8.06619905580558  0.53276648474847 -1.85375829942994
 1  9.28140019161916  1.01580946594660 -0.19382174997500
 1  8.78021651035104 -0.53104861106111  0.75223308700870
 1  10.25268281968197 -0.17712517481748 -2.00818570807081
 1  9.16148113361336 -2.37042501900190 -1.66218214301430
 1  10.82815537123712 -2.74990177407741 -1.73651789568957
 1  9.95665855185519 -2.65377731973197 -0.13248268796880
 1  11.38346602750275  0.86284851505151 -0.01702021452145
 1  11.47435048844885 -0.57869383068307  0.85653627522752
 1  12.88463178207821 -1.75334349554956 -0.56629429702970
 1  12.86608036053605 -0.30408971797180 -1.98194155545555
 1  13.63564500120012  0.94149670567057  0.28416575957596
 1  13.93902665576558 -0.52277188188819  1.21264778127813
 1  15.48540182868287  0.23075256025603 -1.33715807380738
 1  15.67648509140914 -2.14107439953995  0.15787433353335
 1  14.93095614631463 -2.23701607720772 -1.26838425352535
 1  16.67118674807481 -1.75515104000400 -1.27347881738174
 1  16.23093829452945  1.47865569926993  0.58074461876188
 1  16.35759020622062 -0.01753092819282  1.46450921212121
 1  18.31017195589559 -0.48707525492549  0.03805046464646
 1  17.76262332683268  0.75144246314631 -1.04098767456746
 1  18.46943773637364  2.20664482218222  0.93034103940394
 1  18.87131429172917  0.94904908590859  1.79508950925093
 1  20.47919283198320  0.18765491369137  0.24202126612661
 1  19.58623272987299  3.14855841774177 -0.91559515291529
 1  21.26407065916592  2.40546719951995 -1.55826719001900
 1  19.95829973437344  1.57562937373737 -1.90877784678468
 1  21.09521549674967  1.73585169426943  2.34666428362836
 1  22.16788849514951  1.93947517721772  0.78715368166817
 1  20.93386311621162  3.25815589888989  1.20349078957896
>>>>>>> 8e03b5b5abfc0030b3aa597dc0de36371bfbd096

