%nproc=4
%Mem=2GB
# td=(NStates=1) CAM-B3LYP/6-31G(d,p) 

TD

0 1
<<<<<<< HEAD
12 -7.11457203020302  0.55712446054605 -0.05366767936794
 6 -4.77184180218022 -1.98324950335034  0.52676920962096
 6 -4.94943487238724  2.80626907420742  1.32856922182218
 6 -9.38451318681868  3.06331182668267 -0.38187104680468
 6 -9.54378469216922 -1.72261777277728 -0.87011344044404
 7 -5.11914533913391  0.42248206630663  0.76504692299230
 6 -4.26905661176118 -0.82207202920292  0.85566358955896
 6 -2.94657366276628 -0.40454988068807  1.23579393359336
 6 -3.13346678507851  1.01250391869187  1.74752548324832
 6 -4.40087708260826  1.46852760156016  1.27990502040204
 6 -2.99737481958196  1.23423571167117  3.34714612351235
 6 -1.98679214021402 -0.56891215261526  0.06199015731573
 6 -0.55998342094209 -0.50952529972997  0.56692082138214
 6  0.49229036623662 -0.66731024392439 -0.54300968146815
 8  0.20017125722572 -0.93938934653465 -1.71143747544754
 8  1.66094790529053 -0.26102349874987 -0.32535932483248
 7 -7.09338978687869  2.59682527232723  0.25515421092109
 6 -6.08723800280028  3.34511548734873  0.71358489208921
 6 -6.42760001310131  4.71710600000000  0.82182286948695
 6 -7.74777748474848  4.88269890139014  0.25950434173417
 6 -8.08016228782878  3.47334652995300 -0.02003945764576
 6 -5.48151610831083  5.79981244714472  1.32536729722972
 6 -8.46674447204720  6.08974000770077 -0.07988100270027
 6 -8.46532042334233  7.27046316491649  0.72328857865787
 7 -9.12714498709871  0.62816567766777 -0.56038007170717
 6 -9.87944420412041  1.86767672077208 -0.74640096419642
 6 -11.24074317091709  1.42684102320232 -1.08768048754875
 6 -11.31664406830683  0.05672103620362 -1.21525023902390
 6 -9.92592827352735 -0.36178815311531 -0.87391240734073
 6 -12.28185700940094  2.37503807480748 -1.39240601540154
 6 -12.40698524482448 -0.72477988808881 -1.68882969146915
 6 -12.24037152555256 -1.18747115831583 -3.23550866946695
 7 -7.20455992429243 -1.43105271887189 -0.14953963096310
 6 -8.25864610441044 -2.33331850395039 -0.55981093629363
 6 -7.78376452205221 -3.62779104660466 -0.41326860416042
 6 -6.45121900600060 -3.57342167916792 -0.09359109100910
 6 -6.10312290869087 -2.23350163146315  0.01401420562056
 6 -8.57003447084708 -4.85679852225222 -0.91086956535654
 6 -5.32910738103810 -4.49598348184818  0.10484335693569
 8 -5.13970280818082 -5.71168565196520  0.24101113181318
 6 -4.18197177657766 -3.44355014481448  0.63894375967597
 6 -3.58911954285429 -3.60918613991399  1.94929530243024
 8 -3.88561016161616 -3.12345908210821  3.03283596469647
 8 -2.77958915261526 -4.76352107450745  1.96993557445745
 6 -2.15841642954295 -5.17808203730373  3.12277721322132
 6  2.73649616131613 -0.44747254185419 -1.28781998239824
 6  4.05632772177218 -0.22599077537754 -0.59075922492249
 6  5.10574405880588  0.49414567996800 -1.09186895959596
 6  5.15191361436144  1.39014166346635 -2.23080724602460
 6  6.40665499829983  0.51156300650065 -0.21365785098510
 6  7.56279381728173  0.04383403650365 -0.93352030253025
 6  8.92552442504251  0.09006387598760 -0.21825363816382
 6  10.09889051355136 -0.40560763246325 -1.04902587308731
 6  10.05148184838484 -1.88818975507551 -1.40628409340934
 6  11.36573945084509 -0.01559534033403 -0.14264339573957
 6  12.80805571327133 -0.37247129822982 -0.68370839373937
 6  13.99052852125213 -0.13602480528053  0.18923599109911
 6  15.36279240414041 -0.24120784988499 -0.46373461326133
 6  15.62198386728673 -1.69243687748775 -0.83991360906091
 6  16.49719382528253  0.37419177917792  0.38116262346235
 6  17.91264585398540  0.39695109350935 -0.16302211681168
 6  18.94435480498050  1.11904012101210  0.75695612861286
 6  20.26772544174417  1.15769610311031  0.23056781998200
 6  20.55916727052705  1.93533183038304 -1.03870486318632
 6  21.34375530633064  1.81652458875888  1.36501186458646
 1 -3.97623910841084  3.35598111951195  1.48910349724973
 1 -10.15769616231623  3.98274910991099 -0.61313670517052
 1 -10.23133642304230 -2.54233357415742 -1.15107175937594
 1 -2.65129158605861 -1.09240755465547  2.19978066926693
 1 -2.29628323352335  1.65187877047705  1.31581223162316
 1 -1.77185164266427  0.89184963786379  3.63021673517352
 1 -3.23495855585559  2.24424848234823  3.51509367476748
 1 -3.71467491019102  0.39594427842784  3.83224563736374
 1 -2.18346083098310 -1.53759371977198 -0.38376228542854
 1 -2.19712138463846  0.20987823822382 -0.70144018361836
 1 -0.31648516591659  0.34047866176618  1.26522692179218
 1 -0.52893069506951 -1.39095361056106  1.22896685188519
 1 -5.75942471787179  6.83312195629563  0.78601431063106
 1 -5.46313330273027  5.84266762986299  2.28406470357036
 1 -4.41702565856586  5.57063823022302  0.95576875247525
 1 -9.17224927742774  6.04863101120112 -0.88853908210821
 1 -8.87863907980798  8.16186692559256  0.18143776557656
 1 -7.77812727852785  7.43786018551855  1.56119450495050
 1 -12.08859296439644  2.76906723272327 -2.46070907560756
 1 -13.14179384858486  1.90992488368837 -1.46666785828583
 1 -12.28076980808081  3.16749540424042 -0.75587683168317
 1 -12.59137391579158 -1.83831327642764 -1.16688164306431
 1 -13.40837955685569 -0.17975471227123 -1.43586911441144
 1 -13.06362271487149 -1.82816750295030 -3.43994387888789
 1 -12.02785634983498 -0.47732226982698 -4.10568406410641
 1 -11.38998527782778 -1.76088095519552 -3.26208482848285
 1 -8.74874447744774 -4.64713545644564 -2.09311257535754
 1 -8.11033039783978 -5.78022802700270 -0.86182579557956
 1 -9.63149303420342 -4.98444346564656 -0.33846566916692
 1 -3.43472416831683 -3.39882313301330 -0.13902917441744
 1 -1.57795596209621 -4.49880632033203  3.38169108440844
 1 -3.07257686628663 -5.54859647724773  3.88577141604160
 1 -1.70865897739774 -6.02626189938994  2.75802975587559
 1  2.83371267536754 -1.56025786168617 -1.54801876687669
 1  2.57534501210121  0.23919819941994 -2.03489664186419
 1  4.34709561516151 -0.71365358055806  0.18159137513751
 1  4.22725168866887  1.05087379777978 -2.84054242394239
 1  5.31299671137114  2.55043530243024 -1.98827529572957
 1  5.81514882248225  1.02458356585659 -3.04700343134313
 1  6.70801286418642  1.61146514651465  0.00333297609761
 1  6.05789990939094  0.12304426702670  0.82360207690769
 1  7.38437582228223 -0.86045528072807 -1.17068839243924
 1  7.76174861076108  0.74235744384438 -1.96851977557756
 1  8.83455550715071  0.96060394539454  0.30134776697670
 1  8.94648313701370 -0.41864737093709  0.67400526422642
 1  10.26249380078008  0.20932347004700 -2.00953584308431
 1  9.19684466996700 -2.18698667516752 -2.01659758455846
 1  10.88081063676368 -2.44513129702970 -1.99326357025703
 1  10.04442732873287 -2.40144208620862 -0.49096853655366
 1  11.18117579847985  1.06686891709171  0.13384487198720
 1  11.35796885028503 -0.74198015931593  0.62441306290629
 1  12.77296061496150 -1.46392455365537 -0.87454512211221
 1  12.93595734823482  0.04795548654865 -1.61445480678068
 1  13.91917335403540  0.81899445544554  0.51589893289329
 1  14.03857661076108 -0.85916552125213  1.02728924542454
 1  15.13282657115712  0.34346383138314 -1.36362072007201
 1  15.66918436133613 -2.35532582468247 -0.11494294819482
 1  14.96176922762276 -1.97692006760676 -1.59141655675568
 1  16.54732436183619 -1.77821334623462 -1.36413788328833
 1  16.20702590329033  1.42965079877988  0.67405394969497
 1  16.42962740994099 -0.28852802790279  1.18871163236324
 1  18.21419235793579 -0.55072161956196 -0.54770811121112
 1  17.79880694519452  0.88576589548955 -1.18548212401240
 1  18.39905069766977  2.01122528022802  1.28055606090609
 1  19.08168532883288  0.27217139813981  1.85447544784478
 1  20.52998791149115  0.04817096529653  0.00748781278128
 1  20.00718482508251  2.84351791369137 -1.01218481188119
 1  21.61306555865587  2.18043469626963 -1.15996736003600
 1  20.14340824522452  1.33282509330933 -2.00710767976798
 1  21.44637061226123  1.21129923902390  2.34235385258526
 1  22.46491819811981  1.85785701540154  1.19068403470347
 1  20.78132786268627  2.73385346864686  1.63111355185519
=======
12 -7.13949452245225  0.62226097419742  0.10009769716972
 6 -4.84467908590859 -1.97332851125112  0.50044657735774
 6 -4.83972390129013  2.75600404770477  1.09807617251725
 6 -9.43839857535754  3.01137663316332 -0.37653051275128
 6 -9.41253156685669 -1.77968347934794 -0.98038446754675
 7 -5.20244366896690  0.40774059215922  0.73510392869287
 6 -4.32899260536054 -0.72803262526253  0.77360538373837
 6 -2.96139514491449 -0.35740516621662  1.19730008420842
 6 -3.15692913131313  1.02561522982298  1.60736146684668
 6 -4.43144013891389  1.40147089588959  1.11386841674167
 6 -2.97531261336134  1.09897218531853  3.14634604350435
 6 -1.92327578857886 -0.65314057545755  0.10900485878588
 6 -0.46460388298830 -0.44422877007701  0.45325945524553
 6  0.47095823302330 -0.52471598449845 -0.63163854435444
 8  0.17333857395740 -0.84172958055806 -1.75722205390539
 8  1.76025783628363 -0.43610100650065 -0.31112790169017
 7 -7.13491393929393  2.61513710351035  0.29522821832183
 6 -6.05008428742874  3.37556853265327  0.73585711931193
 6 -6.37362461556156  4.77276156555656  0.69871055825583
 6 -7.67555026202620  4.85157578907891  0.34931332263226
 6 -8.19704397599760  3.49824902020202  0.05302784908491
 6 -5.49177713441344  5.96918938483848  1.11539630013001
 6 -8.53631142874287  5.94129516321632  0.30608759415942
 6 -8.47248113941394  7.21829794839484  0.85735198499850
 7 -9.05432770537054  0.68262112321232 -0.54677871157116
 6 -9.86717297699770  1.74225417851785 -0.68538486258626
 6 -11.26186528312831  1.38495683478348 -1.08658037753775
 6 -11.25335773967397  0.02409777387739 -1.27738645264526
 6 -9.89490517121712 -0.42079405370537 -0.99265428152815
 6 -12.33589241294129  2.46272684368437 -1.38957573237324
 6 -12.45087963426343 -0.76629403950395 -1.72017282578258
 6 -12.32257974637464 -1.14784719591959 -3.10426554515452
 7 -7.13216268456846 -1.35508512211221 -0.23390806780678
 6 -8.22518275807581 -2.20174534663466 -0.47768272347235
 6 -7.84216036163616 -3.62045031253125 -0.47828510581058
 6 -6.53373725782578 -3.58845318231823 -0.08493022492249
 6 -6.14967756415642 -2.15153343464346  0.03029583378338
 6 -8.61456892429243 -4.83759660206021 -0.81879035743574
 6 -5.26814128442844 -4.33271715521552  0.28555142774277
 8 -5.10314915281528 -5.52054653805381  0.22633966466647
 6 -4.15150873027303 -3.25271106090609  0.61653151845185
 6 -3.50670130103010 -3.58488370967097  2.02462283518352
 8 -3.76360796139614 -3.03798053425343  3.05562824392439
 8 -2.71889308300830 -4.63244796719672  1.82087066796680
 6 -2.11500208810881 -5.23598782788279  2.95720065556556
 6  2.84000651235124 -0.58017581218122 -1.28886008640864
 6  4.15592768176818 -0.36813498979898 -0.57096724572457
 6  5.14804828922892  0.41080734613461 -1.06657643034303
 6  5.09797822082208  1.21040368966897 -2.30641480678068
 6  6.43248758155816  0.52335418561856 -0.27647413261326
 6  7.64881241914191 -0.15196554345435 -0.93961091159116
 6  8.93817569016902 -0.10095522592259 -0.16373818661866
 6  10.21903252775278 -0.47773484518452 -0.88127909840984
 6  10.05422212241224 -2.01732266836684 -1.20933439843984
 6  11.34762763966397 -0.31770555135514  0.07654852345235
 6  12.75888079577958 -0.68798284938494 -0.61517154005401
 6  13.89760922932293 -0.11448265106511  0.22735980348035
 6  15.24922104700470 -0.20861459055906 -0.49098733853385
 6  15.72833450235023 -1.66356399019902 -0.80140975867587
 6  16.40832493839384  0.38519287928793  0.41149565676568
 6  17.85965055445545  0.53852525092509 -0.26368218281828
 6  18.88086845634563  1.19710792779278  0.74047448044804
 6  20.32281095029503  1.26590692419242  0.18251301450145
 6  20.36336769056906  2.21225952315232 -1.11068206090609
 6  21.22772370317032  1.89310224652465  1.39309467286729
 1 -4.16406789128913  3.26206172757276  1.56978156505651
 1 -10.24480487318732  3.71826266126613 -0.37824321582158
 1 -10.09659294869487 -2.49652899369937 -1.39512616481648
 1 -2.76741319821982 -1.01731004490449  2.17145783698370
 1 -2.48074167936794  1.72210579317932  1.03522417281728
 1 -1.72067652515252  1.00864131703170  3.38102181568157
 1 -3.36621168116812  2.08561261876188  3.28244040944094
 1 -3.71390483318332  0.11339602360236  3.80888330113011
 1 -2.06777926282628 -1.49795975637564 -0.47844175337534
 1 -2.29911158365837  0.01750900130013 -0.61280131973197
 1 -0.14349786718672  0.59946456035604  0.89201960106011
 1 -0.11595939793979 -1.14327884308431  1.08950290549055
 1 -5.82987176257626  6.78154679877988  0.52984869406941
 1 -5.79437642704270  6.49259262236224  2.19165546264626
 1 -4.46634059005901  5.90165133153315  1.14408758435844
 1 -9.30783283578358  5.94789093719372 -0.30229045724572
 1 -9.21457267316732  7.89177991689169  0.56809643144314
 1 -7.49386885268527  7.65016141564157  1.44727311281128
 1 -12.13082718781878  2.92938326432643 -2.19460246494649
 1 -13.26870653985398  1.98720261146115 -1.55157634913491
 1 -12.50886261736174  3.04631328602860 -0.42474371837184
 1 -12.61325610401040 -1.69060850595059 -1.18024297919792
 1 -13.36449516841684 -0.02874961176118 -1.62603813131313
 1 -13.18035438803880 -1.67013169936994 -3.47845773027303
 1 -11.96633019721972 -0.31924646224623 -3.77441093679368
 1 -11.46600287958796 -2.00123499059906 -3.22463108310831
 1 -8.96251585458546 -4.82228297119712 -1.80924418851885
 1 -8.09426879167917 -5.69476948114811 -0.66165577857786
 1 -9.46993687858786 -4.94729975127513 -0.43667549014901
 1 -3.37943863976398 -3.59818306900690 -0.20664593609361
 1 -1.47153532003200 -4.59622606230623  3.54894781008101
 1 -3.00413002160216 -5.80779239683968  3.64823766266627
 1 -1.48870698219822 -6.20282955615562  2.70514446734673
 1  2.50496980108011 -1.45024686058606 -1.77480144514451
 1  2.76259373697370  0.24423870347035 -1.99101225342534
 1  4.15608651425143 -0.87741995719572  0.45843905990599
 1  4.08759772327233  1.24928363876388 -2.65221359105911
 1  5.64297970967097  2.15776603550355 -2.05201166936694
 1  5.85317262486249  0.60087119461946 -3.16139487048705
 1  6.64967703060306  1.64299829982998 -0.27820517771777
 1  6.23971809120912  0.28240020262026  0.64718443514351
 1  7.34452183688369 -1.13295253045305 -1.15544686828683
 1  7.72515495139514  0.24364757285729 -1.82341526512651
 1  8.97022907450745  0.91236912191219  0.21135876807681
 1  8.89349783848385 -0.50465597179718  0.73277114081408
 1  10.17486503790379 -0.03580104240424 -1.83402829232923
 1  9.39282426792679 -2.31486946344634 -2.00345627042704
 1  10.99172172787279 -2.04277106100610 -1.78094233813381
 1  9.82813569956996 -2.69364130613061 -0.31038047774777
 1  11.68218589948995  0.76281851205121  0.24323581108111
 1  11.19447250065007 -1.11385734703470  0.78862948454845
 1  12.58687200610061 -1.76513467466747 -0.54849251685168
 1  12.82538629112911 -0.36805611461146 -1.75491885318532
 1  13.69658109480948  0.85076763276328  0.70008735173517
 1  13.91529428252825 -0.83095269997000  1.05270178667867
 1  15.15186847534753  0.43325281028103 -1.33669802780278
 1  15.77716515941594 -2.45522581468147 -0.02663411731173
 1  15.15287833853385 -2.31333370897090 -1.50991840694069
 1  16.65306493589359 -1.42266779167917 -1.22752422192219
 1  16.17439263996400  1.50931876557656  0.89936648094809
 1  16.62177662486248 -0.09952912801280  1.52483524472447
 1  18.26281722042204 -0.48792533993399 -0.41796513691369
 1  17.83811087558756  1.19142646154615 -1.11104468026803
 1  18.47500829342934  2.06836099379938  1.04612261756176
 1  18.87812497279728  0.67977215821582  1.64959495979598
 1  20.63317823052305  0.16582273047305  0.00678774277428
 1  19.85419952655266  3.18257181908191 -1.05209880328033
 1  21.43864811691169  2.47322397519752 -1.26966833013301
 1  19.78413231763177  1.72377418821882 -1.91146811581158
 1  21.19625560076008  1.23022113121312  2.23348296549655
 1  22.17242894919492  2.17160839053905  0.96171113741374
 1  20.61119084898490  2.68935901920192  1.44304474497450
>>>>>>> 8e03b5b5abfc0030b3aa597dc0de36371bfbd096

