%nproc=4
%Mem=2GB
# td=(NStates=1) CAM-B3LYP/6-31G(d,p) 

TD

0 1
12 -7.05324589758976  0.56647539563956 -0.00703301590159
 6 -4.84872949094909 -1.95225640404040  0.55110164286429
 6 -4.77869779867987  2.87734618191819  1.03896026092609
 6 -9.38151288678868  3.09499499499950 -0.52162502220222
 6 -9.48159847354736 -1.69280479147915 -0.79729615871587
 7 -5.10015343994399  0.51395121322132  0.70097051535154
 6 -4.34814452055206 -0.75887570957096  0.84205222842284
 6 -2.91007001240124 -0.41858128382838  1.19977033123312
 6 -3.01505494389439  1.06173884218422  1.57182791349135
 6 -4.36680367526753  1.51416216501650  1.07599462936294
 6 -2.83976905900590  1.27443973207321  3.08004941384138
 6 -1.96367982898290 -0.63841910331033  0.00439439773977
 6 -0.51956937953795 -0.46678102530253  0.39180330963096
 6  0.52964410161016 -0.84920843374337 -0.63702908340834
 8  0.23666490659066 -1.06020142774277 -1.80256658835884
 8  1.80564237473747 -0.67702509890989 -0.18468525742574
 7 -7.07482793069307  2.64594018381838  0.33576227172717
 6 -6.01717099609961  3.43277425322532  0.79754328792879
 6 -6.40664791789179  4.81092538193819  0.72320300750075
 6 -7.74695740274027  4.88190882238224  0.29589798109811
 6 -8.13025729732973  3.52538173347335 -0.00018747244724
 6 -5.57218517521752  5.91040350625063  1.14419918041804
 6 -8.62449024662466  6.03989502320232  0.28654563996400
 6 -8.45189908120812  7.23357947654765  0.90001625142514
 7 -9.10351262386239  0.66446930803080 -0.51110514421442
 6 -9.81702796249625  1.83585353845385 -0.63451977607761
 6 -11.20998009460946  1.44944328342834 -1.05595731523152
 6 -11.25085748964896  0.11694705880588 -1.20873958795880
 6 -9.86293197389739 -0.42040401470147 -0.84648966506651
 6 -12.26895571927193  2.54173474447445 -1.31657843264326
 6 -12.30026457275728 -0.73023043314331 -1.77982879137914
 6 -12.19996748514852 -0.97258967016702 -3.25444056265627
 7 -7.22461192949295 -1.33921353495350 -0.15447012401240
 6 -8.23007324712471 -2.24844001610161 -0.47406236143614
 6 -7.84890103570357 -3.65587385488549 -0.50163744104410
 6 -6.55050893499350 -3.59614395139514 -0.03251498339834
 6 -6.15953855025503 -2.12237051835184  0.19600240444044
 6 -8.58654612201220 -4.88763160556056 -0.95784426282628
 6 -5.40179464976498 -4.35921980548055  0.26013888648865
 8 -5.16018485638564 -5.53564804820482  0.24544157485749
 6 -4.21692527192719 -3.35623141294129  0.60573043834383
 6 -3.49944057495750 -3.72305752705271  1.99914028692869
 8 -3.79426102670267 -3.10293702990299  3.01976465756576
 8 -2.70025121882188 -4.70857557995800  1.84484306520652
 6 -2.08438902680268 -5.21081531063106  3.08287322282228
 6  2.82047455915592 -0.87180497509751 -1.15786698709871
 6  4.09638172717272 -0.61050922722272 -0.47036718571857
 6  5.04745823022302  0.27079334473447 -1.02193196589659
 6  4.88315673867387  1.21599424872487 -2.22999716501650
 6  6.41899623242324  0.32865471567157 -0.43947043224322
 6  7.56172371027103 -0.30686103300330 -1.17299424992499
 6  8.87137901050105 -0.15821095149515 -0.18849066186619
 6  10.22921354585458 -0.57904497619762 -0.95782675317532
 6  10.16976367656766 -2.06139707580758 -1.38817228222822
 6  11.44297717461746 -0.23087686848685 -0.12029116051605
 6  12.81402631033103 -0.36932098319832 -0.73446346924692
 6  13.96474594299430 -0.01345254805481  0.16431349884988
 6  15.28291441634163 -0.06636036513651 -0.52262050185018
 6  15.61850351925193 -1.55946358015802 -0.87015663336334
 6  16.34304841074107  0.52995735573557  0.31810631783178
 6  17.80150473987399  0.48216961536154 -0.12617843244324
 6  18.74443481298130  1.21614983198320  0.84808524152415
 6  20.25690435963596  1.42222255575558  0.32909767296730
 6  20.34086544034404  2.26722501970197 -0.93285427812781
 6  21.17616854765477  1.92473540984098  1.50078544194419
 1 -4.00489197369737  3.69892541394139  1.26240082698270
 1 -10.10827121982198  3.88863969896990 -0.67705309680968
 1 -10.49582287168717 -2.26456579737974 -1.33444009620962
 1 -2.78163462036204 -0.96178449234924  2.05825651685169
 1 -2.13376698189819  1.72975655825583  0.98951960236024
 1 -1.82889734723472  1.03501395429543  3.36923063656366
 1 -2.77222228222822  2.35332939043904  3.42786495189519
 1 -3.51073451615162  0.79522420642064  3.79305171797180
 1 -1.85489797469747 -1.67768772917292 -0.17469137833783
 1 -2.37436910941094 -0.17267001660166 -0.83729376897690
 1 -0.24400791819182  0.55556016991699  0.85263566266627
 1 -0.09725752775278 -1.08158267346735  1.20182413761376
 1 -5.64247302270227  6.83001164526453  0.61667737693769
 1 -5.68746573597360  6.12739610271027  2.20059635673567
 1 -4.58633258925893  5.50492165856586  1.07338051365136
 1 -9.40610266276628  5.99074522262226 -0.49254948314832
 1 -9.00044126002600  8.09918065696570  0.81827144894489
 1 -7.50211967776778  7.17709410891089  1.58993737923792
 1 -11.84334843994399  3.51437176317632 -1.99498250295030
 1 -13.20209987918792  2.26180007120712 -1.67458865036504
 1 -12.23140487158716  2.98462711741174 -0.37389863386339
 1 -12.57557233563356 -1.57140658575858 -1.15329028392839
 1 -13.36501522042204 -0.31874861166117 -1.65587111461146
 1 -13.10423677627763 -1.48154284048405 -3.58453833833383
 1 -12.28092165636564 -0.05681021862186 -3.78893238893889
 1 -11.33046932623262 -1.74339920702070 -3.40262888288829
 1 -8.87950755375538 -5.13491423432343 -1.97920118421842
 1 -7.91580094489449 -5.76873687788779 -0.46975658865887
 1 -9.36971685658566 -4.92266728802880 -0.21360318291829
 1 -3.63820451635163 -3.56584983568357 -0.08799407090709
 1 -1.34315248174818 -4.57926436613661  3.59985290059006
 1 -2.88408801740174 -5.36148776637664  3.91273411231123
 1 -1.62460057155716 -6.22186145934594  2.94218817171717
 1  2.92764206830683 -1.82320415631563 -1.79589355435544
 1  2.96909438703870  0.03402768236824 -2.01738489068907
 1  4.44787569316932 -1.21188340354035  0.46741995799580
 1  3.88032699619962  1.30079879027903 -2.58983735343534
 1  5.10031544324432  2.25985624452445 -1.91867833603360
 1  5.43340064766477  0.98863997149715 -3.15030376137614
 1  6.55758782168217  1.41172517251725 -0.05310266746675
 1  6.50718483788379 -0.24192222962296  0.42665238193819
 1  7.22503988868887 -1.30494973017302 -1.44586591019102
 1  7.70045248114811  0.17106031413141 -1.90370329392939
 1  9.06353840544054  0.87118500350035  0.31987962016202
 1  8.60006849554956 -0.85020052625263  0.68615647934793
 1  10.35129268066807 -0.13351081338134 -2.06388127762776
 1  9.27576256175618 -2.26936491299130 -2.01137706250625
 1  11.00896345204520 -2.34987177107711 -2.09905414931493
 1  10.06435932193219 -2.79503144514451 -0.72233167286729
 1  11.34965264616462  0.80599282948295  0.14920640814081
 1  11.26567962136214 -0.83370933223322  0.87336795839584
 1  12.93403672257226 -1.48011617281728 -1.05221288888889
 1  12.77381113361336  0.18236892789279 -1.77274063536354
 1  13.65533697039704  1.04318687468747  0.46798414141414
 1  13.65234798789879 -0.75952555725573  0.91066758325833
 1  15.14059734823482  0.35191467646765 -1.37168152615262
 1  15.74865230813081 -2.14634492659266  0.22779132523252
 1  14.88136118681868 -2.13062543814381 -1.43009042414241
 1  16.63874350375038 -1.46317184208421 -1.44251572107211
 1  15.99064426512651  1.53080091379138  0.77902444674467
 1  16.47362180938094 -0.06122529762976  1.34415717691769
 1  18.01664260296030 -0.51766831423142 -0.35790913131313
 1  17.70300736523653  1.10927824672467 -0.98389196499650
 1  18.22428322092209  2.18541269896990  1.17030503580358
 1  18.81882904320432  0.58638281928193  1.87221722202220
 1  20.54043895659566  0.38550469866987  0.00685774977498
 1  19.89482358895889  3.12230579247925 -0.80970456385639
 1  21.27749200130013  2.34069072187219 -1.43409477277728
 1  19.80974487888789  1.88928073887389 -1.64485145414541
 1  20.78190416561656  1.37711582068207  2.38793841104110
 1  22.13841554785478  2.09749097879788  1.25000996729673
 1  20.94076380628063  3.04652473577358  1.61774221472147

