%nproc=4
%Mem=2GB
# td=(NStates=1) CAM-B3LYP/6-31G(d,p) 

TD

0 1
12 -7.14511508450845  0.60155890399040  0.09399708710871
 6 -4.92335695369537 -1.98095927432743  0.64831136383638
 6 -4.83353328222822  2.87100554785479  1.22936930183018
 6 -9.44489922542254  3.13806930243024 -0.28335119481948
 6 -9.44001431513151 -1.74939045004500 -0.96185261436144
 7 -5.06578000260026  0.45598541664166  0.68711913021302
 6 -4.27362706880688 -0.70866068806881  0.77566558975898
 6 -2.96584558995900 -0.29101852755276  1.28073842804280
 6 -3.00905434383438  1.05810847914791  1.70318104880488
 6 -4.36654364926493  1.55507625642564  1.10019704960496
 6 -3.10269535163516  1.38279056715672  3.20646205510551
 6 -1.91605506650665 -0.58667392879288  0.09511346964696
 6 -0.44897231983198 -0.50009435663566  0.54089821912191
 6  0.55422655985599 -0.66542005490549 -0.67420280078008
 8  0.26031727182718 -0.97053246084608 -1.83420975267527
 8  1.75090690119012 -0.49748714511451 -0.17541433033303
 7 -7.11257170507051  2.63679926972697  0.34154284978498
 6 -6.07669694869487  3.35490646644664  0.80607414101410
 6 -6.38985623872387  4.75155944534453  0.80981166836684
 6 -7.73043575057506  4.82664329582958  0.34925331663166
 6 -8.15844011561156  3.46395559085909  0.01155370167017
 6 -5.41040899759976  5.94479694559456  1.12075683618362
 6 -8.61832963056306  5.99878091179118  0.22851983738374
 6 -8.44935882718272  7.22851897049705  0.85795204500450
 7 -9.07994026662666  0.62161502260226 -0.53716775047505
 6 -9.86977323702370  1.75515546864686 -0.71072739683968
 6 -11.17634673127313  1.40814915401540 -1.22032375187519
 6 -11.19323172707271  0.03994935903590 -1.34617333133313
 6 -9.89466514721472 -0.47124909920992 -0.92861787788779
 6 -12.27474629832983  2.34289486048605 -1.41821859665967
 6 -12.33248779507951 -0.84797220732073 -1.68970977947795
 6 -12.28698618701870 -1.23409582078208 -3.19753487208721
 7 -7.19227869616962 -1.41720133373337 -0.10423510051005
 6 -8.28903914371437 -2.21182635473547 -0.57410236543654
 6 -7.82184833043304 -3.61492976047605 -0.63465074237424
 6 -6.49513339743974 -3.55774011101110  0.02434070217022
 6 -6.24859745614561 -2.19214749604961  0.18391119531953
 6 -8.42586005340534 -4.83924676707671 -1.15181365976598
 6 -5.39831430173017 -4.35796968046805  0.33918679127913
 8 -5.17338617651765 -5.57301178457846  0.24739176987699
 6 -4.23078665806581 -3.39384517431743  0.63561342664266
 6 -3.56663729462946 -3.67794301560156  1.95321569446945
 8 -3.90694229482948 -3.12870960716072  2.96538922002200
 8 -2.62767396109611 -4.60895561796180  1.85740432133213
 6 -1.96572716061606 -5.12492672177218  3.07589252475248
 6  2.80631314301430 -0.51043883848385 -1.14503570397040
 6  4.11070315931593 -0.28465664196420 -0.54915506450645
 6  5.14797828222822  0.43717998339834 -1.07055682838284
 6  5.07330575357536  1.35786843614361 -2.23299746504650
 6  6.47593192599260  0.47416926712671 -0.36070255545555
 6  7.68494603250325 -0.08078842574257 -1.05438238873887
 6  8.96697857045705  0.01649651925193 -0.16073788658866
 6  10.17329795429543 -0.49479655135514 -0.95932690319032
 6  10.05380208040804 -2.04395533163316 -1.29135260026003
 6  11.45976885378538 -0.21432521332133 -0.14895402680268
 6  12.78681358905891 -0.56518056915692 -0.84228425132513
 6  13.90229969836984 -0.09060026282628  0.11414848234823
 6  15.32076820172017 -0.36200993009301 -0.49264750455046
 6  15.71867353625363 -1.79516715051505 -0.70595021272127
 6  16.35846995289529  0.31529588958896  0.46535104230423
 6  17.72414700410041  0.44871627002700 -0.15945175977598
 6  18.82898326782678  1.04645286228623  0.84066449944995
 6  20.18302697189719  1.34812514601460  0.23256802000200
 6  20.22380373417342  2.18559685688569 -1.03084407710771
 6  21.15176610741074  1.87367030333033  1.24513987738774
 1 -4.09604108860886  3.60099562096210  1.49782436933693
 1 -10.17555794849485  3.84087492249225 -0.35955134663466
 1 -10.12772606200620 -2.50904024482448 -1.31214786698670
 1 -2.66525298219822 -0.81409972387239  2.05820651185118
 1 -2.24873847904790  1.70410399299930  1.38504915531553
 1 -2.12155661316132  0.76146659955996  3.51139485298530
 1 -2.97214227422742  2.29866392389239  3.47584975037504
 1 -4.06575001770177  1.00892557655766  3.86329874267427
 1 -2.07373985888589 -1.58742870327033 -0.18766267546755
 1 -2.14393606610661  0.07461471187119 -0.88917895749575
 1 -0.38876239363936  0.39859447334733  1.11285168426843
 1  0.00216241424142 -1.26240075527553  1.38202215741574
 1 -5.65747452285228  6.73278192229223  0.48231394059406
 1 -5.52915990539054  6.31735509860986  2.00701699879988
 1 -4.41566552255226  5.88238940534053  0.78035121072107
 1 -9.54512656515652  5.59798594669467 -0.27304753295330
 1 -9.28875009090909  8.01064180308031  0.96041566336634
 1 -7.43985345114512  7.44389078857886  1.40201858735874
 1 -11.92071617671767  3.21873219921992 -2.12863586828683
 1 -13.25828549774977  1.92179607080708 -1.86055724722472
 1 -12.48795052615262  2.84417307200720 -0.37829907390739
 1 -12.28544332273227 -1.85286473157316 -1.16113106800680
 1 -13.25440415931593 -0.23173991079108 -1.50082561006101
 1 -13.38701505410541 -1.74158884508451 -3.42457234173417
 1 -12.26077964216422 -0.49470400800080 -4.05240873657366
 1 -11.38778505780578 -1.94616948404840 -3.41725034503450
 1 -8.44751435443544 -4.90129087198720 -2.34168743284328
 1 -8.06145551035103 -5.89250925512551 -0.77249686268627
 1 -9.57846773167317 -4.96027104840484 -0.75257708030803
 1 -3.42897359325933 -3.37651090179018 -0.19514478597860
 1 -1.71389955645565 -4.21241768146815  3.72518543384338
 1 -2.80789039763976 -5.83452507010701  3.58748158705871
 1 -1.11652976447645 -5.71587086028603  2.69233318621862
 1  2.71231053515352 -1.58346018191819 -1.69216318131813
 1  2.56828430603060  0.25603988358836 -1.87613076527653
 1  4.41642254785479 -0.81132334753475  0.33871708770877
 1  4.07467643114311  1.41681039143914 -2.68640701040104
 1  5.30851626332633  2.37236749564957 -1.86369283748375
 1  6.00362767036704  1.13716482398240 -2.88313704470447
 1  6.72219428232823  1.55561956195620  0.00112275507551
 1  6.18278239763976  0.03391535413541  0.69962967966797
 1  7.47985537023702 -1.01719095429543 -1.52553387698770
 1  7.83299573547355  0.72792600070007 -1.90388331193119
 1  9.16359841144114  1.03205109010901  0.38366599879988
 1  8.99841833053305 -0.63219872607261  0.68426629032903
 1  10.05690324172417 -0.06975443774377 -1.98092298179818
 1  8.93968895439544 -2.40140811731173 -1.69232515731573
 1  10.68757131283128 -2.36779356325633 -1.84014825872587
 1  10.02996588258826 -2.54901684368437 -0.32349178887889
 1  11.51260894179418  0.95825805600560  0.10546203370337
 1  11.30666371977198 -0.78739470077008  0.85889651125113
 1  12.86000931983198 -1.67803596479648 -1.22647031463146
 1  12.90190394289429  0.15134582558256 -1.63959732103210
 1  13.82947438413841  1.00338289428943  0.14431177417742
 1  13.90871362446245 -0.77576718141814  0.96876339283928
 1  15.33388667716772  0.34116360136014 -1.57107146514651
 1  15.83478092099210 -2.43592388448845  0.43513205930593
 1  14.86647969866987 -2.40227260286029 -1.02358977407741
 1  16.68865849524953 -2.17457298219822 -1.17508897839784
 1  16.09852505320532  1.31305913961396  0.73472001630163
 1  16.40792523972397 -0.23817299239924  1.20105286648665
 1  18.24272521122112 -0.41268781618162 -0.29136247664766
 1  17.77811487598760  1.07684500340034 -1.11158473427343
 1  18.51185197779778  2.13218737643764  1.08948695399540
 1  18.72288944924492  0.54848902990299  1.84989498979898
 1  20.59726463916392  0.41077722592259 -0.05443837983798
 1  19.90297440404040  3.15973953585359 -0.56601019441944
 1  21.22764701680168  2.32709936273627 -1.35554691799180
 1  19.57334123852386  2.06829864066407 -1.98637560656066
 1  21.23875985118512  1.14493260236024  2.09821943914391
 1  22.21001270757075  2.03631486118612  0.65890085638564
 1  20.72018174807481  2.71969205250525  1.42701314181418

