%nproc=4
%Mem=2GB
# td=(NStates=1) CAM-B3LYP/6-31G(d,p) 

TD

0 1
<<<<<<< HEAD
12 -7.12000257325733  0.62244099219922  0.06024371177118
 6 -4.81618623662366 -1.95837701610161  0.61857839053905
 6 -4.72066199509951  2.88187663496350  1.06193255815582
 6 -9.32778751425142  2.99218471397140 -0.44115697539754
 6 -9.60056036973698 -1.79240475147515 -0.83676010511051
 7 -5.03442686728673  0.45334515261526  0.72425284358436
 6 -4.36967667376738 -0.66806662866287  0.81861988518852
 6 -2.98543754915492 -0.41451087678768  1.12355270947095
 6 -3.06125956435644  1.07226989528953  1.60320105080508
 6 -4.34299129402940  1.48915966476648  1.10582761266127
 6 -2.91456653875388  1.17730001810181  3.11994340324032
 6 -1.92706616761676 -0.49521478287829  0.10513447174717
 6 -0.46582400500050 -0.32519686688669  0.44175830513051
 6  0.51085222242224 -0.53318683158316 -0.67320270077008
 8  0.17214845494549 -0.65607101470147 -1.78022435413541
 8  1.72156396689669 -0.26115351175118 -0.34849163806381
 7 -6.99083953185319  2.58332392219222  0.21664035953595
 6 -5.95323460246025  3.37459843564356  0.75390892449245
 6 -6.38163541664166  4.79785407480748  0.64572525972597
 6 -7.72684539153915  4.75129576107611  0.36760515181518
 6 -8.06787105870587  3.45711490679068  0.01724427072707
 6 -5.45895385208521  5.90083254915492  1.07198195869587
 6 -8.58960675827583  5.93420445414541  0.25014199959996
 6 -8.55175906720672  7.09735585418542  0.81996824662466
 7 -9.13992626522652  0.64083694479448 -0.56904093779378
 6 -9.82442870257026  1.78285823892389 -0.68268459255926
 6 -11.25095419201920  1.45608394749475 -1.09810152965297
 6 -11.26490889478948  0.07148251235124 -1.20486920092009
 6 -9.93769945064506 -0.46830880518052 -0.79433444954495
 6 -12.38511733543354  2.37129770077008 -1.42070884568457
 6 -12.37952249854986 -0.80944835493549 -1.65446625512551
 6 -12.35440292869287 -1.19668207940794 -3.05984110271027
 7 -7.21473094139414 -1.35378499209921 -0.10412508950895
 6 -8.30263050285028 -2.23410858295830 -0.53643859905991
 6 -7.76475262086209 -3.60888915641564 -0.31392867016702
 6 -6.44306819091909 -3.49079341634163  0.06535480358036
 6 -6.22259485588559 -2.23313159445945  0.21723452765277
 6 -8.56322378977898 -4.84341718411841 -0.72590106850685
 6 -5.30637510781078 -4.29374325782578  0.23923679627963
 8 -5.09441827972797 -5.51929641304130 -0.01544451375138
 6 -4.10390396979698 -3.29941573137314  0.57199706500650
 6 -3.62994362526253 -3.78802402370237  1.90511088398840
 8 -3.88674027462746 -3.24286102230223  2.97790047114711
 8 -2.69636082978298 -4.72278700110011  1.87604618551855
 6 -2.22308289618962 -5.25869009810981  3.06531146664666
 6  2.73996650835084 -0.53749154375438 -1.34103530393039
 6  4.07206929592959 -0.44216239253925 -0.72036218521852
 6  5.08653213761376  0.36097236263626 -1.12083185588559
 6  5.00537896089609  1.21611426072607 -2.28548271357136
 6  6.38480281308131  0.40199204940494 -0.31458794399440
 6  7.69338687658766 -0.10655100200020 -1.10702765326533
 6  8.94982685528553 -0.12845797619762 -0.19576138893889
 6  10.11916254075408 -0.60242731443144 -0.93660463096310
 6  10.15464216441644 -1.99650058615862 -1.44452791779178
 6  11.40983386028603 -0.22901668246825  0.06035690429043
 6  12.71885679337934 -0.52844689578958 -0.62474249714971
 6  13.93305277367737 -0.06064726752675  0.16647371487149
 6  15.28900502540254 -0.18724245334533 -0.42384062386239
 6  15.64739640854085 -1.63418105190519 -0.84568418611861
 6  16.45920002590259  0.38518287828783  0.44481898909891
 6  17.86348093749375  0.41348274667467 -0.11815763036304
 6  18.79396976647665  1.16558477547755  0.79675010801080
 6  20.32660132933293  1.27079741324132  0.38809357255726
 6  20.46236759055906  2.02974127132713 -1.01891288398840
 6  21.14656558735874  1.98036097239724  1.52195755915592
 1 -4.00098158265827  3.57673319471947  1.45933051995200
 1 -10.08250864356436  3.86630746574658 -0.52420781228123
 1 -10.33308659805981 -2.55980532133213 -0.62207886008601
 1 -2.67614407130713 -1.06237455135514  2.06872756395640
 1 -2.18318192339234  1.52375595819582  1.26578722912291
 1 -1.99742419991999  0.81812226512651  3.55040875437544
 1 -2.76761182118212  2.36332038953895  3.46870903630363
 1 -3.79674311701170  0.71889657365737  3.86128854165417
 1 -1.89684216911691 -1.49921988238824 -0.45381929112911
 1 -2.11371304380438  0.20810806120612 -0.76749678927893
 1 -0.41422493989399  0.66549116301630  0.80962136123612
 1 -0.24788259025903 -1.06343085828583  1.16280023522352
 1 -5.85495427082708  6.91348999309931  0.73740945014502
 1 -5.42484947434743  6.04896825992599  2.21018731583158
 1 -4.45283923992399  5.83854502090209  0.53819699529953
 1 -9.36930898339834  5.93118926702670 -0.53167339553955
 1 -8.96671788768877  8.09709044794480  0.50672029382938
 1 -7.87877734353435  7.39447584708471  1.74917330283028
 1 -12.30897500260026  2.98329865586559 -2.17743074777478
 1 -13.34840450965096  1.86803069426943 -1.43638482998300
 1 -12.36279801090109  3.15446410111011 -0.63505474947495
 1 -12.53346812521252 -1.54838428352835 -0.85203015791579
 1 -13.29314803370337 -0.27183392019202 -1.53858938643864
 1 -13.07938429102910 -1.77100178637864 -3.46870675517552
 1 -12.37558112231223 -0.35126966456646 -3.70989448514851
 1 -11.55571185048505 -1.84076894399440 -3.40000862086209
 1 -8.81147075007501 -5.00449119201920 -1.74335759985999
 1 -7.98179754455446 -5.67937794199420 -0.23948356135614
 1 -9.55186507140714 -4.78450347164716 -0.04363618621862
 1 -3.36547724362436 -3.28556180688069 -0.24088936043604
 1 -1.78930709720972 -4.53437987768777  3.56930984628463
 1 -3.04661427002700 -5.53833545114512  3.80439327822782
 1 -1.72325043654365 -6.22736200940094  2.74592854575458
 1  2.56767607170717 -1.71091292719272 -1.60192415741574
 1  2.58902638023802  0.13817809740974 -2.07586073827383
 1  4.17308821442144 -1.10823303850385  0.07418063406341
 1  3.98670763426343  1.24521323172317 -2.70274864456446
 1  5.17834324602460  2.27106736563656 -1.96063253145315
 1  5.62594990259026  0.99762086958696 -3.03143187418742
 1  6.53697576047605  1.45517951795180 -0.09368672587259
 1  6.28836295569557 -0.51830986838684  0.40002971967197
 1  7.52857024172417 -1.05778501370137 -1.74622594619462
 1  7.81529396529653  0.84980818891889 -1.78350127372737
 1  9.16965901750175  0.73744162916292  0.42872050425042
 1  8.62600108880888 -0.79290479667967  0.76564442814281
 1  10.33383093449345  0.03433597129713 -1.91640653015302
 1  9.35066005150515 -2.18117609410941 -1.98184410921092
 1  11.02188474417442 -2.13939072297230 -2.13758800270027
 1  9.94438732473247 -2.70761270327033 -0.63739317901790
 1  11.41616929782978  0.91838406860686  0.29123061056106
 1  11.32006505990599 -0.91056701800180  0.83603422502250
 1  12.76602992189219 -1.43867202840284 -1.02395006260626
 1  12.68622237473747  0.16790748174818 -1.67504086538654
 1  14.01891332803280  0.95303785978598  0.56701404440444
 1  14.08101085418542 -0.67880748544854  1.16369288578858
 1  15.22032532103210  0.50634011901190 -1.42242660066007
 1  15.74852229512951 -2.30638093019302  0.09258780488049
 1  14.87979102980298 -1.94576695229523 -1.52972038713871
 1  16.66071570097010 -1.72994851975197 -1.43163463296330
 1  16.16928212891289  1.31460929462946  0.99966651095109
 1  16.52374682188219 -0.19111828692869  1.30327308850885
 1  18.29567050575058 -0.48529507690769 -0.39451279167917
 1  17.80802786728673  0.98272559145915 -1.02785636143614
 1  18.61733252585259  2.33595775347535  1.05113311861186
 1  18.83107026732673  0.60426460746075  1.66926692699270
 1  20.85041995469547  0.20336648484848  0.10693775777578
 1  20.21003511011101  3.14589815171517 -0.75843943734373
 1  21.57006125822582  1.97799445224523 -1.46687805110511
 1  20.08400230463047  1.60342215301530 -1.92249921892189
 1  21.30034600980098  1.18807691679168  2.38799841704170
 1  22.32433413971397  2.24704593429343  1.15875084138414
 1  20.71274100400040  2.91258134143414  1.82193263376338
=======
12 -7.08560913391339  0.62658140624062 -0.01212352495250
 6 -4.85477009500950 -1.90524170257026  0.56825335803580
 6 -4.77969789868987  2.84434288158816  1.22972933783378
 6 -9.35888062356236  3.03815931143114 -0.45027788748875
 6 -9.53807412111211 -1.74596010701070 -0.89442587168717
 7 -5.08781220582058  0.44056387448745  0.77919833813381
 6 -4.36337604370437 -0.63910373237324  0.82398042124212
 6 -2.91208021342134 -0.33088251395140  1.19809016321632
 6 -3.03303674207421  1.11947461576158  1.74611534223422
 6 -4.41703869876988  1.57171792059206  1.12752978287829
 6 -2.89610469256926  1.39422171027103  3.27489889878988
 6 -1.87418087908791 -0.64217947934793  0.08215217351735
 6 -0.51799922252225 -0.41448579577958  0.58437256655666
 6  0.50619175637564 -0.59545305820582 -0.65261064156416
 8  0.22402364246425 -0.97634304190419 -1.76479281098110
 8  1.74525633613361 -0.50700809720972 -0.15378216711671
 7 -7.09933038093809  2.64002959275928  0.33474216971697
 6 -6.03962324132413  3.40830180598060  0.78196172977298
 6 -6.38279553265327  4.73621791119112  0.79377006420642
 6 -7.70101280828083  4.85123575507551  0.26107449874987
 6 -8.10262453405341  3.44399359465947 -0.01982943664366
 6 -5.47055501220122  5.91300376627663  1.19090385088509
 6 -8.52669046664666  5.96913794749475  0.07915490089009
 6 -8.44968886018602  7.17913403200320  0.71467771757176
 7 -9.02255452805280  0.64461732283228 -0.63460749444944
 6 -9.82806906660666  1.74861481458146 -0.69771609570957
 6 -11.24771386798680  1.46547488658866 -1.13819553905391
 6 -11.24774717861786  0.09854521862186 -1.16568528252825
 6 -9.90561624232423 -0.40212218651865 -0.84866988308831
 6 -12.24609343304330  2.50066063706371 -1.38805558035804
 6 -12.34425897219722 -0.80890830093009 -1.60448125662566
 6 -12.47158464686469 -1.07291970317032 -3.12897801640164
 7 -7.14360382868287 -1.38568818241824 -0.17525220222022
 6 -8.15695593539354 -2.22934810691069 -0.51942689788979
 6 -7.78896504210421 -3.63011127862786 -0.60308758605861
 6 -6.51509539363936 -3.50635497249725 -0.13999573147315
 6 -6.11786438283828 -2.18500678197820  0.02836564076408
 6 -8.52548001540154 -4.90316315871587 -0.86715519391939
 6 -5.29121359165917 -4.31310519401940  0.13224609720972
 8 -5.12374121202120 -5.53482796619662  0.18418544924492
 6 -4.16370995039504 -3.32471826162616  0.59360922622262
 6 -3.52568319921992 -3.69406462776278  1.86778715161516
 8 -3.80130173077308 -3.12209894609461  2.92067474857486
 8 -2.74246544024402 -4.76496121852185  1.74746332723272
 6 -2.27773836173617 -5.31676590569057  2.94947988348835
 6  2.78076058775878 -0.74859265386539 -1.10633183358336
 6  4.05873796279628 -0.59558773507351 -0.52760290929093
 6  5.09173265766577  0.23035930133013 -0.94965473817382
 6  4.95196361936194  1.11127377667767 -2.01870603590359
 6  6.37923225602560  0.40741259145915 -0.20955744094409
 6  7.62489002690269 -0.19253960086009 -0.91124807530753
 6  8.87511938453845 -0.08825395579558 -0.11321313411341
 6  10.20540116461646 -0.61979905160516 -0.85825679617962
 6  10.09040574077408 -2.09773070917092 -1.25717918291829
 6  11.41763464036404 -0.28164194499450 -0.04700383178318
 6  12.72726763446345 -0.42267631873187 -0.76189621252125
 6  13.98144761316132 -0.15892709550955  0.05878294579458
 6  15.36572269716972 -0.22589631873187 -0.59602784258426
 6  15.70017168606861 -1.66258389218922 -0.84305392309231
 6  16.42243634953496  0.34543890389039  0.35624013121312
 6  17.86039062846285  0.58022942134213 -0.17965377997800
 6  18.67982835233524  1.42202041904190  0.67276770977098
 6  20.22035070427043  1.41043137663766  0.27530229342934
 6  20.37396875067507  2.21757005420542 -1.08030902360236
 6  21.06857778857886  1.95765870217022  1.38244360776078
 1 -4.16145763026303  3.57942346374637  1.78297288418842
 1 -10.29632002470247  3.72755359035904 -0.63054844634463
 1 -10.22746603600360 -2.46425576637664 -1.23596024822482
 1 -2.64660111701170 -0.83929224312431  2.10142083328333
 1 -2.34426803200320  1.76192977557756  1.14886553695370
 1 -1.69544400190019  1.30694114701470  3.53787750125012
 1 -3.24803986398640  2.32763682118212  3.61490365576558
 1 -3.54958840154015  0.77228191219122  3.81355376817682
 1 -2.08203068796880 -1.43148310871087 -0.49366327552755
 1 -1.90360203270327  0.12636988738874 -0.76807684728473
 1 -0.37626114351435  0.56328094199420  0.92041244034403
 1 -0.07303510551055 -1.08396291149115  1.45639959515952
 1 -5.91617039243924  6.78487713181318  0.44962067126713
 1 -5.37717470687069  6.41907527062706  2.11796809390939
 1 -4.50390434643464  5.36553772017202  1.07798097369737
 1 -9.45484753725373  5.99209535763576 -0.44296452465247
 1 -9.17886910281028  8.02280301920192  0.24054367616762
 1 -7.79941940774077  7.28288468796880  1.49965835133513
 1 -11.81857596269627  3.48307863386339 -1.91516452115212
 1 -13.19341901110111  2.06629052025202 -2.02070326182618
 1 -12.66335806690669  2.96138479317932 -0.42919416341634
 1 -12.33716849524953 -1.71377082218222 -0.97563251815182
 1 -13.35252397129713 -0.36217295409541 -1.44661018851885
 1 -13.36458281088109 -1.58572325852585 -3.42130201470147
 1 -12.55218878307831 -0.19362389999000 -3.54503799949995
 1 -11.62568884818482 -1.60488535563556 -3.32373099309931
 1 -8.77029663266327 -5.24927567046705 -1.97313057715772
 1 -8.03199256405641 -5.74313431763176 -0.29939955295530
 1 -9.63493337823782 -4.79305432673267 -0.46568839143914
 1 -3.42973366926693 -3.59739298999900 -0.26038130963096
 1 -1.60799896639664 -4.70007644734473  3.67890080538054
 1 -2.95483509210921 -5.94483610121012  3.55673851275128
 1 -1.52530064156416 -6.06545581878188  2.72140609350935
 1  2.68557786188619 -1.72703453935394 -1.79801376637664
 1  2.70811828942894  0.16472075167517 -1.92436558875888
 1  4.40515142074207 -1.48875109030903  0.20783399939994
 1  3.80549951345134  1.21581029142914 -2.42759112881288
 1  5.26710212191219  2.10951121002100 -1.66846331453145
 1  5.51425873347335  0.76923803130313 -3.06409514051405
 1  6.59220128302830  1.50008400840084  0.01101374417442
 1  6.37097121652165  0.15767773037304  0.73708342504250
 1  7.45760314501450 -1.19770900610061 -1.29092041564156
 1  7.72256469236924  0.39111231933193 -1.79301222482248
 1  9.22746479807981  0.95268315331533  0.29855748794879
 1  8.58534702340234 -0.72496800300030  0.70912877657766
 1  10.37178472987299  0.03584612231223 -1.74227911741174
 1  9.54777976347635 -2.29746772327233 -2.16175210001000
 1  11.15595815151515 -2.35660244414441 -1.47951219511951
 1  9.65424831083108 -2.78415035703570 -0.33935337503750
 1  11.36960464136414  0.66873910411041  0.33446493399340
 1  11.65569862326233 -0.82093805510551  0.96029665126513
 1  12.85153847274727 -1.53607176837684 -1.05550321792179
 1  12.92892664516452  0.13113380438044 -1.64170753205321
 1  13.76328776547655  0.82119467546755  0.38196553955396
 1  14.00054280738074 -0.75100470517052  1.16595311181118
 1  15.27284057255726  0.29738922392239 -1.55182954095410
 1  15.91940938383838 -2.19441973407341  0.17922646874687
 1  14.92253530423042 -2.20269264486449 -1.43078049314932
 1  16.58432806220622 -1.87585311021102 -1.36570804030403
 1  16.15054025472547  1.44427226092609  1.04538108240824
 1  16.42574702190219 -0.17767694279428  1.32678543974397
 1  18.29082002070207 -0.35417196459646 -0.63362670307031
 1  17.70735780028003  1.15263258215822 -1.23739731553155
 1  18.45953674627463  2.45537969566957  0.52474047934793
 1  18.71793895419542  1.01831601260126  1.62779277957796
 1  20.38021293399340  0.32580872907291  0.09984704870487
 1  20.13064717131713  3.29974353625363 -0.95817941134113
 1  21.34912916501650  2.18562521532153 -1.33674503780378
 1  19.71278518291829  1.70308211901190 -1.93326029502950
 1  21.16640261546155  1.23132124122412  2.27550716791679
 1  22.11732343864386  1.79148037773777  1.22289725602560
 1  20.85046477637764  3.07524760806081  1.49965040554055
>>>>>>> 8e03b5b5abfc0030b3aa597dc0de36371bfbd096

