%nproc=4
%Mem=2GB
# td=(NStates=1) CAM-B3LYP/6-31G(d,p) 

TD

0 1
12 -7.20255082808281  0.54417316541654  0.05755344274427
 6 -4.82634725272527 -1.90538171657166  0.39522605530553
 6 -4.86465639453945  2.81954040134013  1.06775314021402
 6 -9.46621135663566  3.01344684018402 -0.39607246694669
 6 -9.56860717441744 -1.73092860386039 -0.79206563566357
 7 -5.06327975257526  0.41024084218422  0.70592101040104
 6 -4.37629733583358 -0.69166898889889  0.69278730193019
 6 -2.96043504890489 -0.43043246894689  1.09466982118212
 6 -3.01161459985999  1.12366503480348  1.61678240894089
 6 -4.36453344824482  1.50825157395740  1.07623465336534
 6 -2.94027911001100  1.26932922102210  3.20146155505551
 6 -1.94939840084008 -0.48109337073707 -0.13191923362336
 6 -0.34280170277028 -0.37700204740474  0.48373250255026
 6  0.64995613281328 -0.52326583948395 -0.67941332183218
 8  0.32622386248625 -0.71515692329233 -1.78839517121712
 8  1.88187999849985 -0.35840323672367 -0.08960574947495
 7 -7.16850729862986  2.55312090189019  0.27034573007301
 6 -6.08160743974397  3.24519549534953  0.69326285988599
 6 -6.46874412751275  4.64285857525753  0.83463415061506
 6 -7.72665537253725  4.77320795229523  0.27112550385039
 6 -8.09979425102510  3.42249144444444 -0.00539799349935
 6 -5.56037399409941  5.81546401230123  1.14768952945295
 6 -8.65421321892189  6.02429346304631  0.26484346974697
 6 -8.43424731603160  7.18019413801380  0.98869511931193
 7 -9.22397467006701  0.72757561866187 -0.58134216791679
 6 -9.92540880058006  1.75506545964596 -0.67589391349135
 6 -11.26414551115111  1.40649898899890 -1.08241996149615
 6 -11.32694509840984  0.03749911401140 -1.18148686268627
 6 -10.01522720342034 -0.37938991329133 -0.88016303240324
 6 -12.45917474117412  2.48331890289029 -1.24401117591759
 6 -12.42622716901690 -0.80093750385038 -1.76419722822282
 6 -12.27740522892289 -1.09905231643164 -3.25419053765377
 7 -7.22844231253125 -1.35184479807981 -0.22543722072207
 6 -8.27703794359436 -2.23937911001100 -0.51632658785879
 6 -7.84433057865787 -3.60267853535354 -0.43040031733173
 6 -6.50926481058106 -3.48388272527253 -0.00741247314731
 6 -6.19889248564856 -2.12622090339034  0.09392219641964
 6 -8.67398486588659 -4.81581442384238 -0.78668714711471
 6 -5.27729219951995 -4.32735661916192  0.22279515211521
 8 -5.19035787368737 -5.55743022642264  0.26492352305231
 6 -4.16540011941194 -3.32529831963196  0.54853471877188
 6 -3.52676330723072 -3.63356857815782  1.91934230713071
 8 -3.69197079767977 -2.92187892409241  2.90322300340034
 8 -2.77109830353035 -4.61855657805781  1.82171075197520
 6 -2.19459004690469 -5.09882411151115  3.05722065756576
 6  2.88394090579058 -0.79415721032103 -1.07735893629363
 6  4.29457154615462 -0.59512768906891 -0.49087923692369
 6  5.14353783818382  0.23244951035104 -0.96083585628563
 6  5.05511393439344  1.17587023632363 -2.07494165946595
 6  6.51540587338734  0.28028987918792 -0.17452393759376
 6  7.63114065196520 -0.33774412131213 -0.93600055055506
 6  8.96298817141714 -0.20411554195420 -0.13228504130413
 6  10.04673529802980 -0.54590166186619 -0.95413638413841
 6  10.19363606380638 -2.07610854695470 -1.25835930093009
 6  11.46143902080208 -0.18563234403440 -0.07485661706171
 6  12.80518542624262 -0.58288233933393 -0.74670469336934
 6  14.01309077747775  0.01004980218022  0.02280934843484
 6  15.33582970787079 -0.17847157625763 -0.55811405120512
 6  15.58576024492449 -1.73273090689069 -0.79702932063206
 6  16.38267237313731  0.35614997499750  0.36759126632663
 6  17.83288787818782  0.51242264066407 -0.25041085568557
 6  18.95638600810081  1.16365458245825  0.68953938693869
 6  20.41078974817482  1.33695402890289  0.20816557975798
 6  20.38477983178318  2.34919321652165 -0.93226421912191
 6  21.14821575237524  1.93267620392039  1.44901026442644
 1 -4.16693817831783  3.58419394079408  1.29418400530053
 1 -10.15862625532553  3.79413024802480 -0.75777116861686
 1 -10.10160344974497 -2.43685302610261 -1.36795344754475
 1 -2.78524498139814 -1.17786610051005  2.00472116331633
 1 -2.23769737493749  1.90636421902190  1.21373202360236
 1 -1.89610406790679  1.21543199609961  3.49107282078208
 1 -3.15481054105411  2.34877893539354  3.50813297869787
 1 -3.64371781448145  0.47147183118312  3.71843425622562
 1 -1.82112459735974 -1.56158611901190 -0.65435934513451
 1 -2.06828850135013  0.37368461886189 -0.79460950055006
 1 -0.43422694009401  0.64654926882688  0.90667106620662
 1 -0.09928773077308 -1.15850036523652  1.30765472067207
 1 -5.53045182058206  6.51720036413641  0.13695940514051
 1 -5.70547753715372  6.25104846794680  2.10545684278428
 1 -4.60987494349435  5.32272343874387  1.10783395899590
 1 -9.34644669716972  5.99365551365136 -0.44077430563056
 1 -8.79805102100210  8.22030276917692  0.87324694649465
 1 -7.74803426922692  7.19184558405841  1.79369775527553
 1 -12.39430353545355  2.87699802580258 -2.47689069376938
 1 -13.32672234143414  1.71010490169017 -1.43708489999000
 1 -12.66611834293430  3.17030568526853 -0.62246349034904
 1 -12.57138191659166 -1.56850629572957 -1.13584853975398
 1 -13.36075479437944 -0.25995273207321 -1.44035956345635
 1 -13.25250160276028 -1.73355804200420 -3.38933881838184
 1 -12.28902246644665 -0.35736027362736 -4.10893438913891
 1 -11.26675295459546 -1.65508037513751 -3.50117873787379
 1 -9.07763736673667 -4.56344708760876 -1.84595785988599
 1 -8.13117248204821 -5.72265226942694 -0.82236184918492
 1 -9.41158104300430 -4.90834585588559 -0.01317313991399
 1 -3.29903059895990 -3.44294754545455 -0.26966223772377
 1 -1.58692685918592 -4.41441788148815  3.41274418971897
 1 -3.04360396899690 -5.32425404300430  3.75394823372337
 1 -1.67826593809381 -5.96536580978098  2.75697965086509
 1  2.75256456055606 -1.87123895979598 -1.29539350435043
 1  2.74494197179718 -0.18840456085609 -2.02819597179718
 1  4.55621652725273 -1.10289250445045  0.38299151515151
 1  3.93246220972097  1.25642435283528 -2.21126949664967
 1  5.41368678037804  2.20647090599060 -1.92174864306431
 1  5.69070637823782  0.78568967646765 -2.87706643764376
 1  6.72363442634263  1.08127212721272  0.16969961276128
 1  6.26482060146015 -0.46825486288629  0.81953166986699
 1  7.34695207990799 -1.38630786598660 -1.30882220582058
 1  7.86752918881888  0.13205641374137 -1.91261418501850
 1  9.10128217981798  0.85059294429443  0.10321795399540
 1  8.78478696739674 -0.77136264246425  0.86114397809781
 1  9.99811736313631  0.04032657035704 -1.98366325582558
 1  9.19307429292929 -2.63988196469647 -1.52894881968197
 1  10.99121167686769 -2.30310709460946 -2.01052529642964
 1  10.69324221022102 -2.58135007700770 -0.26987642734273
 1  11.34553223412341  0.85187741794179  0.24934642214222
 1  11.32103515691569 -0.96790275157516  0.88946956855686
 1  12.96771008990899 -1.74640280148015 -1.01883955155516
 1  12.81543529602960 -0.10721003000300 -1.63794715601560
 1  13.82211364806481  1.12972552855286  0.25088243124312
 1  14.03471622472247 -0.69485909060906  1.00607712421242
 1  15.33596688518852  0.19992947794779 -1.52501685968597
 1  15.56681412431243 -1.96733702580258  0.13025157125713
 1  14.98102115281528 -1.99220159575958 -1.68850626572657
 1  16.51934156355636 -1.79195472037204 -1.20103157265727
 1  16.24297949864986  1.30294812851285  0.92123866816682
 1  16.46804125132513 -0.33112228732873  1.22768552975298
 1  18.29838077677768 -0.45212175957596 -0.58025136553655
 1  17.62411947644765  1.31486880578058 -1.19191276707671
 1  18.62098289088909  2.29660381808181  0.83426143144314
 1  18.98725588588859  0.73593777477748  1.94137413771377
 1  20.97088200090009  0.38758490669067 -0.02981591759176
 1  20.24203831043104  3.28115167706771 -0.48808240164016
 1  21.48595284738474  2.22620927372737 -1.30917228052805
 1  19.60619452385239  2.14246605740574 -1.90692766176618
 1  21.00520649584958  1.16168427752775  2.13177279447945
 1  22.14321602790279  2.26677790749075  1.16039100540054
 1  20.62193192309231  2.98191827512751  1.70313075357536

