%nproc=4
%Mem=2GB
# td=(NStates=1) CAM-B3LYP/6-31G(d,p) 

TD

0 1
12 -7.20331090409041  0.59014776287629  0.08955664306431
 6 -4.80449506750675 -1.98595977437744  0.51811834453445
 6 -4.81719164806481  2.76530497779778  1.13933029792979
 6 -9.32040677617762  3.14958045354535 -0.50332319201920
 6 -9.49115942964296 -1.72334784578458 -0.79935636473647
 7 -5.02190561516152  0.40256007410741  0.65472589088909
 6 -4.24024373047305 -0.67692751475148  0.79444746794679
 6 -2.83590259565957 -0.37211663736374  1.20660101430143
 6 -3.08225166356636  1.12800546884689  1.52645337603760
 6 -4.33260025492549  1.56789753855386  1.09910694059406
 6 -2.97203228532853  1.43449573767377  3.13515492439244
 6 -1.92269573057306 -0.70791605300530  0.05401936023602
 6 -0.35996341894189 -0.46701104830483  0.53503763306331
 6  0.62891402860286 -0.60602411531153 -0.59749513001300
 8  0.22485372547255 -0.78302370997100 -1.78691502320232
 8  1.81787359785979 -0.58271566796680 -0.12460924982498
 7 -7.07745819371937  2.61795738553855  0.30722941844184
 6 -6.07261654065407  3.41015199099910  0.81918545214521
 6 -6.51346859996000  4.73136742614261  0.91026171337134
 6 -7.76050875787579  4.87781841334133  0.39764815611561
 6 -8.13090736233623  3.50373956925693  0.09886243254325
 6 -5.57482543924392  5.96469893579358  1.28301306180618
 6 -8.60625842344234  6.04669570327033  0.20972795819582
 6 -8.74926881818182  7.26974309290929  0.81143739353935
 7 -9.21100337293729  0.67119998109811 -0.45236927062706
 6 -9.93976023572357  1.83257321042104 -0.69469579367937
 6 -11.26380547714771  1.49385772487249 -1.15260698019802
 6 -11.29517192109211  0.03774913901390 -1.23453216721672
 6 -9.98490417111711 -0.42873484778478 -0.80342535863586
 6 -12.27643646734673  2.53191376237624 -1.51243801860186
 6 -12.45484003030303 -0.80441785188519 -1.62716352485249
 6 -12.29107659605961 -1.26231864306431 -3.15619073767377
 7 -7.30068953725373 -1.43629324292429 -0.13516819381938
 6 -8.20894113391339 -2.25169034113411 -0.47137209240924
 6 -7.84543068866887 -3.61151941944194 -0.57039431673167
 6 -6.55958984308431 -3.53795813281328 -0.15493722562256
 6 -6.15016761316132 -2.13277155845585  0.06640944514451
 6 -8.67114458185818 -4.90041288368837 -0.87232571097110
 6 -5.30888535883588 -4.29461334483448  0.16987986058606
 8 -5.22638147604760 -5.54063854725473  0.19295632633263
 6 -4.11151473087309 -3.31055684548455  0.54071393669367
 6 -3.54237486838684 -3.68444366566657  1.83012338523852
 8 -3.80544214481448 -3.11958869506951  2.94711739283928
 8 -2.86173736743674 -4.83261798419842  1.83085166606661
 6 -2.33365395329533 -5.24825905500550  3.04070900640064
 6  2.85416792849285 -0.58920671527153 -1.13341454185419
 6  4.18957104610461 -0.37613578987899 -0.51583173217322
 6  5.19295277967797  0.34740100550055 -1.10277004970497
 6  5.15996441944194  1.19631228052805 -2.29879404470447
 6  6.43419775257526  0.41866371657166 -0.34392087728773
 6  7.66985452335234 -0.14302464936494 -1.02698964946495
 6  8.96698857145715 -0.10299542994299 -0.26916872967297
 6  10.26660728522852 -0.66185325702570 -0.96399737023702
 6  10.20477717791779 -2.10506144224422 -1.27449091409141
 6  11.46909978687869 -0.18147192799280 -0.01274040544054
 6  12.84834974267427 -0.73600765186519 -0.64098412131213
 6  14.02271173957396 -0.15627683048305  0.25239230673067
 6  15.43468959385939 -0.32385611471147 -0.39686792659266
 6  15.82880454935493 -1.69460709450945 -0.74863448114811
 6  16.41372547844784  0.40641500150015  0.49462396959696
 6  17.86612120152015  0.43187458585859 -0.12629844444444
 6  18.83088345784579  1.37593581058106  0.84599503250325
 6  20.20715938513851  1.35152548604861  0.19387415061506
 6  20.28123947774777  2.26821511871187 -1.16750774347435
 6  21.18954988578858  2.05979891619162  1.22975833923392
 1 -4.02070355485549  3.61132665406541  1.57923251015102
 1 -10.08660905360536  3.97090792579258 -0.33776916841684
 1 -10.36526981638164 -2.51120046084608 -1.05900255245525
 1 -2.63200965786579 -0.98992730663066  2.04920561176118
 1 -2.21162476767677  1.63073665626563  1.01881253165317
 1 -2.01132559005901  1.08528898179818  3.56571028452845
 1 -3.01326638663866  2.51694575207521  3.20280244564456
 1 -3.79075251795179  0.85475015901590  3.65922833563356
 1 -1.89204168906891 -1.71984194459446 -0.43925783498350
 1 -1.98935060756076  0.06957420782078 -0.79337937753775
 1 -0.18978249564956  0.54512912681268  0.95567596669667
 1 -0.29755755775578 -1.14702921812181  1.38333228842884
 1 -5.69250802620262  6.86378502260226  0.67414312351235
 1 -5.37574456385639  6.13673703680368  2.17738403550355
 1 -4.54998895489549  5.70726189258926  0.89947312291229
 1 -9.38416046854685  5.70153630173017 -0.43194342254225
 1 -9.55098631453145  7.73494423332333  0.56337595939594
 1 -8.10278974477448  7.47968436793679  1.75182356785679
 1 -12.04277838293829  3.11299162516252 -2.42463546824682
 1 -13.15605527472747  2.16049994119412 -1.77278847034704
 1 -12.56870860196020  3.37188584328433 -0.81343258725873
 1 -12.77730250865087 -1.56646609170917 -1.03195815071507
 1 -13.47204592349235 -0.27297403420342 -1.68801432893289
 1 -12.90784713731373 -2.12175686188619 -3.63478336283628
 1 -12.39707327152715 -0.47527206480648 -3.90809430513051
 1 -11.14281056035604 -1.39297416451645 -3.33113173317332
 1 -9.24110371337134 -4.78124886778678 -1.92115537963796
 1 -7.89466883168317 -5.80324032823282 -1.06498611161116
 1 -9.47910779567957 -5.22593761506151 -0.08612043464346
 1 -3.25719641554155 -3.45522877357736 -0.05214048554855
 1 -1.63166133263326 -4.53882032173217  3.46476939223922
 1 -3.09626923552355 -5.26336795439544  3.69693253215322
 1 -1.80984909640964 -6.22254152735274  2.96384033693369
 1  2.86513581768177 -1.60897273317332 -1.41758572357236
 1  2.63383086068607  0.17905218481848 -1.78946209840984
 1  4.49379028462846 -0.87936015121512  0.46303951995199
 1  4.09756872037204  1.30416912731273 -2.70422879257926
 1  5.45077048874888  2.27515777467747 -2.34877134533453
 1  5.60623793139314  0.65619672717272 -3.26996572757276
 1  6.46524858775878  1.48310231023102 -0.03895125232523
 1  6.34406852625263 -0.23685172257226  0.76107582428243
 1  7.31341872657266 -1.19710894609461 -1.08286961056106
 1  7.89065150105010  0.46551976007601 -2.05200812441244
 1  9.11045309690969  1.00084796979698  0.03981161336134
 1  8.85560404910491 -0.78262376857686  0.74589245294529
 1  10.19729728112811 -0.07768523082308 -1.93028791829183
 1  9.62870785628563 -2.14101207770777 -2.24276020082008
 1  11.09808236393639 -2.41392817671767 -1.67285152905291
 1  9.72217510351035 -2.59885182718272 -0.54891433113311
 1  11.35004268516852  0.93221545174517  0.34099558705871
 1  11.38292134553456 -0.67373333463346  0.88398902050205
 1  12.71673499239924 -1.90766892809281 -0.62631029862986
 1  13.04764851735174 -0.28250755975598 -1.64173753505351
 1  13.62776421312131  0.93578613461346  0.51296863986399
 1  14.02385513861386 -0.58748835353535  1.20538705520552
 1  15.44240752925293  0.25748523352335 -1.36553091109111
 1  15.96733417631763 -2.49738003010301  0.03400194629463
 1  14.99426247694769 -2.18564093969397 -1.36026344144414
 1  16.91013064246425 -1.61472699759976 -1.18753022252225
 1  15.95499069976998  1.54926275997600  0.50448699299930
 1  16.46860130733073 -0.11726090119012  1.43565632683268
 1  18.35304624332433 -0.66798334573457 -0.04406774717472
 1  17.95896296079608  0.65840315921592 -1.17523109890989
 1  18.46883767636764  2.30516467416742  0.98911691699170
 1  18.93450061036104  0.89782396339634  1.73844384468447
 1  20.54134904760476  0.40995714391439 -0.16089902590259
 1  20.14452855945594  3.29401296319632 -1.02030562396240
 1  21.30986523862386  2.19710636343634 -1.70224158745875
 1  19.51070497489749  1.83006481728173 -1.88441541054105
 1  21.01382735793580  1.54026213531353  2.21869148634863
 1  22.12759446574657  1.80670189988999  0.70760572687269
 1  20.93323305320532  3.12172225552555  1.34669511001100

