%nproc=4
%Mem=2GB
# td=(NStates=1) CAM-B3LYP/6-31G(d,p) 

TD

0 1
12 -7.12111268426843  0.61493024112411  0.01600928832883
 6 -4.85221983998400 -1.87948912731273  0.51198773147315
 6 -4.83469339823982  2.79485793309331  1.15162152705271
 6 -9.42435717121712  3.12299779527953 -0.42622548224822
 6 -9.55798611231123 -1.76965247624762 -1.02347877697770
 7 -5.07384080868087  0.39147896599660  0.70434085238524
 6 -4.31703140924092 -0.70968079007901  0.86982500570057
 6 -2.94996400180018 -0.45719514521452  1.29987034123412
 6 -2.93761720012001  1.10988365666567  1.72150288098810
 6 -4.35091208610861  1.46992774157416  1.20994802470247
 6 -2.95008009010901  1.26224851295130  3.28073948284828
 6 -1.82763622462246 -0.68421368276828  0.19334329262926
 6 -0.36359378197820 -0.54093844104410  0.55012914221422
 6  0.53539467666767 -0.76330984388439 -0.58165354585459
 8  0.27471871197120 -1.09735514311431 -1.67137346904690
 8  1.84206601710171 -0.57642503890389 -0.21160794969497
 7 -7.13684413231323  2.55112070187019  0.43131182668267
 6 -6.09462874187419  3.31620259605961  0.90100363396340
 6 -6.39369662276228  4.72160645004500  0.76297698489849
 6 -7.78581128812881  4.80951158265827  0.32655104640464
 6 -8.20577484908491  3.46870606590659  0.07432997929793
 6 -5.45067302400240  5.88775124102410  0.97411217171717
 6 -8.53755155275527  6.05637667136714  0.21257824322432
 6 -8.55667955925593  7.16192231083108  0.87123337313731
 7 -9.10126239883988  0.61474433553355 -0.62396643034303
 6 -9.84981124082408  1.83529348244824 -0.72986931103110
 6 -11.19676877347735  1.43855219431943 -1.10207192669267
 6 -11.26568897279728  0.12486785088509 -1.30482919691969
 6 -9.90806648734874 -0.42936491079108 -0.96173118921892
 6 -12.28645746944694  2.42638320932093 -1.29301607640764
 6 -12.38870341664166 -0.67775518561856 -1.82379318781878
 6 -12.46675416381638 -1.01844425562556 -3.23267838643864
 7 -7.20193966226623 -1.37515712931293 -0.30549522652265
 6 -8.24849508930893 -2.19890506260626 -0.65841079627963
 6 -7.82393853945395 -3.60705897339734 -0.53361063836384
 6 -6.51171505560556 -3.46885122212221 -0.17863959585959
 6 -6.17456005240524 -2.09471775307531  0.00128293249325
 6 -8.63971143854385 -4.89753259565957 -0.83618209660966
 6 -5.40254472477248 -4.31698558205821  0.13873674627463
 8 -5.18578741664166 -5.53569805320532  0.18559559025903
 6 -4.24224780418042 -3.29992578237824  0.55336520182018
 6 -3.49257988888889 -3.63449867116712  1.84707508040804
 8 -3.67607920852085 -2.93654039023902  2.91948462956296
 8 -2.76864805850585 -4.74989971237124  1.81635021592159
 6 -2.20379096699670 -5.16363059215922  3.02486742224222
 6  2.83707621932193 -0.70219801440144 -1.27595879627963
 6  4.17605969496950 -0.47110528682868 -0.48536868586859
 6  5.12939642404240  0.32460872627263 -0.82051182388239
 6  5.11723014601460  1.11448409770977 -2.22613677897790
 6  6.40595492829283  0.43892574277428 -0.03872035723572
 6  7.59574711261126 -0.18721906880688 -0.91992894339434
 6  8.95055692829283  0.02136700630063 -0.03884569736974
 6  10.20354097859786 -0.49643671537154 -0.77522849334933
 6  10.01704840504050 -1.93378431453145 -1.27084054905491
 6  11.44568744564456 -0.18179195999600  0.00561142974297
 6  12.77532243994399 -0.65701975307531 -0.69326934983498
 6  13.97865733413341 -0.03338454125413  0.26844391189119
 6  15.30975710061006 -0.27264099319932 -0.36751499129913
 6  15.60205187408741 -1.74420205400540 -0.70050966866687
 6  16.41152525842584  0.32774713471347  0.45384989218922
 6  17.81769635903590  0.59716111451145 -0.16672248684868
 6  18.85802617211721  1.18188640564056  0.71474190719072
 6  20.26499516871687  1.37892822632263 -0.00276551335134
 6  20.21598295209521  2.22873117031703 -1.27424841754175
 6  21.29261019181918  1.97212014831483  1.07118248164816
 1 -3.99351083558356  3.50644616601660  1.44736932383238
 1 -10.28511890459046  3.93771460646065 -0.48041343284328
 1 -10.41482477187719 -2.50806014681468 -1.30250690289029
 1 -2.67371382828283 -1.08305661956196  2.15003569476948
 1 -2.30762436763676  1.83072665526553  1.24707535793579
 1 -2.00193465096510  0.79931038393839  3.42497621112111
 1 -3.11885694569457  2.28335239273927  3.65163732913291
 1 -3.56216965966597  0.68549323332333  3.70114252705271
 1 -1.87581006590659 -1.71610157055706 -0.15455936513651
 1 -2.05025669816982 -0.07902065166517 -0.72339237883788
 1 -0.16195971337134  0.40011462536254  0.95616601570157
 1 -0.08667646964696 -1.11864637983798  1.51671562676268
 1 -5.71973074847485  6.77443608770877  0.37834354355435
 1 -5.57169415881588  6.44492785588559  1.93049934703470
 1 -4.30217417341734  5.77520868726873  0.66456963256326
 1 -9.24443649614962  5.96380252835283 -0.65319554775478
 1 -9.32749396529653  7.89946068496850  0.76471609340934
 1 -7.99832929872987  7.44655105460546  1.63846223172317
 1 -11.99467357245724  3.18152847884788 -2.19216222092209
 1 -13.20810047924792  1.83376726792679 -1.50385157665767
 1 -12.53677540864087  3.18168682338234 -0.48011925592559
 1 -12.34566934533453 -1.57085653075308 -1.18946390129013
 1 -13.32464118301830 -0.22599933673367 -1.47393292079208
 1 -13.40745709830983 -1.55245993219322 -3.47218710321032
 1 -12.24986855105511 -0.12809734733473 -3.77306080178018
 1 -11.63101938123812 -1.69942480958096 -3.47898651865186
 1 -9.08022762576258 -4.85065580848085 -1.75773903800380
 1 -7.85292465726573 -5.78216822102210 -1.02603221622162
 1 -9.28410829572957 -5.22631765306531  0.00512869026903
 1 -3.33129382528253 -3.27628087878788 -0.15481075257526
 1 -1.33839200570057 -4.34001044074407  3.13207612291229
 1 -2.85342495109511 -5.38739035663566  3.83725656455646
 1 -1.53186129762976 -6.04856412961296  2.74982893579358
 1  2.82359166326633 -1.74637647354736 -1.70888485348535
 1  2.69511698929893  0.04397867746775 -2.09696284848485
 1  4.26614752035203 -0.93057527272727  0.37489070507051
 1  4.00659962346235  1.12984169456946 -2.64235260496050
 1  5.32704811651165  2.19903016191619 -2.08011447964796
 1  5.77900520812081  0.50898200570057 -2.84632336333633
 1  6.58458052095209  1.44214821482148  0.12218486128613
 1  6.28175229462946  0.03810577317732  0.89798951565156
 1  7.46833421812181 -1.08105734093409 -1.13467479107911
 1  7.67701013691369  0.43470667876788 -1.73533645724572
 1  9.13950600220022  1.11382926792679 -0.03502587038704
 1  8.79884837353736 -0.47952345854586  0.87222508620862
 1  10.21442899429943  0.05654819251925 -1.74186907640764
 1  9.01417640314031 -1.83904188068807 -1.66832275707571
 1  10.99702225792579 -2.21075785968597 -1.76120036393639
 1  10.06142902890289 -2.61917385938594 -0.32329176887689
 1  11.53815149604960  0.95005723592359  0.30817230473047
 1  11.34889794319432 -0.72204816611661  0.92350297189719
 1  12.90114343324333 -1.77632579377938 -0.81713938153815
 1  12.93275702820282  0.00667135813581 -1.65896925822582
 1  13.63461489818982  1.07480003600360  0.45669301230123
 1  14.09291204430443 -0.39707931263126  1.25554207070707
 1  15.32035532403240  0.33899338433843 -1.34328868686869
 1  15.62572001490149 -2.29479977207721  0.26567511361136
 1  14.84001705240524 -2.22007438303830 -1.29243665876588
 1  16.48597822722272 -1.98181370627063 -1.33107457695770
 1  15.93228842954295  1.33879171287129  0.87110365466547
 1  16.35093954115412 -0.19461863696370  1.39292205340534
 1  18.19745068376838 -0.31839838723872 -0.45971931233123
 1  17.67712477697770  1.41325864476448 -1.11520509630963
 1  18.46803759635964  2.24663882158216  0.87834583988399
 1  18.77279443974398  0.72596677767777  1.70676067636764
 1  20.69826473917392  0.42712886108611 -0.21601453745375
 1  19.93258736533653  3.20613417531753 -0.96725031843184
 1  21.18679293139314  2.30816746954695 -1.79918128142814
 1  19.43146705110511  1.97850966176618 -1.95287225622562
 1  21.18681465666567  1.06416452555256  1.80916053325333
 1  22.18140984728473  2.18573980368037  0.57410237653765
 1  20.77036676657666  2.91164124742474  1.44123456395640

