%nproc=4
%Mem=2GB
# td=(NStates=1) CAM-B3LYP/6-31G(d,p) 

TD

0 1
<<<<<<< HEAD
12 -7.13208378137814  0.56393514161416  0.08998668606861
 6 -4.83842846084608 -1.91821299969997  0.53801033373337
 6 -4.82976290519052  2.90594904220422  0.99744610951095
 6 -9.50163489898990  3.13162865836584 -0.35539839953995
 6 -9.59400971467147 -1.72243775477548 -0.83372980208021
 7 -5.16426985158516  0.41225104320432  0.72929334763476
 6 -4.39098880498050 -0.72111193319332  0.84588261146115
 6 -2.87791679707971 -0.32811223692369  1.29078943314331
 6 -3.09870330873087  1.16474914321432  1.66243697439744
 6 -4.45078207310731  1.54224497329733  1.03393042294229
 6 -3.00911599369937  1.45129741784178  3.17199860876088
 6 -1.88738219921992 -0.56575183658366  0.08524248254825
 6 -0.39655707830783 -0.37179152635264  0.55025915521552
 6  0.58155929312931 -0.70432394529453 -0.52499788028803
 8  0.24471571167117 -1.06233164076408 -1.52799913161316
 8  1.85277708820882 -0.53019041544154 -0.06721351025103
 7 -7.13088353625363  2.60036562636264  0.32585128062806
 6 -6.09161844084409  3.40280125592559  0.61893542714271
 6 -6.51591884498450  4.78604289368937  0.64027471467147
 6 -7.76427913491349  4.87931856335634  0.28091648294829
 6 -8.24988926052605  3.50133932923292 -0.03410086378638
 6 -5.50013797049705  5.90265273117312  0.99666442694269
 6 -8.62170996859686  6.07003803750375  0.17753473887389
 6 -8.55701959325933  7.18131425002500  0.92615886568657
 7 -9.11811408400840  0.63384624572457 -0.53171720542054
 6 -9.89637589728973  1.74275422852285 -0.66635295939594
 6 -11.25720481708171  1.41163950305031 -0.96965868536854
 6 -11.33122552645264  0.04100946504650 -1.10189890389039
 6 -9.92635831653165 -0.37618959325933 -0.78610362646265
 6 -12.34296312001200  2.34894546554655 -1.51646842164216
 6 -12.38245279157916 -0.72665007510751 -1.56868767726773
 6 -12.33379086748675 -1.00496290749075 -3.16593171177118
 7 -7.21048051635164 -1.33379299289929 -0.21058573557356
 6 -8.24753499329933 -2.21661683378338 -0.55221017621762
 6 -7.85028117371737 -3.60470873837384 -0.51887916521652
 6 -6.50462434653465 -3.51819615661566 -0.09684141604160
 6 -6.13723632003200 -2.12115039633963  0.05951875607561
 6 -8.66612407980798 -4.87080992339234 -0.86032451085108
 6 -5.24123859415942 -4.30681456495650  0.29581245384538
 8 -5.19338817671767 -5.55544002740274  0.34211124182418
 6 -4.13236681608161 -3.35750153995399  0.53320318561856
 6 -3.41988261916192 -3.69264448574858  1.84262463536354
 8 -3.63236483708371 -3.14038077427743  2.92924560566057
 8 -2.60110130383038 -4.68170289268927  1.65545412631263
 6 -1.99439002690269 -5.33283751285128  2.87078201370137
 6  2.93136564826483 -0.78338613321332 -1.10818201860186
 6  4.19872196119612 -0.41762993929393 -0.52792294129413
 6  5.14704818921892  0.32131839723972 -1.01705147784778
 6  4.89780820382038  1.14373702300230 -2.22130629592959
 6  6.46592092489249  0.39948179837984 -0.21093757895790
 6  7.56776431433143 -0.21341168806881 -1.02688963946395
 6  8.92403427602760 -0.20346547694769 -0.16128794159416
 6  10.21249187368737 -0.55813288498850 -0.99014998549855
 6  10.14621132133213 -1.93515445154515 -1.57439090409041
 6  11.47013989088909 -0.34912869366937 -0.20336946834683
 6  12.78833374107411 -0.57562161326133 -0.78013803670367
 6  13.88486795519552 -0.22801400420042  0.16835390289029
 6  15.36510263516352 -0.25217894699470 -0.54700294009401
 6  15.72245391429143 -1.58745637943794 -0.94312393009301
 6  16.45248935483549  0.28035239523952  0.45774028122812
 6  17.78955354475448  0.49751114951495 -0.08403421802180
 6  18.80296066556656  1.32323054005401  0.76770720372037
 6  20.21618028722872  1.42387272077208  0.37108187138714
 6  20.34675602940294  2.21530982818282 -0.94151514421442
 6  21.18244917571757  1.92644558085809  1.49444480788079
 1 -4.11503298779878  3.50300582198220  1.25688027492749
 1 -10.26972736543654  4.06710754575458 -0.75555094659466
 1 -10.45689897929793 -2.40971031183118 -0.90557720992099
 1 -2.61466792369237 -0.65701401530153  2.12975366656666
 1 -2.41945555075508  1.81886546914691  1.12562321272127
 1 -1.96880133763376  1.41708216111611  3.59049276277628
 1 -3.67390245024503  2.47327138463846  3.39957212261226
 1 -3.50859430213021  0.44930961496150  3.78267067986799
 1 -2.12474495939594 -1.59856981738174 -0.40419432863286
 1 -1.89574124662466  0.08054530493049 -0.65997603720372
 1 -0.32545606300630  0.74395900980098  0.81558195729573
 1 -0.15122292429243 -0.99198371357136  1.53915787098710
 1 -5.71921069646965  6.88546719081908  0.55857156635664
 1 -5.62347933733373  6.20971433453345  2.00934723182318
 1 -4.46961091709171  5.65890705710571  0.91437461306131
 1 -9.53266531903190  5.98463461156116 -0.49763999219922
 1 -9.21177239313931  8.12832357125713  0.81913153495350
 1 -7.81853131893189  7.48392479197920  1.59652803830383
 1 -11.83196730183018  3.19727005300530 -2.14684768946895
 1 -13.18599826902690  1.81766565776578 -2.07980917241724
 1 -12.81766349744974  2.78471712641264 -0.61452269626963
 1 -12.37951272967297 -1.82161160626063 -1.00763571847185
 1 -13.40678939783978 -0.34913164996500 -1.31036656415642
 1 -12.94786113871387 -1.66246093229323 -3.64020390489049
 1 -12.38361192539254 -0.10626516411641 -3.71544504020402
 1 -11.34064034333433 -1.40693556065607 -3.52399101910191
 1 -9.14257386038604 -4.79269001190119 -2.05447871197120
 1 -8.12407177197720 -5.76379638383838 -0.76264587758776
 1 -9.48038792369237 -4.96128114941494 -0.25209703230323
 1 -3.55983667956796 -3.34158740944094 -0.56389166066607
 1 -1.35532369886989 -4.48482492219222  3.38542145744574
 1 -2.88929853845385 -5.56679829742974  3.39404224312431
 1 -1.28063617511751 -6.13082235543554  2.64043799669967
 1  2.79113841794179 -1.76499833573357 -1.27305127012701
 1  2.43277075467547  0.00876515611561 -1.82143529572957
 1  4.43073397899790 -0.82662487768777  0.40892410841084
 1  3.92459142264226  1.04307301770177 -2.74808317801780
 1  5.06778218991899  2.19055931483148 -1.99268573677368
 1  5.77353466106611  1.01520262776278 -2.97516624762476
 1  6.67966002890289  1.54010801080108 -0.23366072327233
 1  6.34035815521552 -0.13553159055906  0.70735045174517
 1  7.20545793049305 -1.18552778797880 -1.30977230083008
 1  7.75589802570257  0.42040524862486 -1.72817574117412
 1  9.16911896349635  0.77403528852885  0.31807944014401
 1  8.92172066076608 -0.95304081028103  0.52954081778178
 1  10.30786833823382  0.22646518421842 -1.82332722222222
 1  9.45900088558856 -2.31039901640164 -2.36506243104311
 1  11.10840339603960 -2.30906769066907 -2.05492973687369
 1  10.36226911291129 -2.70229217121712 -0.75213465316532
 1  11.32339001990199  0.61306353655366  0.19297078457846
 1  11.24578763216322 -0.93348931023102  0.62915353695370
 1  12.85608892779278 -1.57642580378038 -1.29111677927793
 1  12.93489724222422  0.18041873287329 -1.73910727202720
 1  13.66775821252125  0.74949750575058  0.51413875687569
 1  14.00828358145815 -0.88785839053905  0.94906142264226
 1  15.38513180168017  0.46614609960996 -1.29129348734873
 1  15.78641608450845 -2.39160945304530 -0.21580303420342
 1  14.97532058275828 -2.09121149674968 -1.60757817291729
 1  16.76359598899890 -1.64034955985599 -1.43670514001400
 1  15.93561876257626  1.11476931063106  0.96922346664666
 1  16.41023547074708 -0.40752992809281  1.28656141734173
 1  18.33345428412841 -0.37278382578258 -0.38092143254325
 1  17.82818988348835  0.78203552245225 -1.10370394619462
 1  18.44392518511851  2.40550470817082  0.98949695499550
 1  18.83987114741474  0.99924410541054  2.03540354065407
 1  20.54994990769077  0.31760790899090 -0.00271320732073
 1  19.86861096769677  3.17908147004700 -0.75838943234323
 1  21.29337358945895  2.43299995279528 -1.39932129542954
 1  19.79322322672267  1.58713052385239 -1.66538350735074
 1  21.21670764596460  1.51385949504950  2.41218083528353
 1  22.21271297759776  1.94862609230923  1.12502746904690
 1  21.03180291019102  3.12566264956496  1.85714615511551
=======
12 -7.16839741274127  0.63498224632463  0.10796848424842
 6 -4.77413203120312 -1.93303448184818  0.41475800850085
 6 -4.88375830473047  2.79821826912691  1.14834119901990
 6 -9.42294703020302  3.04756025152515 -0.42373523322332
 6 -9.64386470017002 -1.80174568556856 -0.79040546964696
 7 -5.17727115171517  0.47702752085209  0.74228464676468
 6 -4.34032373847385 -0.68290811281128  0.70852887608761
 6 -2.89166817221722 -0.36813623932393  1.12101245544554
 6 -3.07579101750175  1.06501917021702  1.69160989168917
 6 -4.48246524142414  1.46449719851985  1.14856188608861
 6 -3.04393947604760  1.19695198329833  3.26574798369837
 6 -1.85649911091109 -0.53064832623262  0.00185414371437
 6 -0.42783020562056 -0.45423977117712  0.51493562286229
 6  0.57546868406841 -0.68178169106911 -0.59815519601960
 8  0.27856909700970 -0.89704511211121 -1.78548488018802
 8  1.85739755025503 -0.55041243764376 -0.10646743564356
 7 -7.08106855475548  2.64524011381138  0.25815451095110
 6 -6.08633791279128  3.33097407320732  0.75379891349135
 6 -6.43956120922092  4.74717900730073  0.85968665586559
 6 -7.69252195919592  4.87473810531053  0.44884327562756
 6 -8.17366163776378  3.44999419471947  0.07606015231523
 6 -5.43497145384538  5.88343080898090  1.04544930543054
 6 -8.57450524812481  6.07926896059606  0.11742872827283
 6 -8.52528641994200  7.17333345194519  0.84611086088609
 7 -9.22207448004800  0.63390625172517 -0.51469550325033
 6 -9.86607286698670  1.76782673577358 -0.66049237333733
 6 -11.25098419501950  1.44303264236424 -1.21644336383638
 6 -11.28078048194820  0.11670703480348 -1.25138385238524
 6 -9.99714539523952 -0.50226220052005 -0.78184320042004
 6 -12.23021184488449  2.43607417841784 -1.54257103190319
 6 -12.37126167246725 -0.71011842194219 -1.80665147364736
 6 -12.31175866426643 -1.16115852705271 -3.23208832743274
 7 -7.21074054235424 -1.47929754335434 -0.24418909590959
 6 -8.33132337213721 -2.32008718081808 -0.51397635283528
 6 -7.91936808240824 -3.62844111161116 -0.44451172847285
 6 -6.52900678477848 -3.63914825182518 -0.02066379827983
 6 -6.15716831323132 -2.22320060136014  0.10729353355336
 6 -8.69950741814181 -4.88862170457046 -0.86236471487149
 6 -5.34823929422942 -4.40790467396740  0.28265113771377
 8 -5.25304414231423 -5.60836531993199  0.24177120782078
 6 -4.15901948134813 -3.31172696249625  0.54074393969397
 6 -3.51174180508051 -3.63756897819782  1.80909128202820
 8 -3.79297089768977 -3.10234697089709  2.86821950305030
 8 -2.72204339803980 -4.71440616301630  1.64586316721672
 6 -2.19685027292729 -5.15967019611961  2.97029196469647
 6  2.90238274997500 -0.69624741934193 -1.17894909530953
 6  4.17243933293329 -0.31309948624862 -0.44320446944694
 6  5.17290077447745  0.43106937233723 -0.89856962966297
 6  5.13119154215422  1.28280092939294 -2.07416158145815
 6  6.55599993279328  0.50748259845985 -0.20623710891089
 6  7.65316285418542 -0.06777712461246 -0.94661161166117
 6  8.93500537313731  0.15219008860886 -0.05218703150315
 6  10.25019564406441 -0.50828790049005 -0.79428039853985
 6  10.05847254745474 -2.01627256335634 -0.96123958895890
 6  11.54543742064206 -0.25922970377038  0.09649051765177
 6  12.83417832553255 -0.51970602170217 -0.64006402930293
 6  13.96319578797880  0.03083188038804  0.15775284278428
 6  15.27377350225023 -0.22100582968297 -0.55075331513151
 6  15.63024469336934 -1.68380601440144 -0.84300391809181
 6  16.44844895079508  0.33816817681768  0.34790929812981
 6  17.88116270567057  0.55069646804680 -0.25697151175118
 6  18.92238260776078  1.19113733073307  0.69603003600360
 6  20.30023869306931  1.25009534303430  0.11785654885489
 6  20.27016837063707  2.15658395559556 -1.19126011871187
 6  21.22377330813081  1.75206814311431  1.16190155355536
 1 -4.31421290579058  3.78744426582658  1.58540312721272
 1 -10.15598599129913  3.76486732173217 -0.72752814431443
 1 -10.49514280368037 -2.45714505530553 -0.88936558875888
 1 -2.63385984288429 -0.98141645554555  2.03708439963996
 1 -2.32122572777278  1.76365994859486  1.42849349974998
 1 -2.09153361086109  1.06435688858886  3.76875058855886
 1 -3.24352941294129  2.33533759125913  3.55000716611661
 1 -3.71753519621962  0.38194287828783  3.67846025882588
 1 -1.84383686858686 -1.47308726912691 -0.46406031523152
 1 -2.04670634313431  0.13795104550455 -0.62904294389439
 1 -0.08261177857786  0.57986260016002  1.09005940504050
 1 -0.06980478247825 -1.30307482268227  1.19306326152615
 1 -5.76443521892189  6.82267091119112  0.61718742794279
 1 -5.15194218361836  6.04406776987699  2.14033033013301
 1 -4.55382933893389  5.69599076547655  0.47336051165116
 1 -8.94927698019802  6.21764791289129 -0.88715894409441
 1 -9.19344055995600  7.96506724562456  0.34346396819682
 1 -7.91451091689169  7.34286068556856  1.67109549504950
 1 -11.97408151325133  2.98949927592759 -2.34053705840584
 1 -13.09471914111411  2.02863675487549 -1.89895108660866
 1 -12.13080481158116  3.09844849954995 -0.61771301530153
 1 -12.59422420082008 -1.48727817291729 -0.98088304320432
 1 -13.30456917581758 -0.18553529032903 -1.51114664216422
 1 -13.08398475107511 -2.05370005620562 -3.56605649014901
 1 -12.35656922112211 -0.10936547414742 -3.80496399209921
 1 -11.39766604590459 -1.75739060616062 -3.37886650665067
 1 -8.86188579157916 -4.81126186908691 -2.01872513661366
 1 -8.12762212701270 -5.74821482568257 -0.91066067906791
 1 -9.69373925882588 -4.87116213751375 -0.24734655725573
 1 -3.36242693859386 -3.54473772447245 -0.30981625312531
 1 -1.55296346284628 -4.40014645434543  3.36556947224722
 1 -3.08006761536154 -5.44467608520852  3.61351419031903
 1 -1.78421653315332 -6.27275654885489  2.72144609750975
 1  2.92306161026103 -1.60659249514951 -1.49024298929893
 1  2.44786226382638  0.13280756035604 -1.89005215741574
 1  4.35990689628963 -1.01478369356936  0.31113432943294
 1  4.22454141764176  1.25578428882888 -2.43912228192819
 1  5.52645805750575  2.40152041094109 -2.04039050725073
 1  5.76130343794379  1.04768587608761 -3.00072880388039
 1  6.60136219911991  1.43082708270827 -0.04908226542654
 1  6.56432055145515 -0.06737477487749  0.78383810051005
 1  7.54377176187619 -1.08819805500550 -1.13262458605861
 1  7.61933436933693  0.31307451555155 -1.86757968156816
 1  8.85868792039204  1.27888577357736  0.11587922012201
 1  8.78753724242424 -0.23413892009201  1.03049091279128
 1  10.43295084648465  0.08562109980998 -1.69808469796980
 1  9.16330131563156 -2.16081405790579 -1.62985891069107
 1  10.94817737343734 -2.57002378627863 -1.31270551445145
 1  9.91446433243324 -2.47080902290229 -0.00693013271327
 1  11.62080976187619  0.92146437663766  0.44618610611061
 1  11.31007406080608 -0.77212317361736  1.03821444304430
 1  12.89114243314332 -1.59104726592659 -0.72372003960396
 1  12.88094184668467  0.03811450245024 -1.77452081338134
 1  13.89469090579058  1.10255281128113  0.55042238523852
 1  13.99331208430843 -0.67303690839084  1.10812732923292
 1  15.35810909940994  0.42419190419042 -1.54091844984498
 1  15.35472291519152 -2.56139643174317 -0.13457491139114
 1  14.89567261796180 -1.86528890449045 -1.56154356945695
 1  16.74883451285129 -1.87522304720472 -1.30058152765277
 1  16.06400160086008  1.37666550025002  0.78263480778078
 1  16.56123057025702 -0.24577375247525  1.21035379657966
 1  18.32922386108611 -0.26243279067907 -0.65297863826383
 1  17.71659872437244  1.14605192409241 -1.17516109190919
 1  18.45054584718472  2.25124928262826  0.92988099339934
 1  18.75639279957996  0.80776495749575  1.59453945424542
 1  20.63656856955696  0.29140528872887 -0.43950688668867
 1  19.92794690129013  3.11987554945495 -1.19425301870187
 1  21.40541479357936  2.05690234303430 -1.41265262856286
 1  19.56856076047605  1.54624643544354 -1.92549951895190
 1  20.99541551675167  1.11233934303430  1.92465208240824
 1  22.23627533383338  1.73534476417642  0.84521948824882
 1  21.03186291619162  2.74053413671367  1.76437687818782
>>>>>>> 8e03b5b5abfc0030b3aa597dc0de36371bfbd096

