%nproc=4
%Mem=3GB
# td=(NStates=1) iop(3/107=0140000000,3/108=0140000000) CAM-B3LYP/6-31G(d,p) 

TD

0 1
12 -7.18948364006401  0.61554993849385  0.14453082308231
 6 -4.81313012951295 -2.03579080968097  0.56999240164016
 6 -4.78309434003400  2.78778749664966  1.20336044124412
 6 -9.39049581408141  3.08819637263726 -0.39939241454145
 6 -9.59340543854385 -1.73189495519552 -0.84562136703670
 7 -5.11904893609361  0.39810590119012  0.72077990199020
 6 -4.30692293959396 -0.69679082228223  0.87879577427743
 6 -2.93894011461146 -0.36788518651865  1.28488415751575
 6 -3.09228245514551  1.00385908750875  1.64171045034503
 6 -4.38993922862286  1.46605125622562  1.27178157205721
 6 -2.96800298109811  1.24675749504950  3.20555587018702
 6 -1.89317504720472 -0.60039602880288  0.11443525382538
 6 -0.46663237243724 -0.43635688368837  0.56973035533553
 6  0.51647357055706 -0.60952757465747 -0.64969475957596
 8  0.12281249804980 -0.97435121282128 -1.67430482358236
 8  1.75231382978298 -0.48924886328633 -0.24749013661366
 7 -7.16654429782978  2.57754096399640  0.35683660776078
 6 -6.04599474327433  3.38187195459546  0.79256513261326
 6 -6.31600650905090  4.84012087568757  0.81550980968097
 6 -7.60818560386039  4.85775758095810  0.28677480388039
 6 -8.12538206570657  3.44464140294029  0.08947694629463
 6 -5.40211224512451  6.00059953365337  1.03021317651765
 6 -8.45887589558956  6.08272854245425  0.18760937343734
 6 -8.33119152915292  7.26537568726873  0.80875493479348
 7 -9.12006104720472  0.71706870127013 -0.55754232813281
 6 -9.80697818411841  1.80699402370237 -0.68102091559156
 6 -11.14028798149815  1.46557600210021 -1.18317317701770
 6 -11.12673216041604  0.15630317611761 -1.35261528982898
 6 -9.89850745434543 -0.46562675607561 -0.83120532183218
 6 -12.20822175987599  2.51142638403840 -1.52857230993099
 6 -12.38153194609461 -0.66832295609561 -1.72003133373337
 6 -12.22996490539054 -1.15486567886789 -3.18633928512851
 7 -7.19671263366337 -1.34597943364336 -0.18463113821382
 6 -8.23091741804181 -2.18934748024803 -0.51395297519752
 6 -7.81854389418942 -3.58792934433443 -0.56156645644564
 6 -6.43671146164616 -3.60700368246825 -0.08428050975098
 6 -6.14392812451245 -2.17125508130813  0.17356919231923
 6 -8.54594693419342 -4.85945204360436 -1.00829421252125
 6 -5.32822828572857 -4.44035759915992  0.05158013211321
 8 -5.15705669796980 -5.62718957595760  0.03509945854585
 6 -4.18026252885289 -3.34777222462246  0.54989331093109
 6 -3.57291146794679 -3.64491243394339  1.99097506600660
 8 -3.95291807520752 -3.08301565946595  3.00628398659866
 8 -2.81171652445245 -4.71981059955996  1.84696373387339
 6 -2.26618557555756 -5.28912411831183  3.13450085048505
 6  2.82608892929293 -0.55347363626363 -1.23926744394439
 6  4.10771165636564 -0.56091135903590 -0.60764332713271
 6  5.11937742904290  0.27281380938094 -0.93096597359736
 6  5.01538526412641  1.23452112741274 -2.05413954895490
 6  6.37237351605161  0.14686530253025 -0.17278780318032
 6  7.68496994959496 -0.24469301730173 -0.97927825652565
 6  8.88731644324433 -0.03267508360836 -0.14457055945595
 6  10.16320178077808 -0.53933559675968 -0.91306702670267
 6  10.05634891149115 -1.93970185008501 -1.45054202020202
 6  11.45467013081308 -0.38006289738974 -0.04264222672267
 6  12.72345008050805 -0.57542757625763 -0.67603510861086
 6  14.02660393219322 -0.02468818311831  0.07631404300430
 6  15.34066005700570 -0.15859494309431 -0.56422207470747
 6  15.71072734373437 -1.53672206050605 -0.99696152245225
 6  16.40545753845385  0.43683020032003  0.38995373007301
 6  17.81316890459046  0.50993472307231 -0.11315784278428
 6  18.76188660726072  1.16231430993099  0.83201645834583
 6  20.09022182658266  1.39433886638664  0.24178088408841
 6  20.31957480328033  2.26999430453045 -1.02618731463146
 6  21.14801986898690  1.82475417531753  1.34720866086609
 1 -4.10773113661366  3.77131038243824  1.35582167796780
 1 -10.24585670897090  3.84958723322332 -0.42062658885889
 1 -10.52231665576558 -2.50290582568257 -1.04134195359536
 1 -2.71953924112411 -1.09648985168517  2.11855834653465
 1 -2.38519198549855  1.54554661576158  1.06915056405641
 1 -2.10019310571057  0.76110521692169  3.50080041744174
 1 -3.33369047814781  2.24196341914191  3.46773479567957
 1 -3.73838663916392  0.65810096439644  3.52319400460046
 1 -2.01132625162516 -1.43149382018202 -0.42667067416742
 1 -2.07970433943394  0.13205082488249 -0.49690642524252
 1 -0.19937536623662  0.51222080938094  1.08420228322832
 1 -0.22639105940594 -1.17143791039104  1.37869132743274
 1 -5.52333651135113  6.75574308630863  0.21106093739374
 1 -5.57114858615862  6.32593547494749  1.94551656415642
 1 -4.23813865846585  5.82522679067907  0.97214794739474
 1 -9.43186344614461  5.98888227022702 -0.40507185988599
 1 -9.07917698139814  7.90451017201720  0.61259103480348
 1 -7.44943287538754  7.55104194059406  1.52860182048205
 1 -11.93650412341234  3.45883503060306 -2.18477430893089
 1 -13.02181947964796  1.97982672507251 -2.06051177937794
 1 -12.57801883458346  2.97094442854285 -0.51814225372537
 1 -12.31617358225822 -1.49600052285229 -0.91612511341134
 1 -13.36279857895790 -0.13429614011401 -1.51868762316232
 1 -13.04115931513151 -1.95056871897190 -3.50232119021902
 1 -12.30121052675267 -0.39021749304930 -3.89904888328833
 1 -11.34170901030103 -1.68930995819582 -3.42345062326233
 1 -8.85670028862886 -4.70094659545955 -1.96430249324932
 1 -7.78719310451045 -5.61306726002600 -0.92076203130313
 1 -9.40877505650565 -4.95039348774877 -0.31779404810481
 1 -3.26285380388039 -3.64729133473347 -0.01094883298330
 1 -1.39335272287229 -4.58127034043404  3.36190790839084
 1 -3.23511994929493 -4.97343686858686  3.94290532823282
 1 -1.96706722722272 -6.42548333313331  2.91994535563556
 1  2.59690774557456 -1.42154877767777 -1.96384783348335
 1  2.62863930523052  0.31190927572757 -2.04049510701070
 1  4.38008849554956 -1.40475888968897  0.10434183438344
 1  4.14035934743474  1.36407194989499 -2.42777326302630
 1  5.48477540974097  2.25699612351235 -1.79930736913691
 1  5.57366693519352  0.69173036393639 -3.03246950385039
 1  6.82803098699870  1.03647362796280  0.29319893379338
 1  6.25868374047405 -0.53384072077208  0.64850104560456
 1  7.51310343314331 -1.35253592659266 -1.21535629282928
 1  7.78581113961396  0.43174227722772 -1.84594541744174
 1  9.17348339263926  1.12159165666567 -0.16652422432243
 1  8.66404952575258 -0.77699605230523  0.72308843224322
 1  10.35104973677368  0.03264941274127 -1.79918507650765
 1  9.22004161326133 -2.53226150965097 -1.86408479037904
 1  11.06707584818482 -2.04981838113811 -2.06293165126513
 1  10.37564976207621 -2.75375949064907 -0.64861225492549
 1  11.47383902550255  0.56909334273427  0.50219799059906
 1  11.54173176867687 -1.07812911051105  0.82114843494349
 1  12.87530548304830 -1.49005642494249 -1.31504377587759
 1  12.76120195009501 -0.04142920692069 -1.73511784548455
 1  13.66038745904591  1.03600896419642  0.37017184588459
 1  13.92793110371037 -0.65030140904090  1.03029540354035
 1  15.43497389878988  0.40139353635364 -1.61513278207821
 1  15.79192298909891 -2.02609195039504  0.02513437793779
 1  14.94774641904190 -1.98727324732473 -1.69849122262226
 1  16.81486976657666 -1.67348824582458 -1.49359587288729
 1  15.96228950245024  1.41948028172817  0.62474839113911
 1  16.29815389318932 -0.02693897869787  1.34336283098310
 1  18.11344808250825 -0.51410792479248 -0.36371656725673
 1  17.58786609620962  1.11880077417742 -1.10576632023202
 1  18.23076213311331  2.15258652665266  1.06372831963196
 1  18.69229519201920  0.70844568406841  1.78455170067007
 1  20.46728656095610  0.37113811141114  0.03742963516352
 1  20.02542936143615  3.26644742124212 -0.90953313801380
 1  21.44998879967997  2.19536067816782 -1.38738671987199
 1  19.67757615521552  1.87410770097010 -2.02264064846485
 1  21.16831068456846  1.22053769466947  2.15213888268827
 1  22.07044493729373  2.11010148084808  0.75810246384638
 1  21.09180925942594  2.98664478167817  1.57975511221122

