%nproc=4
%Mem=3GB
# td=(NStates=1) iop(3/107=0140000000,3/108=0140000000) CAM-B3LYP/6-31G(d,p) 

TD

0 1
12 -7.14345903760376  0.65707409090909  0.10499686968697
 6 -4.86791560806081 -2.02987021762176  0.50267566996700
 6 -4.74386041664166  2.85549426732673  1.16335644084408
 6 -9.32082884738474  3.07664521752175 -0.39158163346335
 6 -9.55043114111411 -1.76709847554755 -1.02710951585159
 7 -5.07428445964596  0.39720581118112  0.73913173717372
 6 -4.31818406570657 -0.76362750595059  0.79311720642064
 6 -2.97406362696270 -0.43052145014501  1.31087675677568
 6 -3.02544577147715  1.05993469506951  1.80588686798680
 6 -4.34734496919692  1.48818346944694  1.19648404230423
 6 -2.92898907970797  1.11783460276028  3.27844315891589
 6 -1.94634036373637 -0.68916490569057  0.14148795909591
 6 -0.56496220542054 -0.35239848784878  0.49777315961596
 6  0.52491441464146 -0.57094371627163 -0.52172196229623
 8  0.24808502530253 -1.06445022272227 -1.66164355745575
 8  1.73452205060506 -0.32601253965397 -0.11399678727873
 7 -6.99722736613661  2.61430464036404  0.25371629572957
 6 -5.95109525332533  3.41175494289429  0.82457833393339
 6 -6.38775368376838  4.82582944654465  0.86116437513751
 6 -7.73583836913691  4.79080088528853  0.36812293869387
 6 -8.05190471797180  3.49331627042704  0.02004000260026
 6 -5.43956599049905  5.93158263196320  1.21572172737274
 6 -8.64666467446745  5.98934920452045  0.23083369586959
 6 -8.52066047604760  7.24897404710471  0.65763982328233
 7 -9.07661670277028  0.67443443784378 -0.59088566246625
 6 -9.82071955825582  1.82462578687869 -0.65985879937994
 6 -11.20899485218522  1.54645408990899 -1.15059991969197
 6 -11.21903139033903  0.11559910571057 -1.27296732503250
 6 -9.91626923052305 -0.38969916331633 -0.94303650495049
 6 -12.17402834053405  2.54052929432943 -1.40823027572757
 6 -12.46593038593859 -0.69535565936594 -1.73592292289229
 6 -12.28116002490249 -1.06912710501050 -3.30320097129713
 7 -7.28797175957596 -1.38114294999500 -0.22611528662866
 6 -8.27624195049505 -2.20092863836384 -0.59795137503750
 6 -7.86076811661166 -3.66860741214121 -0.59526982678268
 6 -6.54765255575558 -3.62108509060906 -0.17934001570157
 6 -6.20302403410341 -2.26061401720172  0.01577341274127
 6 -8.79482182168217 -4.78308440684068 -0.87601098419842
 6 -5.41305676857686 -4.39647321072107  0.17403237733773
 8 -5.33516450875088 -5.63334019101910  0.20828677727773
 6 -4.23862836543654 -3.32612005940594  0.57218554015402
 6 -3.68094227102710 -3.74188213091309  1.91435740424042
 8 -3.85785856925693 -3.17615497339734  2.97222058025803
 8 -2.85859121192119 -4.76958557705771  1.79650868836884
 6 -2.04893385038504 -5.18698390429043  2.92952035243524
 6  2.77599391979198 -0.57219550845085 -1.10634415161516
 6  4.15883676887689 -0.36240150805081 -0.47817037983798
 6  5.07695318661866  0.38083461146115 -0.90293317031703
 6  5.19260298589859  1.19070674597460 -2.22379651465147
 6  6.41429770847085  0.41810242624262 -0.14920544494449
 6  7.69674112671267 -0.22983153115312 -0.97344767346735
 6  9.04452216381638 -0.03844566066607 -0.14037013941394
 6  10.27201266186619 -0.51313297649765 -0.98013373337334
 6  10.05739901650165 -1.98136601650165 -1.28970593659366
 6  11.40907557135714 -0.27844273537354 -0.04654261676168
 6  12.76278401390139 -0.57323735723572 -0.67933543864386
 6  14.02664393619362 -0.22380809510951  0.17421383298330
 6  15.42037802880288 -0.33469255285529 -0.50365601810181
 6  15.73900017101710 -1.72392078037804 -0.84011583788379
 6  16.46329332203220  0.34001051835184  0.41754648934894
 6  17.84896248394839  0.58105183478348 -0.25165169216922
 6  18.75589600820082  1.29623770227023  0.74263752045205
 6  20.26276908130813  1.41530096259626  0.18267497349735
 6  20.42617546334634  2.19815712081208 -1.20453514941494
 6  21.18835390239024  1.97898959885989  1.24069800980098
 1 -4.16689705320532  3.55882913431343  1.64174026982698
 1 -10.24367649094910  3.75545782028203 -0.63985851205121
 1 -10.37059148324832 -2.62841837693769 -0.93696151555155
 1 -2.60907819501950 -1.02759296199620  2.17594408510851
 1 -2.11158462476248  1.69217127822782  1.39471312031203
 1 -1.99231231763176  0.81957106350635  3.70264060146015
 1 -2.96018312741274  1.93047227002700  3.63992201440144
 1 -3.74050685118512  0.57548270257026  3.55782746794679
 1 -1.94353947294729 -1.77364803560356 -0.14979298639864
 1 -2.06863323232323 -0.14468684888489 -0.90206694129413
 1 -0.48904433313331  0.68738832613261  0.75312917591759
 1 -0.11289971027103 -0.86300706730673  1.39234269256926
 1 -5.75492967066707  6.81616912891289  0.76689652095210
 1 -5.55700717201720  6.27445032643264  2.40185219771977
 1 -4.29289413401340  5.94996926492649  0.87605833843384
 1 -9.46687694749475  5.88476185818582 -0.55291664436444
 1 -9.13858292199220  7.99497921892189  0.40842061776178
 1 -7.88376630873087  7.34176101250125  1.62053101340134
 1 -12.09752022502250  3.26102524962496 -2.39694552605261
 1 -13.12607990569057  2.04102284468447 -1.42691842004200
 1 -12.49775080778078  3.31090842494249 -0.65470591009101
 1 -12.45954791969197 -1.61978290109011 -1.00132363326333
 1 -13.32805510461046 -0.15742845334533 -1.69650540494049
 1 -13.14838003720372 -1.88070173227323 -3.43077403550355
 1 -12.33827423312331 -0.26417488878888 -4.01815079347935
 1 -11.23626846624662 -1.56237726492649 -3.35697397559756
 1 -9.14552917151715 -4.66125262606261 -1.74170023302330
 1 -8.13679806500650 -5.61040699399940 -0.86717667276728
 1 -9.58903308230823 -4.99096754515452 -0.05369763846385
 1 -3.39513703220322 -3.62338894449445 -0.04544228232823
 1 -1.60276366396640 -4.23798601200120  3.35538725632563
 1 -2.63212965026503 -5.42310183508351  3.87509854755476
 1 -1.49654017451745 -6.01364214901490  2.68798215931593
 1  2.69062711751175 -1.64517113991399 -1.35038648734874
 1  2.70633707500750  0.24555264006401 -1.84223528102810
 1  4.29981046774677 -0.81480989478948  0.53796519671967
 1  4.01306661816182  1.40525606830683 -2.57164765046505
 1  5.80383731593159  2.09366979087909 -2.20533797219722
 1  5.70777034553455  0.41906309720972 -2.83325958285829
 1  6.62745092899290  1.59028900950095 -0.06989737583758
 1  6.40230810291029  0.02715537883788  0.85009120462046
 1  7.30572269506951 -1.45322599559956 -0.82109686688669
 1  7.53359591809181  0.01244034703470 -2.03146396929693
 1  9.00336638093809  0.97039653715372  0.04170659875988
 1  8.75256837763776 -0.56246459915992  0.85844196759676
 1  10.28929356115612  0.23506965476548 -1.83987914591459
 1  9.32266187528753 -2.08995727922792 -2.01315969786979
 1  11.11841098169817 -2.46226962626263 -1.47513287138714
 1  9.62012420952095 -2.42172628732873 -0.24166155985599
 1  11.65684732633263  0.81224765816582  0.48111588238824
 1  11.31187878337834 -0.64066536413641  0.89714603470347
 1  12.83473142564256 -1.57659507880788 -0.97508978047805
 1  12.69917574747475 -0.11611667566757 -1.64305863956396
 1  14.05439685998600  0.91333669696970  0.43231806050605
 1  14.05262357295730 -0.81290766966697  1.08759113311331
 1  15.38676907830783  0.21242463946395 -1.39150041884188
 1  15.69412320912091 -2.50757009820982  0.05997786228623
 1  15.12104374877488 -2.13218773877388 -1.54888626212621
 1  16.82604088368837 -1.87569846684668 -1.20367688098810
 1  16.01245451895189  1.09438777247725  0.83324924122412
 1  16.50281435923592 -0.35136142094209  1.24474296899690
 1  18.38932567026703 -0.41443795779578 -0.38986918251825
 1  17.63131044064406  1.12055094919492 -1.20025576917692
 1  18.36777583448345  2.45352662066207  0.98223016981698
 1  18.78453441594159  0.91246608610861  1.84621786728673
 1  20.69122895519552  0.40641163876388 -0.20165427322732
 1  19.95968278677868  3.22321309780978 -1.21409359405941
 1  21.27712151295130  2.35091623372337 -1.55966394759476
 1  19.67736613421342  1.53575386558656 -1.84691307570757
 1  20.96923077657766  1.35914155505551  2.02950661946195
 1  22.30745863866386  1.88252872357236  1.03508016161616
 1  20.89078915741574  3.17123324052405  1.39914705140514

