%nproc=4
%Mem=2GB
# td=(NStates=1) CAM-B3LYP/6-31G(d,p) 

TD

0 1
12 -7.08495906890689  0.49132788088809  0.04950263766377
 6 -4.92063668166817 -1.87710888928893  0.52969950265027
 6 -4.84528445734573  2.93878232553255  1.06884324922492
 6 -9.39870460596060  2.93490898639864 -0.37526038573857
 6 -9.48975928962896 -1.77856336733673 -0.86033246234623
 7 -5.08829225382538  0.48942876097610  0.68922934123412
 6 -4.35190489658966 -0.65915573757376  0.83997202040204
 6 -2.99196820222022 -0.42471189688969  1.16761711591159
 6 -3.05833927232723  1.13214588288829  1.59886061676168
 6 -4.37681467636764  1.59801054985499  0.99361639153915
 6 -2.84395947804781  1.38677096519652  3.08325973487349
 6 -1.92266572757276 -0.70484574597460  0.09655361366137
 6 -0.49252667526753 -0.46265061226123  0.45410954025403
 6  0.56170730793079 -0.58669218211821 -0.56984236473647
 8  0.17238847894789 -0.91180658825883 -1.76053238493849
 8  1.75834764526453 -0.40940833723372 -0.24017080598060
 7 -7.17550799869987  2.59017460726073  0.31335003050305
 6 -6.04277355635564  3.32429340514051  0.65311884548455
 6 -6.41108836193619  4.70358464786479  0.80620130733073
 6 -7.77388009500950  4.80000063156316  0.37905629692969
 6 -8.15508978057806  3.41332052735274  0.05582812911291
 6 -5.58507646434644  5.81452391829183  1.23793855435544
 6 -8.53108090569057  5.95662669636964  0.16434341974197
 6 -8.43564745604560  7.08459457805781  0.89355560536054
 7 -9.22178445104510  0.62642550365036 -0.44301833553355
 6 -9.92448870857086  1.70818077117712 -0.52763908800880
 6 -11.28980807740774  1.39394773387339 -1.13493521302130
 6 -11.18492089598960  0.07868323242324 -1.34737345134513
 6 -9.94276995769577 -0.39229120342034 -0.91107612371237
 6 -12.30996982068207  2.40309088008801 -1.27259403420342
 6 -12.30573511981198 -0.82230964106411 -1.78416922542254
 6 -12.20017750615061 -1.14538694989499 -3.34707982658266
 7 -7.22368183648365 -1.42123173677368 -0.03568824582458
 6 -8.23249348914891 -2.24427960006001 -0.49947490269027
 6 -7.72753889948995 -3.56067433493349 -0.57760503780378
 6 -6.45614949904991 -3.53550788778878 -0.11849358125813
 6 -6.16729932633263 -2.19553783508351  0.15697850205021
 6 -8.51317878527853 -4.81638448084809 -0.92835131353135
 6 -5.30097456775678 -4.25231911541154  0.22283515611561
 8 -5.08401723962396 -5.49481396479648  0.31887891859186
 6 -4.15843942334233 -3.27378316811681  0.68084795009501
 6 -3.53940457135714 -3.62694791609161  1.97705807870787
 8 -3.72887448804881 -3.00767750395039  2.99646232733273
 8 -2.71934312801280 -4.67345206760676  1.84138271917192
 6 -2.11191177907791 -5.10561479057906  2.96541147664766
 6  2.70599311101110 -0.46400419501950 -1.32724392479248
 6  4.10156224522452 -0.31449962626263 -0.58650879987999
 6  5.11857534193419  0.47541380678068 -0.99158893159316
 6  5.03837226022602  1.34554720402040 -2.19390355565557
 6  6.40113444624462  0.32966481668167 -0.27795428062806
 6  7.68552609050905 -0.17392773967397 -1.01783873437344
 6  8.99586145874587 -0.10585571597160 -0.10047185998600
 6  10.10319094359436 -0.63191026272627 -0.86055702620262
 6  10.14621132133213 -2.11859279537954 -1.22563602860286
 6  11.49936281318132 -0.39480326112611  0.00911177977798
 6  12.78074298199820 -0.51565561666167 -0.74081410431043
 6  13.92515198359836 -0.11119232203220  0.15057212471247
 6  15.26435256015602 -0.31866559565957 -0.47537577737774
 6  15.70068173707371 -1.64135176897690 -0.93919353705371
 6  16.44060816671667  0.31891625162516  0.42149665686569
 6  17.78173276267627  0.61919331773177 -0.16164197879788
 6  18.73660402990299  1.32040025702570  0.75315574857486
 6  20.18620728992899  1.31213154665467  0.30052481568157
 6  20.49965131893189  1.97344564176418 -1.07837883058306
 6  21.10098102890289  1.86629956625663  1.37424278767877
 1 -4.13521500600060  3.58539406080608  1.32967755465547
 1 -10.10449084178418  3.80206104110411 -0.39318470997100
 1 -10.27563085248525 -2.50359970077008 -1.21979863206321
 1 -2.86958341524152 -0.84624293819382  2.10795148634864
 1 -2.24219782498250  1.67114069666967  1.12747339773977
 1 -2.05048950645065  1.00036048894889  3.61466518001800
 1 -3.05745080508051  2.47828188568857  3.26018818421842
 1 -3.64717816051605  0.84311899589959  3.67091950475047
 1 -2.16855934083408 -1.67006696709671 -0.18217212641264
 1 -2.03606527902790  0.03283053345335 -0.70142018161816
 1 -0.58756227362736  0.66209082298230  0.84148454755476
 1 -0.13833163516352 -0.94639915511551  1.38236219141914
 1 -5.61878065346535  6.90442908700870  0.80487619681968
 1 -5.57634462386239  6.31558492159216  2.16683298039804
 1 -4.56189014501450  5.35941710811081  0.94447762336234
 1 -9.24240629312931  5.96595274337434 -0.68907913611361
 1 -9.17877909380938  7.90926166506651  0.78493811561156
 1 -7.51510097589759  7.08211461096110  1.62462084758476
 1 -12.12108621372137  3.24564489048905 -1.97549055375538
 1 -13.28283795299530  1.98197208840884 -1.53546473797380
 1 -12.46684841594159  2.86495515021502 -0.24889613361336
 1 -12.23737851625163 -1.90686013111311 -1.27547250215021
 1 -13.20549926882688 -0.14624136093609 -1.73192872037204
 1 -12.84821117371737 -1.76586127232723 -3.81840172467247
 1 -12.29657322152215 -0.10258479607961 -3.76617011271127
 1 -11.17590386968697 -1.55771063816382 -3.72714133413341
 1 -8.99664926792679 -4.62310305320532 -1.83349661376138
 1 -7.82874223902390 -5.56934693889389 -0.85363497649765
 1 -9.47783766866687 -5.11743676497650 -0.24208603120312
 1 -3.41188188408841 -3.39842309300930 -0.03111838333833
 1 -1.31553972047205 -4.34468090779078  3.42543545884588
 1 -2.70304991359136 -5.33790540814081  3.83560639953995
 1 -1.62744085558556 -6.13434270747075  2.80829478237824
 1  2.54307361146115 -1.35442727862786 -1.99726369136914
 1  2.59779725732573  0.32720700030003 -1.97305045724572
 1  4.29736064166417 -1.22902511771177  0.11990520652065
 1  3.89555851935194  1.51828053845385 -2.45216358605861
 1  5.39043445514551  2.35873613251325 -2.19832630083008
 1  5.27797510511051  0.92152325982598 -3.18974770577058
 1  6.71707377027703  1.35791979197920  0.11810445324532
 1  6.17149126852685 -0.30198823622362  0.52328204490449
 1  7.54834221892189 -1.22359159435944 -1.47527885148515
 1  7.84946738263826  0.39321252935294 -1.93926685028503
 1  9.10977302890289  0.80245813081308  0.38385601780178
 1  8.63548203690369 -0.64305981218122  0.62300016371637
 1  10.35820337173717 -0.10668813111311 -1.86087097659766
 1  9.26577156265627 -2.32866084258426 -1.96768269306931
 1  10.86195875157516 -2.35865264916492 -1.71193543744374
 1  10.13689657565757 -2.71585352735274 -0.18370781048105
 1  11.28769645054505  0.66122835303530  0.10512199969997
 1  11.43246630003000 -0.95433139443944  0.77903852545255
 1  12.97868118701870 -1.42911107230723 -0.99320698829883
 1  12.86760051255125  0.05762645364536 -1.82762612391239
 1  13.84223566026603  1.02130468646865  0.35137248024802
 1  13.89406215931593 -0.74272387708771  1.18268478497850
 1  15.28863215171517  0.15001448644865 -1.41668602660266
 1  15.22619006190619 -2.30019031113111 -0.00391184508451
 1  15.05660871157116 -1.82480485608561 -1.68798621372137
 1  16.71718134753475 -1.59595512041204 -1.25258672817282
 1  16.05393059375938  1.20473830753075  0.85175171947195
 1  16.77027147434744 -0.38217739283928  1.21596435763576
 1  18.18068900760076 -0.26527307470747 -0.62944628502850
 1  17.44564162866287  1.22329964886489 -0.99482305810581
 1  18.50154094669467  2.44746890459046  0.92741074637464
 1  18.69887704800480  0.87784196519652  1.65273527382738
 1  20.55442035473547  0.32877902610261  0.20805786978698
 1  20.20276438303830  2.95611917381738 -0.87537113051305
 1  21.48919317141714  1.87744439723973 -1.40295165846585
 1  19.70811471587159  1.64323613441344 -1.64736170517052
 1  21.02078805400540  1.18059616871687  2.26377599479948
 1  22.08271997829783  1.87704893459346  1.10550551685168
 1  20.89086881678168  2.93112319561956  1.54202464296430

