%nproc=4
%Mem=2GB
# td=(NStates=1) CAM-B3LYP/6-31G(d,p) 

TD

0 1
<<<<<<< HEAD
12 -7.15049562256226  0.66922567066707  0.09779746714671
 6 -4.88489310731073 -2.09196037443744  0.58745527822782
 6 -4.88157808670867  2.79557800510051  1.17902426732673
 6 -9.33708844434443  3.07668316381638 -0.43672653235324
 6 -9.51949226292629 -1.79257476847685 -0.86007243634363
 7 -5.05924934953495  0.33168298639864  0.60206062436244
 6 -4.39880958705871 -0.76072589458946  0.75002302550255
 6 -2.89407841324132 -0.46500592629263  1.12425277947795
 6 -3.04245768416842  0.98052072037204  1.64830556125613
 6 -4.40103709860986  1.44026477527753  1.01516854675468
 6 -2.99562464456446  1.17413970207021  3.12372378127813
 6 -1.95869933093309 -0.52021728312831 -0.10482652435244
 6 -0.57101452405241 -0.50260460766077  0.36292042134213
 6  0.56648778597860 -0.62028554145415 -0.60926630713071
 8  0.30721196129613 -0.87280268786879 -1.82884921662166
 8  1.81115292579258 -0.35385278167817 -0.29676646554655
 7 -7.11948239613961  2.64204979477948  0.30448914441444
 6 -6.14905418441844  3.37338831463146  0.81970550415041
 6 -6.37028428152815  4.73011730113011  0.71579226642664
 6 -7.64687739473947  4.89486011751175  0.38027641894189
 6 -8.07221149274928  3.52351154645465  0.11777432373237
 6 -5.44478243494349  5.90902336823682  1.17278203870387
 6 -8.53804160176018  6.09883091679168  0.09114610001000
 6 -8.41617550885089  7.29637575617562  0.72767901770177
 7 -9.12744501710171  0.62972583368337 -0.44409844354435
 6 -9.88872513221322  1.78873882698270 -0.59702602670267
 6 -11.21578067466747  1.37919625872587 -1.02834455395540
 6 -11.23991639553955  0.05482084618462 -1.20523923792379
 6 -9.80822650335034 -0.41959393369337 -0.95900091619162
 6 -12.21233005670567  2.34213478447845 -1.33011978677868
 6 -12.42852739903990 -0.66918432853285 -1.74283509200920
 6 -12.31999948834884 -0.89754216541654 -3.34680979957996
 7 -7.25760522882288 -1.35449506310631 -0.02883756075608
 6 -8.20584082388239 -2.31170634273427 -0.61105606080608
 6 -7.77572371797180 -3.64352261976198 -0.52410968826883
 6 -6.47061094519452 -3.57920225722572 -0.24283601550155
 6 -6.21691428782878 -2.27612589388939  0.15548835303530
 6 -8.67406487388739 -4.90466330873087 -0.80940941934193
 6 -5.30536500680068 -4.42360624412441  0.21583445604560
 8 -5.22857169506951 -5.66707119051905  0.37980501120112
 6 -4.18186176557656 -3.41035682548255  0.67761762706271
 6 -3.59041967286729 -3.74234945624562  2.01297167006701
 8 -3.81975357595760 -3.17353408960896  3.04614729582958
 8 -2.75735692939294 -4.67699242164216  1.95837441834183
 6 -2.24348493639364 -5.30188441754175  3.12045698119812
 6  2.86496900860086 -0.54220201480148 -1.29591079147915
 6  4.11843393239324 -0.32688086438644 -0.60928107710771
 6  5.18298178257826  0.43126939233923 -1.06158593129313
 6  5.08613703670367  1.16954960426043 -2.31992615791579
 6  6.37966229902990  0.47223907410741 -0.18926541174117
 6  7.65256279417942  0.08125777887789 -0.99472642314231
 6  8.97680955355536 -0.03398852925293 -0.13017483028303
 6  10.20978160266027 -0.55729280098010 -0.90454142464246
 6  10.15493219341934 -2.02218315441544 -1.29646311131113
 6  11.39812268916892 -0.22851663246325 -0.06325545694569
 6  12.76570147784778 -0.50413446454645 -0.61758178107811
 6  13.92785225362536 -0.01813301610161  0.22316938443844
 6  15.32233835873587 -0.17626135523552 -0.50435867566757
 6  15.63714538343834 -1.56250388418842 -0.83836345404540
 6  16.40010411631163  0.47718207820782  0.43674818201820
 6  17.75820040944094  0.65132653105311 -0.12879869446945
 6  18.87589795929593  1.30653887088709  0.74125455845585
 6  20.28403707290729  1.18859919341934  0.26093085628563
 6  20.26967832163216  1.94738303550355 -1.10678167086709
 6  21.25623655445545  1.75898883518352  1.33821918531853
 1 -4.09694117861786  3.38864438583858  1.59302388928893
 1 -10.13021341404140  4.03503433843384 -0.33659905140514
 1 -10.38340162956296 -2.36775611641164 -1.19915656785679
 1 -2.43002945984598 -1.10396871077108  1.88030872207221
 1 -2.14043764896490  1.67081066366637  1.20565121552155
 1 -1.75133959145915  0.88177863076308  3.49032274577458
 1 -3.21943700370037  2.32470652815282  3.48935110051005
 1 -3.58902234493449  0.52330701470147  3.71921433423342
 1 -1.88543102800280 -1.63700366076608 -0.72206611581158
 1 -2.20091176367637  0.35092234263426 -0.78785882548255
 1 -0.14287780518052  0.45260987488749  1.06762716181618
 1 -0.31360916291629 -1.23097761296130  1.01961591679168
 1 -5.78700747614762  6.78954759885989  0.63687939713971
 1 -5.72160915031503  6.26081944504450  2.11765806290629
 1 -4.43959791579158  5.64890605700570  1.08009118471847
 1 -9.46341839433943  5.65674182228223 -0.58258848704870
 1 -9.23527474337434  8.01641238013801  0.63526314811481
 1 -7.58741820762076  7.40023642314231  1.64285267076708
 1 -11.94501860696070  2.77359768576858 -2.22156516121612
 1 -13.11496116531653  1.97635152635263 -1.64273546504650
 1 -12.55115684678468  2.94667332203220 -0.48203944794479
 1 -12.47900267866787 -1.65211465656566 -1.42787774267427
 1 -13.35046376527653 -0.04557129392939 -1.53219874737474
 1 -13.10782713531353 -1.66897158335834 -3.69337922242224
 1 -12.35514907910791 -0.06391092869287 -3.98318181388139
 1 -11.37590386968697 -1.36077094419442 -3.42332095209521
 1 -9.08083768676868 -5.02970371327133 -1.84302756685669
 1 -8.00716008080808 -5.59620962516252 -0.55505511851185
 1 -9.49382926782678 -5.10657567886789 -0.27296911951195
 1 -3.30680137603760 -3.46430968166817 -0.13201847334733
 1 -1.72328049454946 -4.52505894559456  3.64826774207421
 1 -3.17138674727473 -5.50092170977098  3.72016485538554
 1 -1.54798290979098 -6.21384065726573  2.95674962786279
 1  2.71713101720172 -1.54282611851185 -1.78395236023602
 1  2.56214369196920  0.42822710231023 -1.89437258945895
 1  4.22685359095910 -0.92911512671267  0.33354657065707
 1  3.94751371487149  1.43164187458746 -2.54513288298830
 1  5.32560797249725  2.20427068596860 -2.16458292649265
 1  5.77167447504750  0.60140124762476 -3.03989272027203
 1  6.51789385228523  1.47494149414941  0.33670631343134
 1  6.30388450785079 -0.00705874327433  0.84020373707371
 1  7.32782016671667 -0.95095433063306 -1.38552987658766
 1  7.88623105900590  0.64067727582758 -1.76791971557156
 1  8.96365841744174  1.04528241324132  0.03931156335634
 1  8.92361084978498 -0.64446995319532  0.69474733843384
 1  10.46353390479048  0.10890342804280 -1.79516440594059
 1  9.25019000450045 -2.19698767526753 -2.07868379317932
 1  10.96504906060606 -2.47037382128213 -1.72556680058006
 1  10.02430531653165 -2.56749869186919 -0.30257969766977
 1  11.24673235413541  1.09334156435644  0.19029051655166
 1  11.29527258065807 -0.63513947524752  0.96892751435143
 1  12.83264658355836 -1.53061122232223 -0.76407407500750
 1  12.81110486298630  0.17319801080108 -1.61981534283428
 1  13.89176061276128  0.96900945694569  0.48413575657566
 1  14.02763551665167 -0.60537014171417  1.14681119761976
 1  15.05506879537954  0.46472595759576 -1.42730708870887
 1  15.57622506540654 -2.32997328942894 -0.00683213711371
 1  14.97520057075708 -2.02224460006001 -1.58465588068807
 1  16.43666329572957 -1.54181970687069 -1.26232770227023
 1  16.11480668136814  1.38632646634663  0.83571011531153
 1  16.48247269446945 -0.15532470757076  1.21555431663166
 1  18.16409734843484 -0.26560310771077 -0.62220556095610
 1  17.74668173267327  1.10856817571757 -1.12259583538354
 1  18.35155594819482  2.20218437613761  1.07600560586059
 1  18.88038519881988  0.63890807180718  1.77955795609561
 1  20.40376528922892  0.12323847204720  0.04964202820282
 1  20.11948605520552  3.01300486238624 -0.98512210561056
 1  21.25586983908391  1.99965661846185 -1.51640300360036
 1  19.43976788118812  1.68568037883788 -1.86449341834183
 1  21.27605358055806  1.10513862296230  2.14327394459446
 1  22.34831653795379  1.84081531123112  1.07635260156016
 1  20.96196592649265  2.69532961626163  1.76432687318732
=======
12 -7.20386095909591  0.57325607370737  0.09761744914491
 6 -4.82582720072007 -1.93941511991199  0.50075660836084
 6 -4.92516244514451  2.81251969926993  1.21742810771077
 6 -9.53248798429843  3.04900039553955 -0.28457131683168
 6 -9.42721303500350 -1.73489900090009 -1.01757818691869
 7 -5.17374079867987  0.47712753085309  0.74348476677668
 6 -4.37388709480948 -0.61697151915192  0.81565958915892
 6 -2.90340934633463 -0.34645407110711  1.25363571777178
 6 -3.07598103650365  1.15648831713171  1.75688641934193
 6 -4.38997599249925  1.48167891669167  1.14374140404040
 6 -3.14792987508751  1.13723601170117  3.25209661856186
 6 -1.98867232823282 -0.39645490689069  0.11947590589059
 6 -0.42704012661266 -0.33927827502750  0.58852298159816
 6  0.51365250245024 -0.58676218911891 -0.50564594509451
 8  0.15688692879288 -0.97111251885189 -1.68609494119412
 8  1.80400221072107 -0.33913130953095 -0.25611240014001
 7 -7.13466391429143  2.51146673647365  0.35448414391439
 6 -6.11651093009301  3.27842881868187  0.70840437403740
 6 -6.36985423852385  4.80517480688069  0.71621230843084
 6 -7.71749445644564  4.82278290979098  0.29919831113111
 6 -8.24708898049805  3.47359655495550  0.13621616791679
 6 -5.52251020772077  5.86346881278128  1.16716147664766
 6 -8.51983978157816  5.97467850155016  0.01819880528053
 6 -8.51773566486649  7.19849596819682  0.68780503030303
 7 -9.16016828942894  0.63643650475047 -0.49341337503750
 6 -9.90047630733073  1.78342829592959 -0.65139146324632
 6 -11.21832092869287  1.43315165426543 -1.07369908940894
 6 -11.27232963686369  0.04912027612761 -1.21297001100110
 6 -9.87123280398040 -0.43140511481148 -0.93019803590359
 6 -12.37534635833583  2.27017758875888 -1.33059983478348
 6 -12.37327187348735 -0.82199961006101 -1.77986879537954
 6 -12.38647613601360 -1.06541895309531 -3.27519263786379
 7 -7.12662213051305 -1.31827144074407 -0.30866554355436
 6 -8.20468070787079 -2.19712488458846 -0.66996195139514
 6 -7.78710485608561 -3.61903017051705 -0.53333061036104
 6 -6.47990187428743 -3.51022535953595 -0.04653638553855
 6 -6.14952754915492 -2.18904718601860  0.14901770597060
 6 -8.49033650105010 -4.83176601900190 -0.88802728112811
 6 -5.25150962126213 -4.33660754425443  0.16549942254225
 8 -5.06541537943794 -5.54849933333333  0.05519254995500
 6 -4.05348892829283 -3.23955974577458  0.58656852215222
 6 -3.48807943884388 -3.71913713501350  1.86712708560856
 8 -3.62079367996800 -3.02033877007701  2.92311499259926
 8 -2.70148134183418 -4.79992471487149  1.82190077097710
 6 -1.94653524142414 -5.14372860196020  2.92407734323432
 6  2.80542305400540 -0.52299009360936 -1.23104430483048
 6  4.13095518451845 -0.37392556885689 -0.60447059605961
 6  5.12847633203320  0.41734800020002 -0.99955972867287
 6  5.11223964696470  1.16207885718572 -2.28630279557956
 6  6.44663899669967  0.52924477467747 -0.07185367056706
 6  7.66622416031603 -0.12789313621362 -0.86353330383038
 6  8.84120599319932 -0.02266739713971 -0.07288910171017
 6  10.21183180768077 -0.58801587328733 -0.78031900240024
 6  10.02366906710671 -2.02720365646565 -1.13264672967297
 6  11.40317319421942 -0.25938971977198  0.08526939553955
 6  12.74948985668567 -0.62108615971597 -0.64504452735274
 6  13.94251371977198 -0.21801300410041  0.24626169366937
 6  15.30531665656566 -0.27809153825383 -0.46656489628963
 6  15.71235290419042 -1.70022765656566 -0.76114573227323
 6  16.36556066196620  0.36590095009501  0.49406391359136
 6  17.72080667006701  0.57568896729673 -0.20045586018602
 6  18.77070744024402  1.31766998399840  0.66014644764476
 6  20.28037670687069  1.19767010051005  0.10476523972397
 6  20.41484283808381  1.94897319451945 -1.23768476117612
 6  21.27932886368637  1.86661959825983  1.10258562196220
 1 -4.20781226572657  3.58947446884688  1.38836342324232
 1 -10.08888928162816  3.89242007700770 -0.23693908540854
 1 -10.24426771617162 -2.50795013581358 -1.12629928212821
 1 -2.71720817771777 -1.06694500840084  1.95812650385038
 1 -2.12492609780978  1.66490007260726  1.38440909130913
 1 -2.26561101860186  0.47762821572157  3.62215592909291
 1 -3.25468052805281  2.20274433193319  3.78922108750875
 1 -4.03665710841084  0.55136982098210  3.67993040584058
 1 -2.06251873677368 -1.35199515991599 -0.36557046624662
 1 -2.21114278677868  0.41628887928793 -0.62041208080808
 1 -0.08303182058206  0.68383299719972  0.89005940504050
 1 -0.23758156015602 -1.08059257445745  1.32163611881188
 1 -5.87748652405241  6.80125876997700  0.70388609780978
 1 -5.66520350975097  5.97423078617862  2.24240053715371
 1 -4.44716867286729  5.71271243764376  0.84961813741374
 1 -9.22229428192819  5.92263841194119 -0.76810703890389
 1 -9.13761497739774  7.91274201310131  0.46716633843384
 1 -7.92473193899390  7.30372677217722  1.57253563906391
 1 -12.10924502960296  3.23187351335133 -2.05816882158216
 1 -13.42633230243024  1.80709460066007 -1.76801799329933
 1 -12.82938466956696  2.74387304200420 -0.33360460446045
 1 -12.45327010541054 -1.83553299839984 -1.31716667156716
 1 -13.19378809770977 -0.29065580238024 -1.41873740124012
 1 -13.37247359996000 -1.61488617481748 -3.58365825032503
 1 -12.28967253145315 -0.14763930153015 -3.81850534623462
 1 -11.46285256455646 -1.61992685978598 -3.50074869486949
 1 -8.80500010301030 -4.95029577247725 -2.00658392249225
 1 -7.76911627642764 -5.63187319151915 -0.55216482948295
 1 -9.38995888078808 -4.87295231653165 -0.25755757835784
 1 -3.36456715261526 -3.47072032273227 -0.14452972447245
 1 -1.22245041154115 -4.30952739243924  3.02774568986899
 1 -2.45625523412341 -5.24020563816382  4.05160799969997
 1 -1.50769888138814 -5.94352362556256  2.53944789768977
 1  2.63044234833483 -1.51988382428243 -1.58270223522352
 1  2.62745022262226  0.03284756435644 -2.20455360756076
 1  4.39227013261326 -0.77571978717872  0.41607482348235
 1  4.07749671317132  1.26498520892089 -2.79929829952995
 1  5.29320473217322  2.29387964686469 -1.96248271647165
 1  5.95160246784678  0.86979808730873 -2.91770050105011
 1  6.57002906580658  1.56581058105811  0.24771741454146
 1  6.12519663906391 -0.08478651605161  0.95560527722772
 1  7.56229361406141 -1.33820305550555 -1.17498882248225
 1  7.68537097299730  0.05074828292829 -1.99909283288329
 1  8.85475752735274  1.17798568356836  0.28988662086209
 1  8.73679216791679 -0.63701920812081  0.90431829552955
 1  10.22599015041504  0.13426596429643 -1.67499238873887
 1  8.92141712721272 -2.23149112561256 -1.62537846264626
 1  10.76931948764877 -2.25265204910491 -1.87667191109111
 1  10.10774366036604 -2.68721066306631 -0.28258769846985
 1  11.37513519441944  0.92369459965997  0.06628811631163
 1  11.36590964436444 -0.70560652195219  1.03225384698470
 1  12.66927024592459 -1.68041620282028 -0.85525319291929
 1  12.96666041854185 -0.05298460746075 -1.55402876417642
 1  13.71877331403140  0.68102065806581  0.61969931293129
 1  13.97733048614861 -0.82716232093209  1.11233775027503
 1  15.21600488898890  0.22294177917792 -1.46654101210121
 1  15.56366380928093 -2.54109440154015  0.15129367546755
 1  15.09530258095810 -2.00291266686669 -1.78278569366937
 1  16.75920554995500 -1.58242376727673 -1.05138660816082
 1  15.74828002870287  1.27941577527753  0.95729227352735
 1  16.61167561476147 -0.16601577667767  1.41921468266827
 1  17.97963890259026 -0.36320286768677 -0.51139447984798
 1  17.46525358985899  1.25169248814881 -1.03089666546655
 1  18.50750154275428  2.26496065376538  0.67338534383438
 1  18.95561272157216  1.12530671167117  1.84287428772877
 1  20.53429834253425  0.12086823502350  0.00396746074607
 1  20.16056016261626  2.95323888578858 -1.08115170857086
 1  21.30837508960896  1.98197485028503 -1.73453481678168
 1  19.64802870727073  1.47260907170717 -2.07731470047005
 1  21.23047902310231  1.36016412551255  2.16777639483948
 1  22.29910161646164  1.64032526222622  0.65617058335834
 1  21.26834656455646  2.97582766606661  1.24886532703270
>>>>>>> 8e03b5b5abfc0030b3aa597dc0de36371bfbd096

