%nproc=4
%Mem=2GB
# td=(NStates=1) CAM-B3LYP/6-31G(d,p) 

TD

0 1
<<<<<<< HEAD
12 -7.07784835783578  0.52841158925893  0.01918960636064
 6 -4.85697031503150 -2.01571274967497  0.55749228192819
 6 -4.82137206610661  2.79049749704970  1.21914827972797
 6 -9.39838457395740  3.05589108460846 -0.37044990469047
 6 -9.48632894659466 -1.71110662166217 -1.01571800090009
 7 -5.08054147874788  0.30849066716672  0.81868228652865
 6 -4.28243794989499 -0.74616443844384  0.84436245944594
 6 -2.87768677407741 -0.37874730043004  1.26196655085509
 6 -2.99518295669567  1.12056472477248  1.72225295599560
 6 -4.31636863176318  1.49505025382538  1.22210924082408
 6 -2.95179026112611  1.22696498459846  3.29445085398540
 6 -1.95480894189419 -0.49815507690769  0.05184914321432
 6 -0.51860928352835 -0.45002935013501  0.49349347864786
 6  0.51089222642264 -0.64796830973097 -0.58311369186919
 8  0.25492673277328 -0.90908631623162 -1.74236056775678
 8  1.79234104460446 -0.46139353575358 -0.25664245314531
 7 -7.05072552045205  2.61498708850885  0.30626932243224
 6 -6.07129640864086  3.35211618741874  0.74539807340734
 6 -6.39693694679468  4.74501879127913  0.86255694289429
 6 -7.67130983798380  4.85287591909191  0.32827121842184
 6 -8.16647091869187  3.49337853315332  0.03271581788179
 6 -5.53977193389339  5.93789625552555  1.27608236873687
 6 -8.54369216681668  6.04830586428643  0.10814780018002
 6 -8.50958484978498  7.19363548214822  0.78883513331333
 7 -9.14718699129913  0.60118297939794 -0.56363039673967
 6 -9.88339459915992  1.78335828892889 -0.64254057815782
 6 -11.21081017761776  1.54268260736074 -1.06807852735274
 6 -11.23849625352535  0.12875823992399 -1.28521723572357
 6 -9.88491417211721 -0.36012798709871 -0.93998901500150
 6 -12.27517634133413  2.46692726372637 -1.50261703650365
 6 -12.27994254055405 -0.80748815891589 -1.78787959645965
 6 -12.25168265666567 -1.00250266146615 -3.27395251385139
 7 -7.22818228652865 -1.44984459805981 -0.15037971497150
 6 -8.24224446424643 -2.28274344644464 -0.59141409660966
 6 -7.75629177477748 -3.64692295979598 -0.46095337263726
 6 -6.50323420752075 -3.55220955795580 -0.12420415231523
 6 -6.19138173457346 -2.19549783108311  0.14017682188219
 6 -8.56920438783878 -4.88074091649165 -0.75098357675768
 6 -5.33451792209221 -4.33324720822082  0.22684555715572
 8 -5.18887772567257 -5.56542102550255  0.12270930163016
 6 -4.11641522092209 -3.33396918671867  0.56877674297430
 6 -3.55633626452645 -3.71927714901490  1.90721109400940
 8 -3.77045864646465 -3.05488222442244  2.91750443154315
 8 -2.74696589028903 -4.76025074747475  1.86381496239624
 6 -2.19338992689269 -5.16475070417042  3.11298623412341
 6  2.84851736343634 -0.55579337393739 -1.18830003040304
 6  4.10065215421542 -0.22989116541654 -0.55601575057506
 6  5.14107759215922  0.52551881728173 -1.03001277397740
 6  4.93827225022502  1.19347199649965 -2.33867803310331
 6  6.49485381818182  0.54448629882988 -0.19386587178718
 6  7.58428596649665 -0.14509485638564 -1.04876182668267
 6  8.82781465406541 -0.17238236863686 -0.25208702150215
 6  10.18428905340534 -0.63121019271927 -1.03540451095109
 6  9.96362306250625 -2.23436437253725 -1.32403586858686
 6  11.36457933483348 -0.31593537433743 -0.11372050345035
 6  12.80545545324532 -0.50695474657466 -0.75564558745875
 6  13.92086155455545 -0.18667987078708  0.26650371787179
 6  15.37432355725573 -0.23860758985899 -0.36840508030803
 6  15.75331700060006 -1.74080171397140 -0.68737835553555
 6  16.41707581348135  0.48614297429743  0.46426093329333
 6  17.81709629902990  0.48938033643364 -0.13226904150415
 6  18.81083145264526  1.29701791879188  0.70972140514051
 6  20.23023169236924  1.40601093459346  0.16753151635164
 6  20.38156951075107  2.04843314051405 -1.11283227592759
 6  21.05827675847585  2.05461839813981  1.26566192959296
 1 -4.01093257775778  3.53398892029203  1.36280086698670
 1 -10.18661905460546  3.75167600260026 -0.39816520802080
 1 -10.14883817321732 -2.41450079087909 -1.16243289548955
 1 -2.69428588548855 -1.12787110101010  2.02388307950795
 1 -2.29949355455546  1.80703428602860  1.24389503990399
 1 -1.80336479397940  1.03260371327133  3.58626233973397
 1 -3.08322338233823  2.37694175167517  3.47431959735974
 1 -3.48623206590659  0.49801448544854  3.99809222202220
 1 -2.05347783268327 -1.66296625702570 -0.19193310251025
 1 -1.93754542704270  0.25297254765477 -0.72317235683568
 1 -0.15468898629863  0.36631124502450  1.10633103220322
 1 -0.55849365136514 -1.31999651485149  1.24700865606561
 1 -5.88488726412641  6.83776242034203  0.79778548774878
 1 -5.74349133853385  6.05018838193819  2.41725802290229
 1 -4.63288724472447  5.64303546994699  0.95076825242524
 1 -9.24071612411241  6.01738788688869 -0.77185741394139
 1 -9.01567278317832  8.05993673257326  0.52277189898990
 1 -7.54695416121612  7.35121152065206  1.62593097859786
 1 -12.26621072617262  2.74403472947295 -2.80372337703770
 1 -13.11107077627763  1.92463635483548 -1.38938012951295
 1 -12.19379111021102  3.27165582028203 -0.73698494249425
 1 -12.20042482088209 -1.73668311341134 -1.52328728362836
 1 -13.24823354225423 -0.41165790259026 -1.66670219771977
 1 -13.35267161976198 -1.53594828102810 -3.45473535803580
 1 -12.21183474767477 -0.22966750435043 -4.02663615931593
 1 -11.25989226852685 -1.48920378747875 -3.63497211721172
 1 -9.19101870487049 -4.61890263316332 -1.64682794689469
 1 -7.85517488228823 -5.73273327752775 -0.82483209620962
 1 -9.34561444634464 -4.93185820712071 -0.06154797739774
 1 -3.21905260116012 -3.49338258895890 -0.06174144564456
 1 -1.76126429292929 -4.28262470217022  3.48367128242824
 1 -2.87872748134813 -5.50102171977198  3.66186902580258
 1 -1.79086719821982 -6.10446972017202  3.08880283318332
 1  2.67178648274827 -1.56989882578258 -1.58756272127213
 1  2.45877335493549  0.08057233683368 -2.08188134033403
 1  4.19424032963296 -0.67470968616862  0.33345656165617
 1  3.74558352185219  1.50326903730373 -2.38574694439444
 1  5.72788820052005  2.19388964786479 -2.14338080628063
 1  5.32212952055205  0.69734084158416 -3.20896962796280
 1  6.72374443734373  1.62812681268127  0.12752539533953
 1  6.16712083148315  0.07013897649765  0.76700641734173
 1  7.03458084278428 -1.10430966616662 -1.33574489808981
 1  7.68661109700970  0.37798100620062 -1.98514143774377
 1  9.02583463506351  0.89427731273127  0.09258689088909
 1  8.74152264096410 -0.54173968016802  0.75460332403240
 1  10.18109566096610 -0.07588505080508 -2.05120000950095
 1  8.93767875337534 -2.15395337183718 -1.71480740554055
 1  10.93170572627263 -2.55796258015802 -1.92615685958596
 1  9.65898878487849 -2.69067100910091 -0.34328376807681
 1  11.38916659755976  0.61603383358336  0.13585507300730
 1  11.35851890529053 -0.70015597689769  0.83916453805381
 1  12.61431475037504 -1.61799996119612 -1.15549321692169
 1  12.91752550505050  0.19973066406641 -1.60286364766477
 1  13.69999143584358  0.92686524252425  0.61003834683468
 1  13.70956370947095 -0.84030363506351  1.17984450095009
 1  15.16835012351235  0.10368985398540 -1.51901625962596
 1  15.75746318921892 -2.27810810291029  0.14653319941994
 1  14.90535358605861 -2.18722109770977 -1.35857327242724
 1  16.79927955735574 -1.75732125702570 -0.98457992749275
 1  16.00898609930993  1.50503833753375  0.48527507180718
 1  16.46952139933993 -0.10741991709171  1.49011177237724
 1  18.08283922262226 -0.63503005040504 -0.27493083348335
 1  17.74425148964897  0.76724404330433 -1.10910448624863
 1  18.22582337493749  2.10999515721572  0.93922192749275
 1  18.94323148344835  0.84641882288229  1.67980798109811
 1  20.39064397709771  0.48723487168717  0.01776884088409
 1  20.29252335893589  3.32868643054305 -0.97985157855786
 1  21.49337358945895  1.93642029482948 -1.55308667196720
 1  19.42253615801580  1.86643845464546 -1.88975594459446
 1  21.19517549274928  1.44308241734173  2.20719033623362
 1  22.10514222052205  2.11444267396740  0.58323328962896
 1  20.85921565146515  3.07688777207721  1.51053149364937
=======
12 -7.23487406040604  0.60594934303430  0.14405209260926
 6 -4.88228284628463 -1.85996717511751  0.55233176587659
 6 -4.71915184408441  2.85990443774377  1.04265062996300
 6 -9.35572030753075  3.02724822032203 -0.33256611631163
 6 -9.56700701440144 -1.66906241724172 -0.77285371447145
 7 -5.06089951455145  0.43363318141814  0.66280669896990
 6 -4.38458816491649 -0.65920574257426  0.67915593879388
 6 -2.98412741814181 -0.33387281298130  1.22829318351835
 6 -3.04717815621562  1.13846651495150  1.66694742544254
 6 -4.42504949984998  1.52084283308331  1.00403743364336
 6 -2.89512459455946  1.27810009810981  3.20244165306531
 6 -1.94063752475248 -0.71414667606761  0.07126108440844
 6 -0.42940036263626 -0.49699404660466  0.44989911921192
 6  0.50669180638064 -0.63385689858986 -0.55464084458446
 8  0.23306454655466 -0.89680508810881 -1.73273960566057
 8  1.78492030253025 -0.34116151255125 -0.20935772467247
 7 -7.07159760766077  2.58715430523052  0.23568226372637
 6 -5.99544882388239  3.29503047884788  0.68345187878788
 6 -6.36578383148315  4.72668695809581  0.71964265146515
 6 -7.69306201320132  4.80867149864986  0.32532092339234
 6 -8.11304557615762  3.46302549784978 -0.02719017271727
 6 -5.48351630833083  5.91311377727773  1.22772753325333
 6 -8.51272907050705  5.97304833853385  0.19619660506051
 6 -8.38311220252025  7.11663778237824  0.80864711451145
 7 -9.10488276087609  0.67518037913791 -0.45232926662666
 6 -9.84336059575958  1.76763671677168 -0.71244756885689
 6 -11.15706480308031  1.47128546764676 -1.13668538803880
 6 -11.24473687758776  0.06822218631863 -1.20835954995500
 6 -9.92296797749775 -0.33577555185519 -0.84053907000700
 6 -12.28042686638664  2.38838940994099 -1.40009678447845
 6 -12.38248279457946 -0.73994140424042 -1.73232404090409
 6 -12.18720620902090 -1.30364277547755 -3.24144926352635
 7 -7.17450691899190 -1.41999161276128 -0.20102477947795
 6 -8.34454469426943 -2.23290846294629 -0.49466442164216
 6 -7.85009115471547 -3.59823809130913 -0.52311958925893
 6 -6.49091297539754 -3.54815915291529 -0.17026875877588
 6 -6.14691728812881 -2.19456773807381  0.06554935913591
 6 -8.74520198759876 -4.71860470287029 -0.94701317971797
 6 -5.28015248554855 -4.38404228772877  0.20058293089309
 8 -5.21147998589859 -5.50936541994199  0.18192522322232
 6 -4.08805238463846 -3.22257804760476  0.53423328862886
 6 -3.57400803170317 -3.65612083338334  1.85151552445245
 8 -3.91739333993399 -3.07071380758076  2.92106478757876
 8 -2.79116030973097 -4.64806952935294  1.85034361526153
 6 -2.33509409730973 -5.28560278937894  3.09733466896690
 6  2.81440395209521 -0.54231202580258 -1.17754895529553
 6  4.09525161416142 -0.44418259455946 -0.53215336433643
 6  5.12783626802680  0.31287755315532 -0.83155292799280
 6  5.06360478347835  1.25901855115512 -2.07995216051605
 6  6.40418475127513  0.31877372757276 -0.08291477667767
 6  7.63509104700470 -0.28296864376438 -0.88204515501550
 6  8.85751762436244 -0.31873700410041 -0.04080589338934
 6  10.21503212771277 -0.59669674137414 -0.75570654115412
 6  10.02770947114711 -2.00974191029103 -1.36312977797780
 6  11.45715859275928 -0.38580236103610  0.02018288688869
 6  12.78025293299330 -0.53637768886889 -0.74992501540154
 6  14.01602107050705 -0.18058926172617  0.17385445294529
 6  15.36982310721072 -0.17235096419642 -0.54770301010101
 6  15.88879054795479 -1.60916855065507 -0.94612423012301
 6  16.37871197709771  0.50137449744974  0.37158166536654
 6  17.86282087148715  0.60512191059106 -0.20338615321532
 6  18.78385875537554  1.30207842484248  0.67486791979198
 6  20.25547421662166  1.44132446594659  0.22308707190719
 6  20.36023737753775  2.07029532673267 -1.12884387708771
 6  21.10922185298530  2.12808574487449  1.29732509590959
 1 -3.89574105860586  3.57174269566957  1.30374496139614
 1 -10.14824521722172  3.73838467346735 -0.54120951245125
 1 -10.37602089148915 -2.47623696449645 -1.10891754395440
 1 -2.81994845174518 -1.05072338623862  2.03625431663166
 1 -2.25199880508051  1.51615519811981  1.15098574897490
 1 -1.99240369786979  0.75289574247425  3.64222793629363
 1 -3.08326338633863  2.21695575307531  3.63739590499050
 1 -3.69002244494449  0.75196988098810  3.76921933473347
 1 -2.19100158505851 -1.70249020942094 -0.35177908710871
 1 -1.92195386788679 -0.05559830943094 -0.62140217981798
 1 -0.19882339973997  0.62431704560456  0.79824022312231
 1 -0.19179698169817 -1.36817133233323  1.15418937413741
 1 -5.69895867126713  6.66762540664066  0.69894560376038
 1 -5.82609959935994  6.12172553565357  2.36790308740874
 1 -4.33515747174718  5.75595676207621  1.17828100370037
 1 -9.41303335583558  5.80308645674567 -0.28074830303030
 1 -9.23479469536954  7.80089082798280  0.58710833263326
 1 -7.57047651345135  7.29246564606461  1.56005439093909
 1 -12.16183028812881  2.91167149314931 -2.41210421512151
 1 -13.08316798599860  1.85698959015902 -1.36617780928093
 1 -12.17822955405541  3.33622227692769 -0.65430667466747
 1 -12.60748552695270 -1.41763120822082 -0.88339329422942
 1 -13.36106482538254 -0.08415515231523 -1.81402693019302
 1 -12.94059041164116 -1.89272395859586 -3.58791867636764
 1 -12.11026459065907 -0.53948848644864 -3.88704219991999
 1 -11.18435471477148 -1.97529239633963 -3.21737035703570
 1 -9.09488909190919 -4.41706244914491 -1.88268153225323
 1 -8.09899926472647 -5.67299730393039 -0.95797541054105
 1 -9.80759064396440 -4.93106812811281 -0.36209803240324
 1 -3.30219091499150 -3.29662291299130 -0.20784605610561
 1 -1.53921208770877 -4.64696113581358  3.73114602990299
 1 -3.10889049764976 -5.35364698229823  3.65925876477648
 1 -1.87379549104911 -6.39291856505651  2.85738969186919
 1  2.77852715681568 -1.40644248014801 -1.80311427642764
 1  2.72562003960396  0.11261554115411 -1.91638479067907
 1  4.14848575417542 -0.93225544074407  0.52887610361036
 1  4.04336329982998  1.46250496089609 -2.42503087278728
 1  5.63859927162716  2.25955621452145 -1.93862033023302
 1  5.61101840944094  0.82157326482648 -3.04233296429643
 1  6.59781184408441  1.29519351935194  0.27831047384738
 1  6.22514663406341 -0.16860489788979  0.81424114081408
 1  7.33982136683668 -1.34570380558056 -1.29984130773077
 1  7.84406684258426  0.24889809790979 -1.83290621422142
 1  8.76206825842584  0.68782666766677  0.30566819901990
 1  9.00610909960996 -0.89336484268427  0.99970783448345
 1  10.51370892229223  0.05064760246025 -1.62334722422242
 1  9.11021600710071 -2.18468644514451 -1.92165809060906
 1  10.82700525622562 -2.20701748564856 -2.02511675557556
 1  10.11923480948095 -2.59473141514151 -0.48815825552555
 1  11.44070175107511  0.68472070227023  0.36176766426643
 1  11.55431848524853 -0.94769073037304  0.93466408800880
 1  12.94900821972197 -1.64261242244224 -1.06811447904790
 1  12.94636838933893 -0.07478678767877 -1.72539590089009
 1  13.69167060376038  0.66170872687269  0.54989233223322
 1  14.09226197929793 -0.94609421412141  0.92680919741974
 1  15.31846513501350  0.29293877887789 -1.60508486648665
 1  15.74987243014301 -2.18046833893389 -0.01257271117112
 1  15.32027507820782 -1.85369774537454 -1.88065548064806
 1  16.70661029042904 -1.49944546944694 -1.62126359585959
 1  15.86231143184318  1.45134296799680  0.81823836813681
 1  16.37710215741574 -0.17344651975198  1.34831759295930
 1  18.30806174487449 -0.60863741114111 -0.25319866026603
 1  17.99484654915492  1.11636895579558 -1.32745632143214
 1  18.34573536613661  2.24017817551755  0.95789379467947
 1  18.81571873217322  0.61061524252425  1.45345534583458
 1  20.63170808350835  0.34060020822082  0.15548261226123
 1  19.84052815941594  3.04332789468947 -0.98887248064807
 1  21.44274852695269  2.25118177097710 -1.15133649694969
 1  20.01348525292530  1.46349816061606 -1.93187015601560
 1  20.88531450665067  1.76719482858286  2.29144876207621
 1  22.20674238053805  2.08042927262726  1.07962292859286
 1  20.59641937183719  3.21974205750575  1.08717915841584
>>>>>>> 8e03b5b5abfc0030b3aa597dc0de36371bfbd096

