%nproc=4
%Mem=3GB
# td=(NStates=1) iop(3/107=0140000000,3/108=0140000000) CAM-B3LYP/6-31G(d,p) 

TD

0 1
12 -7.14556924862486  0.60155853935394  0.09599596959696
 6 -4.87840665716572 -1.87663489408941  0.48587398979898
 6 -4.74758078867887  2.88278699659966  1.04161426662666
 6 -9.41386815131513  3.05736328932893 -0.37831030633063
 6 -9.47757385538554 -1.70712247794779 -0.90999780468047
 7 -5.07843487468747  0.50782687328733  0.82548037203720
 6 -4.36140838813881 -0.64904604780478  0.72419031373137
 6 -2.92874909550955 -0.31901029902990  1.22072774187419
 6 -2.99099232613261  1.02405110671067  1.64439071837184
 6 -4.42021225592559  1.55440009110911  1.19505389928993
 6 -2.77154333513351  1.27538035733573  3.11909722432243
 6 -1.94264999469947 -0.62138812801280  0.14715852615262
 6 -0.40126583578358 -0.53400664866487  0.71875525782578
 6  0.52562448564856 -0.73042966486649 -0.37767755785579
 8  0.15736595339534 -0.93194697239724 -1.56761415451545
 8  1.85918451685169 -0.69550948934893  0.01691630403040
 7 -7.09526717011701  2.65037824772477  0.29353027712771
 6 -6.03908405220522  3.40065383278328  0.67393326942694
 6 -6.38474338273827  4.79990685428543  0.69054731343134
 6 -7.77494227952795  4.92540434563456  0.41880800720072
 6 -8.17779730723072  3.49990692949295  0.11965996459646
 6 -5.45305733963396  5.96108558225823  1.17190734593459
 6 -8.65584559255926  6.07262753235324  0.23841445394539
 6 -8.36315472547255  7.25902505220522  0.84041810111011
 7 -9.11341038213821  0.62181917631763 -0.51139771367137
 6 -9.89167665396540  1.76626995129513 -0.61321413491349
 6 -11.23616756945695  1.43950339483948 -1.11336619631963
 6 -11.24057354455445  0.11410895669567 -1.37438746704670
 6 -9.87291489508951 -0.37562775617562 -0.95105730703070
 6 -12.33774471217122  2.44687992939294 -1.50836028872887
 6 -12.39088288118812 -0.72190831463146 -1.69623895449545
 6 -12.25902781168117 -1.35634582688269 -3.14546519771977
 7 -7.18617157955796 -1.38300313601360 -0.19839251435144
 6 -8.23543787008701 -2.17186573207321 -0.55169674957496
 6 -7.81099313911391 -3.60298084948495 -0.53662396219622
 6 -6.49047683818382 -3.54029701180118 -0.11067314901490
 6 -6.19479321102110 -2.17080503630363  0.00077191259126
 6 -8.61514385388539 -4.84405050345034 -0.79307269036904
 6 -5.42191765466547 -4.39167273067307  0.16105107920792
 8 -5.20931192349235 -5.59249610661066  0.08874482308231
 6 -4.22802730533053 -3.27446489388939  0.48848717031703
 6 -3.54125830263026 -3.57123506620662  1.88243421192119
 8 -3.82781556495650 -3.08547590549055  2.94587794599460
 8 -2.57348270107011 -4.57117573607361  1.59017805530553
 6 -2.00307926492649 -5.10370557645765  2.86912431283128
 6  2.90675699609961 -0.81448973787379 -1.01279479667967
 6  4.30470135533553 -0.49732500040004 -0.42997556035604
 6  5.20045553685368  0.37216374437444 -0.93329620662066
 6  4.98788251385138  1.19273694899490 -2.21494562956296
 6  6.37943422212221  0.62429304530453 -0.11626215061506
 6  7.62586403900390 -0.00549909790979 -0.95548587728773
 6  8.96986469806981 -0.04278609470947 -0.20819692209221
 6  10.17538299889989 -0.45571723492349 -0.85996171617162
 6  10.00241351795180 -2.02251013091309 -1.28253521952195
 6  11.42118678247825 -0.35500039113911 -0.05305326782678
 6  12.86615435093509 -0.61172120562056 -0.81944945004500
 6  13.96994826662666 -0.17951366566657  0.08549496109611
 6  15.29941593259326 -0.12438152175218 -0.67152280478048
 6  15.62149842084209 -1.59015740404040 -1.12007383368337
 6  16.36268326102610  0.28207472477248  0.36231096579658
 6  17.77767535523552  0.33629735933593 -0.20470699769977
 6  18.70629104770477  1.12904098259826  0.73164642134213
 6  20.14103690809081  1.31729116161616  0.31041774777478
 6  20.24065691149115  2.15099240434043 -0.92816751265126
 6  20.97809287628763  1.87551925182518  1.43940788078808
 1 -4.03248361186119  3.59742299369937  1.32424852065207
 1 -10.05920804410441  3.87793006750675 -0.56082060826083
 1 -10.19114353845385 -2.49624515961596 -1.08489630903090
 1 -2.72445973317332 -1.01105130783078  1.95657214791479
 1 -2.20004347064706  1.54338639973997  1.15005865486549
 1 -1.82677576397640  0.65665477187719  3.40150048744874
 1 -2.78376548564856  2.36366558935894  3.23430145234523
 1 -3.63907670817082  1.03304845914592  3.78298998419842
 1 -1.91694681368137 -1.68053872467247 -0.21900990809081
 1 -2.03941031003100 -0.05509788998900 -0.67263399799980
 1 -0.46701212991299  0.51205079237924  1.19602346534653
 1 -0.32691111141114 -1.22307307390739  1.50205366366637
 1 -5.70577475517552  6.79185669766977  0.55264509580958
 1 -5.53383485478548  6.25257813921392  2.15741775427543
 1 -4.42838768336834  5.41840610861086  0.82098283088309
 1 -9.44478473827383  5.84372775477548 -0.61527287998800
 1 -9.15826489018902  8.05213493449345  0.59937971367137
 1 -7.42821075317532  7.13728056445645  1.46627558785879
 1 -12.11350182318232  3.12741188828883 -2.40998683018302
 1 -13.29336663436344  1.90640938333833 -1.79323505170517
 1 -12.52270330303030  2.95441277537754 -0.49859029852985
 1 -12.41960392529253 -1.57830875367537 -0.96103960486049
 1 -13.39575187428743 -0.37060977147715 -1.78777453185319
 1 -13.23966916611661 -1.99094275637564 -3.24441539963996
 1 -12.31092149784978 -0.60396886818682 -3.80272925132513
 1 -11.30834567396739 -1.97183821102110 -3.32877115531553
 1 -9.01402602120212 -4.69913641444144 -1.79575563856386
 1 -7.73963834903490 -5.77603355665567 -0.85478543364336
 1 -9.39001318031803 -4.97393584198420 -0.15388765746575
 1 -3.40749826832683 -3.52777938353835 -0.26866460456046
 1 -1.46854024162416 -4.40131234463446  3.38939065666567
 1 -2.85960239753975 -5.47630715561556  3.56269730743074
 1 -1.28427894839484 -5.88930971577158  2.32927628872887
 1  2.92869092389239 -1.97713433623362 -1.35597704640464
 1  2.32797923922392 -0.26110802600260 -1.93321437893789
 1  4.31656214291429 -0.92251066486649  0.56635803600360
 1  4.09671498299830  1.08227377007701 -2.69826031173117
 1  5.04649158135814  2.40435085898590 -2.13168060646065
 1  5.75372494099410  0.91795298619862 -2.88185444234423
 1  6.75375355925593  1.64318429902990  0.15433504740474
 1  6.25817368946895 -0.03988132483248  0.76830302580258
 1  7.36102822562256 -1.04787546054605 -1.50028478567857
 1  7.80087264576458  0.63386248924892 -1.86033685658566
 1  9.20069611391139  0.94994449194919  0.12733516161616
 1  8.76730985178518 -0.36582493519352  0.74571069446945
 1  10.29006363816382  0.06440258805881 -1.97566272427243
 1  8.96678628772877 -2.32910119361936 -1.57619600150015
 1  10.65378451905191 -2.26842024132413 -2.14215957405741
 1  10.38026022312231 -2.55867998269827 -0.49405679937994
 1  11.42601424302430  0.77164359775978  0.32510028082808
 1  11.60921851735174 -1.10937223482348  0.78950527062706
 1  13.03871182368237 -1.58031545084508 -1.24600687218722
 1  12.89364519441944 -0.04364942894289 -1.74006834053405
 1  13.70779219951995  0.82127749104911  0.31172600130013
 1  14.00960927152715 -0.50386676557656  1.17052942694269
 1  15.31509191059106  0.35860925792579 -1.53934520332033
 1  15.67128092489249 -2.28621796299630 -0.20760889638964
 1  15.05511715611561 -2.09408392839284 -1.69271064456446
 1  16.47738601820182 -1.74929582658266 -1.75281179447945
 1  16.07752102560256  1.27901623532353  0.73668958525853
 1  16.42880695849585 -0.41773805860586  1.22721121582158
 1  18.07110384808481 -0.65334184818482 -0.35688588418842
 1  17.82030934053405  0.92063095719572 -1.07586332993299
 1  18.31751080798080  2.27768903690369  1.26370831763176
 1  18.68502446494649  0.68212305180518  1.64101734723472
 1  20.37037686998700  0.20661165876588  0.10486637883788
 1  19.91587840634064  3.25645642214221 -0.91484366906691
 1  21.32867666846685  2.33537467956796 -1.30751873307331
 1  19.80253865146515  1.65669595979598 -1.79074745914591
 1  20.88584243774377  1.30203584448445  2.35891956075608
 1  22.24706259905991  1.84990546124612  1.24018067166717
 1  20.94838491699170  2.99388550575057  1.57901503820382

