%nproc=4
%Mem=2GB
# td=(NStates=1) CAM-B3LYP/6-31G(d,p) 

TD

0 1
12 -7.16524709770977  0.60750949904991  0.03282096949695
 6 -4.82404702270227 -1.97957913631363  0.49483601630163
 6 -4.83557348624863  2.82099054635464  1.11097746264626
 6 -9.41910664616462  3.17814330983098 -0.33033589328933
 6 -9.60922123582358 -1.75740125112511 -0.78621505060506
 7 -5.15418884348435  0.40880069816982  0.74734515281528
 6 -4.37172687878788 -0.69870969296930  0.81363938713871
 6 -2.96025503090309 -0.35880530623062  1.22187254145415
 6 -3.01597503590359  1.12930559885989  1.65789652035204
 6 -4.39241623652365  1.50234098289829  1.10858788868887
 6 -2.97641272337234  1.22241452955296  3.20812222112211
 6 -1.93274673567357 -0.60557581898190  0.07682164046405
 6 -0.43745116771677 -0.49518386558656  0.56779090839084
 6  0.51438257545755 -0.71246475937594 -0.65648102860286
 8  0.18243948404840 -0.90423583118312 -1.75310164186419
 8  1.81983379387939 -0.61024842124212 -0.21354814371437
 7 -7.26758720662066  2.61119670947095  0.35865456095610
 6 -6.13022230123012  3.32907388318832  0.73148668226823
 6 -6.40305755885588  4.69834412381238  0.75957664486449
 6 -7.69802250925092  4.86859749124913  0.25201359265927
 6 -8.23659793139314  3.47725692099210  0.08605115141514
 6 -5.49669762646265  5.81216368226823  1.01081584208421
 6 -8.47106490409041  6.06836787048705  0.02626961236124
 6 -8.43065695699570  7.21960807940794  0.64320056985699
 7 -9.13776604920492  0.71967482858286 -0.50306434013401
 6 -9.89647590729073  1.82603255635564 -0.55276160026003
 6 -11.23675277187719  1.58018635773577 -1.02839455895590
 6 -11.34746715061506  0.17057242134213 -1.11728044204420
 6 -10.00588626932693 -0.42729470377038 -0.85589060516052
 6 -12.43066188988899  2.43843441444144 -1.36820359515952
 6 -12.43353790009001 -0.88697610771077 -1.64693550205021
 6 -12.34789227762776 -1.03339575077508 -3.16131124972497
 7 -7.25908537683768 -1.41684129772977 -0.21696637363736
 6 -8.27717795759576 -2.25192036413641 -0.63445840104010
 6 -7.88919506510651 -3.66914518201820 -0.51919919721972
 6 -6.51358524262426 -3.58175251225123 -0.14901663356336
 6 -6.19092168856886 -2.20043832513251 -0.03350054585459
 6 -8.55614308170817 -4.87594043644364 -0.79826830523052
 6 -5.32173664396440 -4.32742662616262  0.12575544814481
 8 -5.12697153505351 -5.54219870327033  0.10130716141614
 6 -4.21709528892889 -3.33659944974497  0.60344020932093
 6 -3.53723435433543 -3.68846406770677  1.90883125602560
 8 -3.67546914751475 -3.16330306650665  3.01516419751975
 8 -2.74942613631363 -4.67698242064206  1.63504208510851
 6 -2.11363195109511 -5.23194742384238  2.88949388488849
 6  2.79258176987699 -0.74635242984298 -1.30232143254325
 6  4.09809189818982 -0.50880905720572 -0.53285343434343
 6  5.06106959135914  0.38955522092209 -0.94100387308731
 6  5.16681510451045  1.17586023532353 -2.18742290759076
 6  6.29082341514151  0.49143099329933  0.01884539933993
 6  7.66701423932393 -0.08336868376838 -0.77570452095210
 6  8.95059693229323 -0.07429255965597  0.00354854205421
 6  10.25075570007001 -0.58232530423042 -0.79765073557356
 6  10.13372007220722 -1.99787072317232 -1.11282474747475
 6  11.44515739263927 -0.20844462526253  0.06865773437344
 6  12.73875878357836 -0.33908795989599 -0.78309833273327
 6  13.96446591499150 -0.04159536233623  0.13630069756976
 6  15.42791891679168 -0.14920864996500 -0.48956719651965
 6  15.63540520942094 -1.63265089888989 -0.81326094379438
 6  16.49679378527853  0.43027738773877  0.39941444864486
 6  17.86622121152115  0.53408480688069 -0.20225604020402
 6  18.95639600910091  1.32649086608661  0.69834026702670
 6  20.33549221842184  1.28959929342934  0.21877664086409
 6  20.42715406920692  2.11213951115112 -1.14935592829283
 6  21.35081601240124  1.80752368866887  1.19602496589659
 1 -4.09498098259826  3.61895741714171  1.48464305120512
 1 -10.18156854955496  3.81432226722672 -0.51964735623562
 1 -10.16660995039504 -2.62181152195219 -1.13404005620562
 1 -2.67218367526753 -0.94966328022802  1.98834952615261
 1 -2.18985259045905  1.53106668926893  1.32628327872787
 1 -1.82726718421842  0.80034048694869  3.36021973547355
 1 -3.13511857185719  2.42018607610761  3.52463462886289
 1 -3.64318776147615  0.63841852585259  3.73666607940794
 1 -2.10284276917692 -1.68681864226423 -0.40520442964296
 1 -2.22727439993999  0.24568181858186 -0.73273331293129
 1 -0.29405292269227  0.63328794269427  0.87877827692769
 1 -0.37569537153715 -1.18232274747475  1.29485344054405
 1 -5.35639441484148  6.56469511361136  0.31636734593459
 1 -5.59487647704770  6.24107747084708  2.09237553465347
 1 -4.44183813981398  5.40953211961196  0.86301947754776
 1 -9.49110116261626  6.09770591869187 -0.70282051025103
 1 -8.98616983288329  8.12397313621362  0.27566718851885
 1 -7.58537800360036  7.30911731123112  1.33892227772777
 1 -12.17616172127213  2.84787511351135 -2.43088609330933
 1 -13.44250391959196  2.10745463666367 -1.27331852335234
 1 -12.24005573667367  3.27209586428643 -0.57134837883788
 1 -12.12131691009101 -1.74464390949095 -1.28666362126213
 1 -13.25863458235824 -0.38642537933793 -1.25161068856886
 1 -13.25671202380238 -1.78391307750775 -3.19797968246825
 1 -12.54430799499950 -0.17037157475748 -3.81114461016102
 1 -11.27170344964497 -1.43765863296330 -3.49443806380638
 1 -8.96264586758676 -4.99594033693369 -1.83175643974397
 1 -8.09036840164016 -5.77846785098510 -0.53669328232823
 1 -9.52025191009101 -5.15912093339334 -0.31434325692569
 1 -3.37504820072007 -3.35989924062406 -0.19066433793379
 1 -1.54155232173217 -4.44335077477748  3.64750766606661
 1 -2.78900850945095 -5.60357197479748  3.49751259015902
 1 -1.46999511101110 -6.07409668286829  2.57301125402540
 1  2.75268457255726 -1.75781761766177 -1.62584654965497
 1  2.55266274387439  0.01323560316032 -1.96211936413641
 1  4.15083598919892 -0.95297751295129  0.43639685568557
 1  4.28836780028003  1.28203691409141 -2.82695106480648
 1  5.38432384408441  2.22928318721872 -1.92140860906091
 1  5.85812311991199  0.65513662116212 -2.65007373837384
 1  6.70979304220422  1.50110411041104  0.20150279307931
 1  6.19259337873787 -0.19124716211621  0.99273899059906
 1  7.49821720642064 -1.19248848404840 -0.98523984758476
 1  7.99455189108911  0.50412362046205 -1.57853077667767
 1  9.14383643524352  1.02111999699970  0.54652228442844
 1  8.71468995769577 -0.61459696589659  0.91483934763476
 1  10.16087363876388  0.10112264996500 -1.74696958645865
 1  9.50951593709371 -2.23265124162416 -1.98586451125113
 1  11.12302485818582 -2.31127791169117 -1.35709995389539
 1  9.82541542754276 -2.67240918291829 -0.21731117081708
 1  11.43568124902490  0.80740297049705  0.70630211771177
 1  11.51871492489249 -0.99532549384938  0.72179280088009
 1  12.78444176307631 -1.43469163036304 -1.01984965256526
 1  12.78693244574457  0.32025271627163 -1.80213357465747
 1  13.74224566126613  0.95597815381538  0.71731907490749
 1  13.98899165226523 -0.77281688638864  0.82152866936694
 1  15.62415570407041  0.42152163716372 -1.50544490249025
 1  15.83721116401640 -2.41587187928793  0.09087763386339
 1  14.82807585828583 -2.27810018561856 -1.32649006410641
 1  16.52796242564257 -1.90159568446845 -1.41537300680068
 1  16.02253745444544  1.32171000470047  0.68430497479748
 1  16.59273372057206 -0.11171034613461  1.38166092729273
 1  18.33466440514051 -0.48125467286729 -0.59449278967897
 1  17.82841990649065  0.95850316921692 -1.10485406120612
 1  18.48812960556056  2.34835899359936  0.69782778807881
 1  18.75276243654366  0.73693787478748  1.57934793509351
 1  20.41439635233523  0.15454160236024 -0.16615955195520
 1  20.09091319791979  3.29372293419342 -0.77514110751075
 1  21.45186943904391  2.18967562036204 -1.56058742204220
 1  19.83283718811881  1.82739455025503 -1.91446841584158
 1  21.12786876207621  1.44307241634163  2.26026564376438
 1  22.52622432873287  1.50170139983998  0.85400036633663
 1  21.18180791069107  2.81986206950695  1.46221666216622

