%nproc=4
%Mem=2GB
# td=(NStates=1) CAM-B3LYP/6-31G(d,p) 

TD

0 1
<<<<<<< HEAD
12 -7.07918849184918  0.56071481958196  0.09073676107611
 6 -4.98660327832783 -1.92518369676968  0.51648818151815
 6 -4.77467739663966  2.78859730703070  1.25444180908091
 6 -9.36150088558856  3.19720521602160 -0.47596045574557
 6 -9.51327164086409 -1.70531604260426 -0.85957238633863
 7 -5.09360278487849  0.37534735283528  0.64927534583458
 6 -4.30550025612561 -0.74497431943194  0.85777380058006
 6 -2.90133913931393 -0.42644206990699  1.17972832703270
 6 -3.10393383178318  0.99226189448945  1.74875560626063
 6 -4.39057605250525  1.45158590739074  1.24618164806481
 6 -2.90288537063706  1.15775806390639  3.29421082998300
 6 -1.91100456145615 -0.69576483788379  0.05989994829483
 6 -0.44198162076208 -0.51873622082208  0.51623575287529
 6  0.52009314651465 -0.75249876277628 -0.58819419991999
 8  0.23397463756376 -1.17036244384438 -1.72417874957496
 8  1.84091590209021 -0.38765616201620 -0.17853464236424
 7 -7.04406485438544  2.65231082088209  0.21567026252625
 6 -5.99586886588659  3.29273024882488  0.86949048264826
 6 -6.27982523562356  4.77948223762376  0.84275496269627
 6 -7.58378108510851  4.84630526202620  0.35452384368437
 6 -8.00358463006301  3.47938713401340 -0.10388784248425
 6 -5.46225418211821  5.86168863476348  1.27825258575858
 6 -8.46930472807281  5.98519955365537  0.18153513891389
 6 -8.51049494079408  7.18161428002800  0.78948519831983
 7 -9.04842711531153  0.71220408150815 -0.65062909660966
 6 -9.83429968966897  1.85681563466347 -0.82896922102210
 6 -11.14869396599660  1.50760910001000 -1.26261798129813
 6 -11.20168257215722  0.17667303140314 -1.45669438343834
 6 -9.91024670537054 -0.39445141944194 -0.92958797489749
 6 -12.19218804250425  2.56689726072607 -1.53043981878188
 6 -12.36060060636064 -0.70132754285429 -1.79492030053005
 6 -12.23200068846885 -1.14601701290129 -3.25991110971097
 7 -7.16580604890489 -1.39303891749175 -0.26877155415542
 6 -8.26866710651065 -2.24575974807481 -0.49531448664866
 6 -7.87325347094709 -3.58550681818182 -0.43423070037004
 6 -6.58617250135014 -3.53302763976398  0.01089935803580
 6 -6.19550214661466 -2.16684496579658  0.17194999919992
 6 -8.58687615501550 -4.77395023742374 -0.78466694509451
 6 -5.42353682398240 -4.39353323682368  0.22319519211921
 8 -5.24668350625062 -5.61911639503950  0.19731676237624
 6 -4.28551213061306 -3.36098188798880  0.65076494179418
 6 -3.56600723162316 -3.74448967026703  1.95263563646365
 8 -3.75289689028903 -3.18812554875488  3.04421710281028
 8 -2.71296248994899 -4.74221894429443  1.71377995889589
 6 -2.16365695359536 -5.23801803090309  2.93720865636564
 6  2.80186269796980 -0.58524631923192 -1.21407260766077
 6  4.03533562256226 -0.33332150845085 -0.54199434843484
 6  5.13887737213721  0.41242750815082 -1.02764253695370
 6  4.99713813681368  1.09334198349835 -2.27312147744774
 6  6.44449878267827  0.57993984418442 -0.21908839403940
 6  7.61697923582358  0.03420307340734 -0.87945489598960
 6  8.81836370897090 -0.05881101150115 -0.01439325212521
 6  10.17662828732873 -0.56133320502050 -0.71642261276128
 6  10.08716541674167 -1.99875081118112 -1.26893035803580
 6  11.40527340424042 -0.22711649244924  0.10544141274127
 6  12.69735464316432 -0.50469452055206 -0.62326234913491
 6  13.95976544494449  0.00882968016802  0.24327139463946
 6  15.33214933983398 -0.24866859595960 -0.46538477827783
 6  15.60497216611661 -1.66855448924892 -0.76080569826983
 6  16.45743984988499  0.48910327032703  0.40186469366937
 6  17.83981857125713  0.40408180658066 -0.30122593719372
 6  18.68598896839684  1.26963518051805  0.51710214321432
 6  20.11214988418842  1.35039537303730  0.09156391959196
 6  20.30048140194020  2.18218651585159 -1.20452144484448
 6  21.01328225902590  1.99104204050405  1.18655401880188
 1 -4.15887737223722  3.34982050345035  1.85536012291229
 1 -10.12387277997800  3.89351018601860 -0.43344873637364
 1 -10.20374366376638 -2.64049339013901 -1.16684333653365
 1 -2.61272772967297 -1.02588090199020  2.05551624282428
 1 -2.32238584378438  1.55963954655466  1.33257390779078
 1 -2.08352280978098  0.75148560146015  3.86847056055606
 1 -3.01622668266827  2.28572262976298  3.77645981138114
 1 -3.68970241294129  0.61840652465247  3.91447386018602
 1 -1.98065054995500 -1.59448940934093 -0.34174808400840
 1 -1.96373804630463 -0.01825457505751 -0.71700173977398
 1 -0.14342786018602  0.33825843974397  0.83378377747775
 1 -0.12900070207021 -1.16567108230823  1.26743069826983
 1 -5.70387916331633  6.71371001510151  0.61422713191319
 1 -5.44230121952195  6.26976033913391  2.32133843094309
 1 -4.44477843384339  5.54086525292529  1.35536871247125
 1 -9.13613566606661  5.73698984708471 -0.60023025122512
 1 -9.45838705460546  7.84769550845084  0.76033565536554
 1 -8.03213267906791  7.56382278177818  1.66674506000600
 1 -12.15118922402240  3.00886121212121 -2.47268027272727
 1 -13.26056572577258  2.16661055225523 -1.39551074257426
 1 -12.09398112921292  3.48813746844684 -0.75086633063306
 1 -12.25773055145515 -1.46343578867887 -1.00220517541754
 1 -13.30948966786679 -0.22606934373437 -1.47776330383038
 1 -13.00209656225623 -1.91754644084408 -3.57687757225723
 1 -12.41208477267727 -0.36629116671667 -4.14453794949495
 1 -11.36606288558856 -1.50818568566857 -3.51661028102810
 1 -9.08413801680168 -4.63216395929593 -1.78486175027503
 1 -7.94295366016602 -5.68026803100310 -0.47224683768377
 1 -9.43415330023002 -4.86378139943994 -0.27842966556656
 1 -3.36044674057406 -3.32512576327633 -0.29297456895690
 1 -1.59677784428443 -4.41569800950095  3.31316423172317
 1 -2.89250885948595 -5.57246886448645  3.65196803570357
 1 -1.54913302480248 -6.09756903010301  2.81320527342734
 1  2.66280558465847 -1.58268010391039 -1.58987295229523
 1  2.69337681528153  0.10691497109711 -2.01094424662466
 1  4.19306021162116 -0.83599581478148  0.42983619961996
 1  3.93616257975798  1.24649335973597 -2.74093246294630
 1  5.37759317101710  2.06421668056806 -2.24742121032103
 1  5.51997930553055  0.73163427092709 -2.92325105610561
 1  6.50885294819482  1.67472147214722  0.05279792259226
 1  6.36834095349535  0.02298426102610  0.71477119381938
 1  7.32303968866887 -1.08764800000000 -1.22497382098210
 1  7.98062049794979  0.53578678677868 -1.64575749934994
 1  8.83628568016802  0.88678656365637  0.41201883408341
 1  8.70919940864087 -0.80351585778578  0.70959882358236
 1  10.39634718611861 -0.01967943024302 -1.64687957745775
 1  9.32688767426743 -2.29651762826283 -2.04849077387739
 1  11.20855341104110 -2.36185296919692 -1.48588283218322
 1  9.66293917991799 -2.54823676567657 -0.31812125182518
 1  11.16115379627963  0.80637286748675  0.33777526502650
 1  11.56451950535054 -0.91281724302430  1.11222184378438
 1  12.86815013391339 -1.40646880808081 -0.83036070367037
 1  12.77781153365336  0.04873556455646 -1.60603396469647
 1  13.92256369306931  1.09823237923792  0.49901724472447
 1  13.94554730783078 -0.66790639533953  1.13093961046105
 1  15.20111339983998  0.35247473247325 -1.31581593959396
 1  15.94704214711471 -2.37084737683768  0.18311685778578
 1  14.90813386408641 -2.30835321092109 -1.20138755385539
 1  16.56185581498150 -1.61387691259126 -1.49418088758876
 1  16.02823802450245  1.64474230793079  0.45340188448845
 1  16.66870131733173  0.06830765566557  1.28407116831683
 1  18.15095603430343 -0.71925847324732 -0.37651099149915
 1  17.77306437093710  0.70708802770277 -1.38925250105011
 1  18.33517431003100  2.41457561526153  0.86063406870687
 1  18.77787494779478  0.89328350935093  1.51916191649165
 1  20.54529944264426  0.49049519771977 -0.14143707970797
 1  20.16762086868687  3.28623218511851 -0.81118471187119
 1  21.37360161226123  2.08504515731573 -1.47623898719872
 1  19.50075397979798  1.93930574137414 -2.07851482048205
 1  21.13161913711371  1.29909801890189  2.11647126432643
 1  22.11431313761376  1.98909013871387  0.79623458975898
 1  20.78931866176618  2.89974005730573  1.41140158065807
=======
12 -7.16597717071707  0.59255800390039  0.14959264666467
 6 -4.87946256425643 -1.92487366576658  0.50122665536554
 6 -4.72467239613961  2.91085953325333  1.05737210211021
 6 -9.34095883138314  3.12420791629163 -0.37901076077608
 6 -9.61909222292229 -1.73108861986199 -0.80445687478748
 7 -5.09797322192219  0.44227404550455  0.69095951425143
 6 -4.32744245034503 -0.66992681468147  0.78795681888189
 6 -3.03663266866687 -0.27311673737374  1.12683303750375
 6 -3.01970540894089  1.10125279357936  1.68812954365437
 6 -4.36763375827583  1.60078082688269  1.05328235813581
 6 -2.86238132023202  1.14325661376138  3.20128153705371
 6 -1.96366982798280 -0.65600086148615  0.05624958325833
 6 -0.46618404100410 -0.49007335453545  0.39700382968297
 6  0.54145528272827 -0.72639615251525 -0.60554593509351
 8  0.20704194429443 -1.16111151875188 -1.71185751745174
 8  1.71668347884788 -0.49196659305931 -0.27606439533953
 7 -7.11905235313531  2.67888347814781  0.30716941244124
 6 -6.06179545854585  3.37315829162916  0.75227876147615
 6 -6.30790804390439  4.77951224062406  0.73893458065807
 6 -7.65213792079208  4.90459109060906  0.26228461976198
 6 -8.15218949054906  3.47449664496450  0.00300284658466
 6 -5.33318127482748  5.88495096099610  1.10971573207321
 6 -8.43512130973097  6.08188922262226  0.12346933233323
 6 -8.45443933523352  7.29296541514151  0.86663291309131
 7 -9.13677595019502  0.70551341244124 -0.42726676037604
 6 -9.83890014971497  1.81209116221622 -0.67763408750875
 6 -11.16800589718972  1.46849518861886 -1.08181990149015
 6 -11.24327673157316  0.22362772687269 -1.22552126612661
 6 -10.00147582828283 -0.40704267856786 -0.75843085918592
 6 -12.25796462016202  2.52351292229223 -1.42215899069907
 6 -12.47707225352535 -0.62343975407541 -1.62637344584458
 6 -12.25848333673367 -1.20008241944194 -3.08718383698370
 7 -7.27551702000200 -1.33178279187919 -0.01562623962396
 6 -8.31920216001600 -2.20332550465046 -0.50469542474247
 6 -7.80252639823982 -3.54541280878088 -0.40562784008401
 6 -6.52811669576958 -3.50078441544154 -0.04908664056406
 6 -6.19689228562856 -2.14168244954495  0.01014381858186
 6 -8.56345381278128 -4.80694353675368 -0.67574605300530
 6 -5.32298676897690 -4.40304418791879  0.15022789538954
 8 -5.20425926382638 -5.60882536593659  0.08321535223522
 6 -4.18643222262226 -3.29814560436044  0.50020988628863
 6 -3.57016764766477 -3.81501672297230  1.80904127702770
 8 -3.81256285688569 -3.35611234743474  2.97178986008601
 8 -2.64952614631463 -4.80052477487749  1.69854843574357
 6 -2.08470905880588 -5.24527875697570  2.92232716821682
 6  2.75922843454345 -0.81572936753675 -1.25026622702270
 6  4.08069015801580 -0.52846102240224 -0.66901705070507
 6  5.11113459785979  0.24239050445045 -1.12184195689569
 6  5.02357078007801  1.13731638093809 -2.30960512581258
 6  6.42232656545655  0.27868971917192 -0.29233571877188
 6  7.65616315421542 -0.30891123802380 -1.07109405990599
 6  8.95074694729473 -0.15808093849385 -0.34725653845385
 6  10.19456008050805 -0.62364943664366 -0.98042901340134
 6  10.12230893109311 -2.24739567566757 -1.30979444444444
 6  11.38920179707971 -0.27295107590759 -0.10239937133713
 6  12.80120502820282 -0.55608966006601 -0.70856087898790
 6  13.92387185558556 -0.03635483828383  0.24566163366337
 6  15.37657378227823 -0.15597932703270 -0.40043828362836
 6  15.72110377927793 -1.62278991279128 -0.79234885258526
 6  16.42376648254826  0.41399575957596  0.50889539673967
 6  17.84376896629663  0.58894029242924 -0.09467528212821
 6  18.68897926742674  1.46972518951895  0.78684911791179
 6  20.16115478467847  1.49676000950095  0.37170193339334
 6  20.34975632943294  2.26301459865987 -0.99460045274527
 6  21.10590152095210  2.19969290559056  1.37396275967597
 1 -4.06060754525453  3.53925944734473  1.55661024792479
 1 -10.19719011171117  3.95024585958596 -0.85841123262326
 1 -10.59368265766577 -2.31069040984098 -0.86565321752175
 1 -2.70696715361536 -0.80126844074407  2.06279697089709
 1 -2.22566617181718  1.60267384998500  0.90151080148015
 1 -1.86113057055706  0.89083953685368  3.70401411491149
 1 -2.89976503650365  2.14911896939694  3.68346051145115
 1 -3.55857930063006  0.50844552855286  3.61031344414441
 1 -2.02760524542454 -1.40451041144114 -0.45349925912591
 1 -2.09641131363136  0.25055230563056 -0.76322636223622
 1 -0.42675619301930  0.65368998289829  0.72709310841084
 1 -0.31082888488849 -1.13958847404740  1.31976593179318
 1 -5.73714248964897  6.71208985308531  0.40768647784778
 1 -5.50880787018702  5.92977634073407  2.16061235833583
 1 -4.25455941194119  5.65691685808581  0.83557673327333
 1 -9.06511856435644  6.19809595769577 -0.81540176837684
 1 -9.14980619651965  8.13903464236424  0.68006762856286
 1 -7.74873433923392  7.31099749924993  1.62683106860686
 1 -11.99088319341934  2.74555488148815 -2.52107511221122
 1 -13.11475114431443  2.00636452765276 -1.18300949244924
 1 -12.03661539263926  3.52990164486449 -0.82011325532553
 1 -12.59141391979198 -1.45328477357736 -0.85820077497750
 1 -13.36985570447045 -0.05274201100110 -1.42298782628263
 1 -13.33189954255426 -1.61867655385539 -3.42364224872487
 1 -12.31832539673967 -0.49250378797880 -3.74791828752875
 1 -11.24623090239024 -1.75047991509151 -3.32419103910391
 1 -8.87028663166317 -4.78152889578958 -1.53676694079408
 1 -7.97914727952795 -5.76933693789379 -0.61552116511651
 1 -9.21865175007501 -4.92909793109311  0.20819899729973
 1 -3.37628832473247 -3.47980123082308 -0.31966723822382
 1 -1.43207137363736 -4.34824126382638  3.34680759605961
 1 -2.98428803740374 -5.24259587718772  3.71825466436644
 1 -1.42665077657766 -6.18923819701970  2.90006395929593
 1  2.47488679277928 -1.99039087498750 -1.31339530453045
 1  2.54814229182918 -0.47049276967697 -2.28868202040204
 1  4.07334824042404 -0.88006022122212  0.27657087308731
 1  4.00264922842284  1.32949165956596 -2.85059342904290
 1  5.45854126582658  2.12332259115912 -1.85765223342334
 1  5.75118242584258  0.69483059055906 -2.99559829082908
 1  6.50635269816982  1.29286328632863 -0.09978733593359
 1  6.35838995839584 -0.35530356775678  0.75940565726573
 1  7.46206359105911 -1.34109334453445 -1.04283560716072
 1  7.70900333623362  0.20542375047505 -1.89148207180718
 1  9.14268632023202  0.86481436643664 -0.17690005780578
 1  8.80548903760376 -0.67646315251525  0.81049891359136
 1  10.26152370377038 -0.18000546284628 -1.90921581108111
 1  9.20006499199920 -2.50139811631163 -1.74493041784178
 1  10.83162571827183 -2.37085386928693 -1.98355259915992
 1  10.11495438143814 -2.76904884688469 -0.35736517621762
 1  11.24814249514952  0.90346257645765  0.28129961746175
 1  11.20486353975398 -0.81515747704770  0.95538616021602
 1  12.96373969286929 -1.73009117031703 -0.70455812341234
 1  12.83157691019102 -0.07261657065707 -1.65496885818582
 1  13.63383482018202  1.02261481748175  0.51589893289329
 1  13.89348210131013 -0.66610621532153  1.20143666016602
 1  15.34806809530953  0.40430991599160 -1.32937729572957
 1  15.50758820172017 -2.31315160726073  0.02453099919992
 1  14.95243829452945 -1.82089446504650 -1.89759717481748
 1  16.86155578497850 -1.56964248914891 -0.98599006850685
 1  16.11959716041604  1.30939877357736  0.90528707300730
 1  16.52693714091409 -0.21227040214021  1.37948070927093
 1  18.52375331403140 -0.30043659105911 -0.43910725112511
 1  17.69327639213921  1.04909222812281 -1.19929350515052
 1  18.48180897349735  2.29062322002200  1.17931593689369
 1  18.68950611091109  0.74101828282828  1.71382138243824
 1  20.69168408110811  0.52577872607261  0.32046911091109
 1  20.02824693129313  3.36721028292829 -0.59845343874387
 1  21.44135838793880  2.46350300310031 -1.44305566886689
 1  19.81195509990999  1.64017582838284 -1.64850181918192
 1  21.33751972717272  1.41847995709571  2.22887250445044
 1  22.08991069736974  2.27414864456446  0.97763272957296
 1  20.58016774667467  3.11223130643064  1.83720416091609
>>>>>>> 8e03b5b5abfc0030b3aa597dc0de36371bfbd096

