%nproc=4
%Mem=2GB
# td=(NStates=1) CAM-B3LYP/6-31G(d,p) 

TD

0 1
12 -7.07799837283728  0.63965271337134  0.05159284668467
 6 -4.92169678767877 -1.96748792719272  0.58360489318932
 6 -4.78438836773677  2.86313476077608  1.16685305020502
 6 -9.33173790929093  3.11152664816482 -0.42767562726273
 6 -9.55511582528253 -1.67273278427843 -0.93128955805581
 7 -5.08833225782578  0.44419423752375  0.67893831213121
 6 -4.42702240834083 -0.68724854685469  0.86103412661266
 6 -2.91885089048905 -0.41937136283628  1.15851620582058
 6 -3.03940737913791  1.04589725802580  1.72117284798480
 6 -4.41142813771377  1.56835758455846  1.14501153105311
 6 -2.95561064316432  1.04663695179518  3.25228663756376
 6 -1.91576503750375 -0.78506376777678  0.00353431173117
 6 -0.47613503610361 -0.71335568276828  0.47060118941894
 6  0.55418655585559 -0.77315082798280 -0.60651603210321
 8  0.26064730483048 -1.11987739533953 -1.72241857355736
 8  1.79975178567857 -0.43694109050905 -0.23730051895190
 7 -7.04119456735674  2.70416600640064  0.22868156365637
 6 -6.01994127312731  3.38842981878188  0.73115664926493
 6 -6.36957421052105  4.73793808320832  0.67160784798480
 6 -7.66194890189019  4.95217584908491  0.27957634893489
 6 -8.14772904450445  3.55176437173717  0.06949949624962
 6 -5.32913086978698  5.80581304720472  1.05711047154715
 6 -8.61447924552455  6.10417145084508  0.14688167356736
 6 -8.47736162746275  7.18806492509251  0.82623887368737
 7 -9.13417569016902  0.70655351645165 -0.52947698139814
 6 -9.87671393109311  1.83460341344134 -0.70577690179018
 6 -11.17699679627963  1.51657999709971 -1.17322904240424
 6 -11.20272267616762  0.14031939603960 -1.25919463346335
 6 -9.86994267496750 -0.40594256855686 -0.88583359945995
 6 -12.24366319001900  2.53813438443844 -1.33402017681768
 6 -12.35898044434443 -0.65035244534453 -1.72569337783778
 6 -12.33219070747075 -0.99729214041404 -3.22061718031803
 7 -7.30424989328933 -1.34780439403940 -0.02965764276428
 6 -8.30815105490549 -2.19988516061606 -0.51938689388939
 6 -7.83841998759876 -3.62354062156216 -0.44826210351035
 6 -6.57504138823882 -3.64665900290029 -0.07296902880288
 6 -6.28409100550055 -2.20812909420942  0.20803360756076
 6 -8.79195666306630 -4.78682152455246 -0.69698817721772
 6 -5.32589706000600 -4.43793767726773  0.32949582218222
 8 -5.31550038793879 -5.61943642704270  0.31274830553055
 6 -4.24592817221722 -3.33029881968197  0.55922578787879
 6 -3.62471310221022 -3.77069229052905  1.92583295619562
 8 -3.74745634623462 -3.23759049524952  3.03424610571057
 8 -2.87996919061906 -4.86166088848885  1.70454903580358
 6 -2.15821640954095 -5.26026025512551  2.93955889138914
 6  2.80098260996100 -0.64267206180618 -1.27248844924493
 6  4.12538462746275 -0.52386056235624 -0.59918006700670
 6  5.17986147054705  0.18785505090509 -1.11597136983698
 6  5.09112753575358  0.91808445774577 -2.34663882918292
 6  6.54807914071407  0.41840369056906 -0.31478796399640
 6  7.73051058895890 -0.16711705860586 -1.02453940444044
 6  8.99584145674567 -0.14056918731873 -0.09924173697370
 6  10.23493411791179 -0.58351542324232 -0.82539350985099
 6  10.16140284048405 -2.10353128922892 -1.10134359935994
 6  11.44530740764076 -0.24084786558656 -0.02652178357836
 6  12.75718062576258 -0.35071912301230 -0.80936095899590
 6  13.87281675007501 -0.05736693949395  0.03018008550855
 6  15.30999712461246 -0.12323605270527 -0.61876011581158
 6  15.59091075997600 -1.53371100490049 -0.95738535623562
 6  16.38524263016302  0.48775313531353  0.32124663186319
 6  17.83940853025302  0.68036943534353 -0.22828864346435
 6  18.80279064856486  1.34089230623062  0.72778321132113
 6  20.28082675187519  1.46458679217922  0.35541030423042
 6  20.47767912171217  2.24922321952195 -0.86563755645565
 6  21.12894382518252  1.99653258955896  1.58102346574657
 1 -3.94280576507651  3.54594011541154  1.48318290519052
 1 -10.22375276797680  3.94078491349135 -0.33828922042204
 1 -10.30811410081008 -2.49983932473247 -1.36139279147915
 1 -2.74295075197520 -0.98665697959796  1.94482517371737
 1 -2.20091369656966  1.75451903450345  1.42197284768477
 1 -2.02899735723572  0.79217967086709  3.56679039253925
 1 -3.16380144014401  2.17629168666867  3.62335450085009
 1 -3.86797023972397  0.36524120812081  3.87519993279328
 1 -2.12841532643264 -1.72616257665767 -0.38824273347335
 1 -2.14127580008001  0.20997824822482 -0.57279731933193
 1 -0.34298781618162  0.23257787168717  1.06505690479048
 1 -0.25440324232423 -1.31970648584858  1.33075703090309
 1 -5.53742251765177  6.76674531863186  0.40999670887089
 1 -5.36343333273327  6.15579894299430  2.16332262936294
 1 -4.39324328032803  5.61487265366537  0.62684586018602
 1 -9.43329538203820  5.94278042614261 -0.70415064326433
 1 -9.23143435933593  8.03793453235324  0.57332695449545
 1 -7.87356682248225  7.52447884738474  1.73662204770477
 1 -11.97247135223522  3.25155548154815 -2.02672567726773
 1 -13.11039070827083  1.98319221042104 -1.44782597409741
 1 -12.43002473357336  3.27000565526553 -0.45701694569457
 1 -12.45976075447545 -1.52440188528853 -1.06524147904790
 1 -13.40003872277228  0.05839910311031 -1.79643517101710
 1 -13.06933328592859 -1.82789747594759 -3.40065995049505
 1 -12.58278184238424 -0.12646718431843 -3.71071456715672
 1 -11.27133341264127 -1.30374524162416 -3.39993861386139
 1 -9.02817242024203 -4.98913965686569 -1.72545580968097
 1 -8.35116448124812 -5.65663566776678 -0.39078869186919
 1 -9.76776666156616 -4.55342036333633 -0.21079290189019
 1 -3.51609230513051 -3.68343159385939 -0.26234150565057
 1 -1.53506167266727 -4.47757419711971  3.22397531283128
 1 -2.88598820742074 -5.34891650925093  3.64677751665167
 1 -1.26188429992999 -6.02132140534053  2.52155610851085
 1  2.81035033913391 -1.67221905780578 -1.61125509050905
 1  2.39362684028403 -0.03970969136914 -2.17853100530053
 1  4.03430433603360 -0.68562077727773  0.43385660166017
 1  4.09704866836684  0.99228793919392 -2.82019038873887
 1  5.43590900260026  2.04629488838884 -2.24222069026903
 1  5.67936524412441  0.34915602310231 -3.03064179517952
 1  6.65704776767677  1.37479147914792  0.02665530833083
 1  6.42912703210321 -0.21092913031303  0.68667838453845
 1  7.80671805650565 -1.12159139433943 -1.30799212281228
 1  7.85882831873187  0.37842105020502 -1.90466338993899
 1  9.07155920752075  1.06496438143814  0.10552818501850
 1  9.04823331203120 -0.87180268646865  0.77237510121012
 1  10.16091364276428 -0.18836629892989 -1.74837972747275
 1  9.39153413891389 -2.31046902340234 -1.84977090189019
 1  11.28973152885288 -2.22519930383038 -1.81558580248025
 1  10.43332621862186 -2.70885282728273 -0.19446888658866
 1  11.36742442334234  0.86690892109211  0.31852333983398
 1  11.43762681608161 -0.76645260656066  0.93249387098710
 1  12.93168648754875 -1.33009117031703 -1.30369803740374
 1  12.69582333483348  0.37819851085109 -1.63151651295130
 1  13.64782621932193  0.90833338933893  0.35974331733173
 1  14.06193894699470 -0.66978658335834  0.94952146864686
 1  15.32823611211121  0.43379286428643 -1.64967932593259
 1  15.75192263516352 -2.09038933103310  0.05663420952095
 1  14.92775582628263 -1.99068144374437 -1.60395781088109
 1  16.69883951335134 -1.67289281418142 -1.57867933743374
 1  16.02364756545655  1.48643647734773  0.57023356765677
 1  16.48766321352135 -0.24029320442044  0.95463822502250
 1  18.36831777047705 -0.32705925332533 -0.69632297269727
 1  17.78758582308231  1.26206352525252 -1.17712128792879
 1  18.42770356295630  2.36941109880988  1.10506851215121
 1  18.74641180148015  0.51541572257226  1.54856485678568
 1  20.78360327302730  0.47537368556856  0.18660572457246
 1  20.00400450705070  3.35584914681468 -0.73026662006201
 1  21.59605385748575  2.37596424922492 -1.06718808210821
 1  20.09773367776778  2.05668747954795 -1.79532650165016
 1  21.17942391759176  1.06388449754976  2.28892851005100
 1  22.24058576487649  2.24885611531153  1.31367633393339
 1  20.82601233113311  2.94201428472847  1.86065650615062

