%nproc=4
%Mem=2GB
# td=(NStates=1) CAM-B3LYP/6-31G(d,p) 

TD

0 1
12 -7.20386095909591  0.57325607370737  0.09761744914491
 6 -4.82582720072007 -1.93941511991199  0.50075660836084
 6 -4.92516244514451  2.81251969926993  1.21742810771077
 6 -9.53248798429843  3.04900039553955 -0.28457131683168
 6 -9.42721303500350 -1.73489900090009 -1.01757818691869
 7 -5.17374079867987  0.47712753085309  0.74348476677668
 6 -4.37388709480948 -0.61697151915192  0.81565958915892
 6 -2.90340934633463 -0.34645407110711  1.25363571777178
 6 -3.07598103650365  1.15648831713171  1.75688641934193
 6 -4.38997599249925  1.48167891669167  1.14374140404040
 6 -3.14792987508751  1.13723601170117  3.25209661856186
 6 -1.98867232823282 -0.39645490689069  0.11947590589059
 6 -0.42704012661266 -0.33927827502750  0.58852298159816
 6  0.51365250245024 -0.58676218911891 -0.50564594509451
 8  0.15688692879288 -0.97111251885189 -1.68609494119412
 8  1.80400221072107 -0.33913130953095 -0.25611240014001
 7 -7.13466391429143  2.51146673647365  0.35448414391439
 6 -6.11651093009301  3.27842881868187  0.70840437403740
 6 -6.36985423852385  4.80517480688069  0.71621230843084
 6 -7.71749445644564  4.82278290979098  0.29919831113111
 6 -8.24708898049805  3.47359655495550  0.13621616791679
 6 -5.52251020772077  5.86346881278128  1.16716147664766
 6 -8.51983978157816  5.97467850155016  0.01819880528053
 6 -8.51773566486649  7.19849596819682  0.68780503030303
 7 -9.16016828942894  0.63643650475047 -0.49341337503750
 6 -9.90047630733073  1.78342829592959 -0.65139146324632
 6 -11.21832092869287  1.43315165426543 -1.07369908940894
 6 -11.27232963686369  0.04912027612761 -1.21297001100110
 6 -9.87123280398040 -0.43140511481148 -0.93019803590359
 6 -12.37534635833583  2.27017758875888 -1.33059983478348
 6 -12.37327187348735 -0.82199961006101 -1.77986879537954
 6 -12.38647613601360 -1.06541895309531 -3.27519263786379
 7 -7.12662213051305 -1.31827144074407 -0.30866554355436
 6 -8.20468070787079 -2.19712488458846 -0.66996195139514
 6 -7.78710485608561 -3.61903017051705 -0.53333061036104
 6 -6.47990187428743 -3.51022535953595 -0.04653638553855
 6 -6.14952754915492 -2.18904718601860  0.14901770597060
 6 -8.49033650105010 -4.83176601900190 -0.88802728112811
 6 -5.25150962126213 -4.33660754425443  0.16549942254225
 8 -5.06541537943794 -5.54849933333333  0.05519254995500
 6 -4.05348892829283 -3.23955974577458  0.58656852215222
 6 -3.48807943884388 -3.71913713501350  1.86712708560856
 8 -3.62079367996800 -3.02033877007701  2.92311499259926
 8 -2.70148134183418 -4.79992471487149  1.82190077097710
 6 -1.94653524142414 -5.14372860196020  2.92407734323432
 6  2.80542305400540 -0.52299009360936 -1.23104430483048
 6  4.13095518451845 -0.37392556885689 -0.60447059605961
 6  5.12847633203320  0.41734800020002 -0.99955972867287
 6  5.11223964696470  1.16207885718572 -2.28630279557956
 6  6.44663899669967  0.52924477467747 -0.07185367056706
 6  7.66622416031603 -0.12789313621362 -0.86353330383038
 6  8.84120599319932 -0.02266739713971 -0.07288910171017
 6  10.21183180768077 -0.58801587328733 -0.78031900240024
 6  10.02366906710671 -2.02720365646565 -1.13264672967297
 6  11.40317319421942 -0.25938971977198  0.08526939553955
 6  12.74948985668567 -0.62108615971597 -0.64504452735274
 6  13.94251371977198 -0.21801300410041  0.24626169366937
 6  15.30531665656566 -0.27809153825383 -0.46656489628963
 6  15.71235290419042 -1.70022765656566 -0.76114573227323
 6  16.36556066196620  0.36590095009501  0.49406391359136
 6  17.72080667006701  0.57568896729673 -0.20045586018602
 6  18.77070744024402  1.31766998399840  0.66014644764476
 6  20.28037670687069  1.19767010051005  0.10476523972397
 6  20.41484283808381  1.94897319451945 -1.23768476117612
 6  21.27932886368637  1.86661959825983  1.10258562196220
 1 -4.20781226572657  3.58947446884688  1.38836342324232
 1 -10.08888928162816  3.89242007700770 -0.23693908540854
 1 -10.24426771617162 -2.50795013581358 -1.12629928212821
 1 -2.71720817771777 -1.06694500840084  1.95812650385038
 1 -2.12492609780978  1.66490007260726  1.38440909130913
 1 -2.26561101860186  0.47762821572157  3.62215592909291
 1 -3.25468052805281  2.20274433193319  3.78922108750875
 1 -4.03665710841084  0.55136982098210  3.67993040584058
 1 -2.06251873677368 -1.35199515991599 -0.36557046624662
 1 -2.21114278677868  0.41628887928793 -0.62041208080808
 1 -0.08303182058206  0.68383299719972  0.89005940504050
 1 -0.23758156015602 -1.08059257445745  1.32163611881188
 1 -5.87748652405241  6.80125876997700  0.70388609780978
 1 -5.66520350975097  5.97423078617862  2.24240053715371
 1 -4.44716867286729  5.71271243764376  0.84961813741374
 1 -9.22229428192819  5.92263841194119 -0.76810703890389
 1 -9.13761497739774  7.91274201310131  0.46716633843384
 1 -7.92473193899390  7.30372677217722  1.57253563906391
 1 -12.10924502960296  3.23187351335133 -2.05816882158216
 1 -13.42633230243024  1.80709460066007 -1.76801799329933
 1 -12.82938466956696  2.74387304200420 -0.33360460446045
 1 -12.45327010541054 -1.83553299839984 -1.31716667156716
 1 -13.19378809770977 -0.29065580238024 -1.41873740124012
 1 -13.37247359996000 -1.61488617481748 -3.58365825032503
 1 -12.28967253145315 -0.14763930153015 -3.81850534623462
 1 -11.46285256455646 -1.61992685978598 -3.50074869486949
 1 -8.80500010301030 -4.95029577247725 -2.00658392249225
 1 -7.76911627642764 -5.63187319151915 -0.55216482948295
 1 -9.38995888078808 -4.87295231653165 -0.25755757835784
 1 -3.36456715261526 -3.47072032273227 -0.14452972447245
 1 -1.22245041154115 -4.30952739243924  3.02774568986899
 1 -2.45625523412341 -5.24020563816382  4.05160799969997
 1 -1.50769888138814 -5.94352362556256  2.53944789768977
 1  2.63044234833483 -1.51988382428243 -1.58270223522352
 1  2.62745022262226  0.03284756435644 -2.20455360756076
 1  4.39227013261326 -0.77571978717872  0.41607482348235
 1  4.07749671317132  1.26498520892089 -2.79929829952995
 1  5.29320473217322  2.29387964686469 -1.96248271647165
 1  5.95160246784678  0.86979808730873 -2.91770050105011
 1  6.57002906580658  1.56581058105811  0.24771741454146
 1  6.12519663906391 -0.08478651605161  0.95560527722772
 1  7.56229361406141 -1.33820305550555 -1.17498882248225
 1  7.68537097299730  0.05074828292829 -1.99909283288329
 1  8.85475752735274  1.17798568356836  0.28988662086209
 1  8.73679216791679 -0.63701920812081  0.90431829552955
 1  10.22599015041504  0.13426596429643 -1.67499238873887
 1  8.92141712721272 -2.23149112561256 -1.62537846264626
 1  10.76931948764877 -2.25265204910491 -1.87667191109111
 1  10.10774366036604 -2.68721066306631 -0.28258769846985
 1  11.37513519441944  0.92369459965997  0.06628811631163
 1  11.36590964436444 -0.70560652195219  1.03225384698470
 1  12.66927024592459 -1.68041620282028 -0.85525319291929
 1  12.96666041854185 -0.05298460746075 -1.55402876417642
 1  13.71877331403140  0.68102065806581  0.61969931293129
 1  13.97733048614861 -0.82716232093209  1.11233775027503
 1  15.21600488898890  0.22294177917792 -1.46654101210121
 1  15.56366380928093 -2.54109440154015  0.15129367546755
 1  15.09530258095810 -2.00291266686669 -1.78278569366937
 1  16.75920554995500 -1.58242376727673 -1.05138660816082
 1  15.74828002870287  1.27941577527753  0.95729227352735
 1  16.61167561476147 -0.16601577667767  1.41921468266827
 1  17.97963890259026 -0.36320286768677 -0.51139447984798
 1  17.46525358985899  1.25169248814881 -1.03089666546655
 1  18.50750154275428  2.26496065376538  0.67338534383438
 1  18.95561272157216  1.12530671167117  1.84287428772877
 1  20.53429834253425  0.12086823502350  0.00396746074607
 1  20.16056016261626  2.95323888578858 -1.08115170857086
 1  21.30837508960896  1.98197485028503 -1.73453481678168
 1  19.64802870727073  1.47260907170717 -2.07731470047005
 1  21.23047902310231  1.36016412551255  2.16777639483948
 1  22.29910161646164  1.64032526222622  0.65617058335834
 1  21.26834656455646  2.97582766606661  1.24886532703270

