%nproc=4
%Mem=3GB
# td=(NStates=1) iop(3/107=0140000000,3/108=0140000000) CAM-B3LYP/6-31G(d,p) 

TD

0 1
12 -7.14914960666067  0.56731511501150  0.17369373937394
 6 -4.83671248774878 -1.97534476507651  0.34548995139514
 6 -4.69346537713771  2.84245296319632  1.05670577577758
 6 -9.43007977247725  3.15508306130613 -0.28990146544654
 6 -9.58548464646465 -1.70856262196220 -0.85747255215522
 7 -5.07201423262326  0.49597568816882  0.68299612361236
 6 -4.34044629192919 -0.68678982218222  0.71326922162216
 6 -2.90300652125213 -0.46161455945595  1.03493916301630
 6 -2.90153338023802  1.04333303490349  1.61689796909691
 6 -4.31670190489049  1.47817246834683  1.12304669856986
 6 -2.83757993879388  1.23957677697770  3.16505181978198
 6 -1.93485921562156 -0.55601159035904 -0.12162835253525
 6 -0.53492920212021 -0.45898914691469  0.32650603290329
 6  0.52169409260926 -0.62704932683268 -0.71967175727573
 8  0.28017823462346 -0.93848762646265 -1.89083647674768
 8  1.75481407980798 -0.50670060846085 -0.30852624022402
 7 -7.02836047944794  2.64425763566357  0.31437236133613
 6 -5.97806795059506  3.39084285168517  0.73379925602560
 6 -6.33497840624062  4.81314817841784  0.68969722842284
 6 -7.65056984228423  4.85942774797480  0.23590971737174
 6 -8.10237976547655  3.48145508430843  0.03259125772577
 6 -5.40141217511751  5.94146362006201  0.97135729092909
 6 -8.34344435243524  6.03685395499550  0.14178479097910
 6 -8.37468587858786  7.18639778947895  0.77413147244724
 7 -9.05446448754875  0.71113810821082 -0.44991156505651
 6 -9.85044253055305  1.85491881618162 -0.48841165466547
 6 -11.21169512221222  1.41407085158516 -0.93513837353735
 6 -11.25366485368537  0.06344389018902 -1.06995702400240
 6 -9.83822142574257 -0.36487668106811 -0.75151735303530
 6 -12.28191912961296  2.43530877227723 -1.31896134883488
 6 -12.51112490539054 -0.60971709550955 -1.53293262386239
 6 -12.31077298619862 -1.35508570087009 -2.93640429162916
 7 -7.24803776617662 -1.37573240894089 -0.23077575267527
 6 -8.29704403070307 -2.24341288678868 -0.55874745464546
 6 -7.82013405320532 -3.67035758715872 -0.53961426122612
 6 -6.49204699519952 -3.54104708680868 -0.14350643234323
 6 -6.14817854955496 -2.21018897469747  0.05492732813281
 6 -8.67019935943594 -4.86693279167917 -0.82027541064106
 6 -5.36406186908691 -4.39948351175118  0.05885085918592
 8 -5.08951994429443 -5.52132898989899  0.12681863046305
 6 -4.18454295689569 -3.43740118751875  0.49095741734173
 6 -3.54382855965597 -3.67623556625663  1.88629459795980
 8 -3.78428121152115 -3.06116347424742  2.92035539373937
 8 -2.75068042084208 -4.79589820832083  1.76027506500650
 6 -2.33587254425443 -5.31541674757476  3.10608800920092
 6  2.85361168156816 -0.68714700360036 -1.20151366856686
 6  4.16767765296530 -0.45263053095310 -0.58030059285929
 6  5.19500499179918  0.44259078707871 -0.86993987098710
 6  5.08351207680768  1.36235391069107 -2.05557969296930
 6  6.50574685338534  0.47602821882188 -0.12329285368537
 6  7.61905335793579 -0.06480502850285 -0.95044537323732
 6  8.85370308190819 -0.12477429352935 -0.20935703810381
 6  10.12189765036504 -0.57169883308331 -0.91413713371337
 6  10.02811608820882 -2.04522240214021 -1.47715468146815
 6  11.32602726652665 -0.34177906900690  0.06951898939894
 6  12.65101283678368 -0.47077711121112 -0.69421692679268
 6  13.89163043484348 -0.07558327262726  0.09770618221822
 6  15.36847283828383 -0.18845792939294 -0.46928258075808
 6  15.64544081508151 -1.63907229552955 -0.70467229352935
 6  16.33800079277928  0.48400491779178  0.38855359005901
 6  17.67064465216522  0.51097482708271 -0.04304083108311
 6  18.69402982158216  1.29335741424142  0.82873613031303
 6  20.15036784118412  1.28888832133213  0.27414412041204
 6  20.17281012681268  2.22066937203720 -0.90637533343334
 6  21.19348441544154  1.66580828072807  1.29496343634363
 1 -4.01251161466147  3.47647089848985  1.45429152495249
 1 -10.09480160346035  3.89472174667467 -0.45520004620462
 1 -10.41719614371437 -2.47429296439644 -0.93852167156716
 1 -2.66584387158716 -0.96603680638064  1.99787627832783
 1 -2.30379384568457  1.66976903800380  1.30471412041204
 1 -1.96859994639464  0.87819692609261  3.37009734713471
 1 -2.98460556965697  2.25867509030903  3.55848387058706
 1 -3.61787458795880  0.62303745804580  3.53776546174617
 1 -2.20221534053405 -1.57907857865787 -0.66609461656166
 1 -2.02340870987099  0.17556517631763 -0.89290602520252
 1 -0.32003743244324  0.44930451775178  1.05081894489449
 1 -0.26395481578158 -1.37421818841884  0.95498895719572
 1 -5.49238341604160  6.77445495749575  0.28086791809181
 1 -5.48046951825182  6.14527740914091  2.03416542904290
 1 -4.26483132773277  5.71850611861186  0.80628136073607
 1 -9.04611487128713  6.01980536253625 -0.78080943364336
 1 -8.93144220792079  8.05507522852285  0.56260603630363
 1 -7.57394532663266  7.51200803720372  1.73135209550955
 1 -11.87400787378738  3.07340648774878 -2.27684351585159
 1 -13.25207250495049  1.85113385578558 -1.45512124032403
 1 -12.31787281998200  3.18032536663666 -0.64533497299730
 1 -12.46021798669867 -1.53409433223322 -0.75836933783378
 1 -13.35439773887389 -0.16371908240824 -1.38078383278328
 1 -13.02065726492649 -2.14317797989799 -3.05550650875088
 1 -12.29572997869787 -0.51841031233123 -3.80370934933493
 1 -11.23392823222322 -1.76470749794979 -3.00588886708671
 1 -9.04573919251925 -4.64283078387839 -1.76882294529453
 1 -8.17573195839584 -5.78360431373137 -0.70585054015402
 1 -9.43944812381238 -4.86633508190819 -0.08601086978698
 1 -3.39640715921592 -3.45685229082908 -0.26019375747575
 1 -1.92205559315932 -4.43307552095210  3.50507222482248
 1 -3.24036047334733 -5.49237876277628  3.81340237793779
 1 -1.68146866736674 -5.98583936873687  2.95055841694169
 1  2.96852490729073 -1.58005462826283 -1.53376482518252
 1  2.72944938623862  0.06914499929993 -2.17833889138914
 1  4.36450693739374 -0.94520293409341  0.40723212341234
 1  4.13425873737374  1.44767030973097 -2.43482396809681
 1  5.04609154135414  2.43513393729373 -1.71265870427043
 1  5.90538010651065  1.15044623552355 -2.92900915781578
 1  6.81613979787979  1.53084306490649  0.25298491239124
 1  6.42895076717672 -0.17381471817182  0.73178937443744
 1  7.31979410221022 -1.03790446344635 -1.32482723992399
 1  7.90081263976398  0.54985408840884 -1.91885270817082
 1  9.17486353065306  0.82697219471947  0.22881530963096
 1  8.75719884068407 -1.10518887158716  0.55920204360436
 1  10.33265789758976  0.01331747954795 -1.86922208020802
 1  9.15947555665567 -1.97104538803880 -2.12282066396640
 1  10.92090123072307 -2.32234563386339 -1.81027638573857
 1  9.79629182628263 -2.65270938563856 -0.64248164186419
 1  11.27110875247525  0.83660009340934  0.45034280508051
 1  11.24343193869387 -1.02214351195119  0.74980130023002
 1  12.90998895139514 -1.48356577587759 -0.77957022852285
 1  12.75144097399740  0.28939387538754 -1.50527486118612
 1  13.76626804710471  0.97522288558856  0.17972280098010
 1  13.94853316391639 -0.75448182708271  1.15178755275528
 1  15.12486288768877  0.35017841484148 -1.32199346814681
 1  15.42801659845985 -2.20979032023202  0.30518238273827
 1  14.80977262166217 -2.04002852285229 -1.46973834733473
 1  16.65767404700470 -2.10069096609661 -1.00085659895990
 1  16.00459373287329  1.59865819951995  0.57029294559456
 1  16.50063414121412 -0.08952523732373  1.46254474917492
 1  18.03852058975898 -0.45298181218122 -0.28818901450145
 1  17.48807611721172  1.07250614471447 -1.07089283288329
 1  18.25392444934493  2.29400066806681  1.02869481628163
 1  18.75368133063306  0.64941978147815  1.68324156965697
 1  20.25999583188319  0.15422642024202 -0.10039414721472
 1  19.56347316581658  3.12605338183818 -0.47857004170417
 1  21.20114391519152  2.61276241834183 -1.38851683288329
 1  19.49756815441544  1.94316460666067 -1.85976436083608
 1  20.92340619411941  1.01418705960596  2.16841050985099
 1  22.12226011881188  1.64601507220722  0.98821547514751
 1  21.24946502500250  2.77048316551655  1.55342247894789

