%nproc=4
%Mem=2GB
# td=(NStates=1) CAM-B3LYP/6-31G(d,p) 

TD

0 1
12 -7.10584115711571  0.61075982408241  0.14400208760876
 6 -4.91872649064906 -1.94541571997200  0.72891942464246
 6 -4.69480940984098  2.76417486478648  1.23504986988699
 6 -9.36414114961496  3.06334182968297 -0.39786264596460
 6 -9.50663097679768 -1.76437194819482 -0.94360078917892
 7 -5.13495692029203  0.41935175327533  0.80067048534854
 6 -4.36210591669167 -0.66301612361236  0.90746877007701
 6 -2.94425343074307 -0.36971639733973  1.33454380858086
 6 -3.03898733713371  1.06895956425643  1.71062179287929
 6 -4.33154014891489  1.47245799459946  1.17625465536554
 6 -3.00055513761376  1.26931922002200  3.12089349824983
 6 -1.99602306330633 -0.68161342274227  0.11945590389039
 6 -0.53612103470347 -0.50082442964296  0.48234236353635
 6  0.48275941314131 -0.73561707460746 -0.68023340384038
 8  0.17773901400140 -1.12833824142414 -1.80123645534553
 8  1.72229403990399 -0.55839323572357 -0.22060884978498
 7 -6.99596004390439  2.66157174697470  0.33032172767277
 6 -5.99916919591959  3.41087206300630  0.72846638023802
 6 -6.29017627072707  4.75714000340034  0.66145683288329
 6 -7.61054376137614  4.84764539603960  0.32118050935094
 6 -8.00854512611261  3.43497269256926  0.07754030033003
 6 -5.35567352405241  5.83281574747475  1.23099786028603
 6 -8.43108090569057  6.08020905460546  0.08099508490849
 6 -8.28561245254526  7.17841395999600  0.81833808360836
 7 -9.14858713131313  0.70831369246925 -0.43936797049705
 6 -9.85165142484248  1.85651560466047 -0.70234655875588
 6 -11.13526262286229  1.54644298339834 -1.20933265276528
 6 -11.16794919881988  0.11911727582758 -1.41582029602960
 6 -9.86215189588959 -0.40767274157416 -0.89610462656266
 6 -12.19247807150715  2.53926449744975 -1.57165394019402
 6 -12.25734028032803 -0.63352076217622 -1.86626743524352
 6 -12.18398588698870 -0.92197460866087 -3.31323644224422
 7 -7.20619008730873 -1.43653326692669 -0.09039371637164
 6 -8.27402764256426 -2.26981215331533 -0.48753370857086
 6 -7.81313745934593 -3.66965523302330 -0.49442671997200
 6 -6.57141102520252 -3.51891622862286 -0.08751048294829
 6 -6.18517111351135 -2.17638591989199  0.18217102130213
 6 -8.60091755915592 -4.82446528892889 -0.89282776117612
 6 -5.31894636493649 -4.40818470197020  0.21869474207421
 8 -5.20587942584258 -5.58373285668567  0.27129416011601
 6 -4.20340391979198 -3.34939072887289  0.70880074537454
 6 -3.65867649854986 -3.74216943824382  2.02821319421942
 8 -4.03991559215922 -3.28113484968497  3.07422010311031
 8 -2.76467766146615 -4.68837355975598  1.86263484438444
 6 -2.11050163806381 -5.15593982308231  3.15644057955796
 6  2.73434594629463 -0.72214000860086 -1.20315151555156
 6  4.11196328532853 -0.42899107540754 -0.48990913991399
 6  5.11351483588359  0.21105737113711 -1.06470624332433
 6  5.10239866286629  0.92827547684768 -2.37216138143814
 6  6.40555488828883  0.30390224042404 -0.30319680488049
 6  7.66398393629363 -0.12863321022102 -1.11831878237824
 6  8.86841871447145 -0.24029916031603 -0.12534434723472
 6  10.16532715721572 -0.58525559725973 -0.96181715221522
 6  10.13465016521652 -2.01198213431343 -1.50377384238424
 6  11.36984986188619 -0.36012979377938 -0.07077620902090
 6  12.73101800950095 -0.50890494159416 -0.76601662456246
 6  13.96190565896590 -0.07388859165917  0.10156722422242
 6  15.37243336823682 -0.12312604170417 -0.55158339813981
 6  15.75644731363136 -1.51163879767977 -1.09944956265627
 6  16.35099920582058  0.47700206020602  0.44087859505951
 6  17.71960655005500  0.56882828122812 -0.07810362496250
 6  18.69569993949395  1.34714293129313  0.81484191719172
 6  20.12759142834283  1.50899123262326  0.24874963816382
 6  20.24600595439544  2.43328162536254 -0.82687368006801
 6  21.09490042084208  1.97944088038804  1.33667903130313
 1 -3.91888337283728  3.53587910931093  1.55774036093609
 1 -9.98684907760776  3.95454628962896 -0.60339573107311
 1 -10.28416170557056 -2.42540188098810 -1.48934558675868
 1 -2.56130258715872 -1.11616993089309  2.17005769696970
 1 -2.29757336253625  1.59567314991499  1.19060971137114
 1 -2.03182764026403  0.96844729762976  3.44750846434643
 1 -3.20645570557056  2.19177323482348  3.47472963836384
 1 -3.88589203190319  0.74967965196520  3.51524393719372
 1 -2.16896938183818 -1.76720668106811 -0.37797170637064
 1 -2.24744641714171  0.00579783018302 -0.65750579017902
 1 -0.28307182458246  0.49921453535353  0.84620501960196
 1 -0.33191099309931 -1.43580809600960  1.18408236343634
 1 -5.64989376477648  6.88622726682668  0.74750045924592
 1 -5.41865885528553  6.13043640674067  2.36249254635464
 1 -4.33670762676268  5.43315448184818  1.04607778337834
 1 -9.01059311181118  5.92751889999000 -0.69003923212321
 1 -8.79453066896690  8.25011575047505  0.55430505230523
 1 -7.64760422622262  7.65312171167117  1.71582996849685
 1 -12.27400150525052  3.13671399739974 -2.36086909160916
 1 -13.09321899109911  1.87120101130113 -1.60136132763276
 1 -12.51944367546755  3.15971462616262 -0.61699294329433
 1 -12.29145392379238 -1.46004544964496 -1.09270422532253
 1 -13.34650336923692 -0.13635037183718 -1.79322484998500
 1 -13.00135648824883 -1.55836052225223 -3.72207209170917
 1 -12.30149371357136  0.12212767516752 -3.66044954065407
 1 -11.34035031433143 -1.42505737283728 -3.64187280728073
 1 -8.98950855385539 -4.80982172507251 -1.97335059915992
 1 -7.91424078887889 -5.62495249944994 -1.02845245824582
 1 -9.64351423632363 -5.00572559385939 -0.31017283988399
 1 -3.37142783868387 -3.35509876057606  0.11203593209321
 1 -1.71444961146115 -4.29931637133713  3.76159907520752
 1 -2.97091670027003 -5.62096371397140  3.70230306920692
 1 -1.38790690219022 -5.72555182838284  2.83962791569157
 1  2.73574287838784 -1.71869370527053 -1.52624658965897
 1  2.59602708030803 -0.15397111751175 -2.05062821502150
 1  4.30806171177118 -0.99430164536454  0.43697691369137
 1  4.03271223472347  1.10544925532553 -2.62783115281528
 1  5.51763717541754  2.03190344924492 -2.28281474967497
 1  5.51336864446445  0.21050215771577 -3.19120785178518
 1  6.60760282318232  1.51862586258626 -0.17763512071207
 1  6.32860698009801 -0.23505154255426  0.54485420212021
 1  7.53678106280628 -1.01600083528353 -1.76644796839684
 1  7.78769120502050  0.80548375647565 -1.67402032563256
 1  8.91712376397640  0.76469435443544  0.38168580078008
 1  8.70897938663866 -0.95538104430443  0.61606947064707
 1  10.18976652805281  0.14486702440244 -1.89235412491249
 1  9.14289927542754 -2.38911688818882 -2.15359128392839
 1  11.03140569626963 -2.44495127902790 -2.26390063396340
 1  10.06689957595760 -2.84638658065807 -0.82303174287429
 1  11.19907758865887  0.72171440164016  0.08683017051705
 1  11.29353240664067 -0.79146510781078  0.79394001560156
 1  12.73071639053905 -1.60403856505651 -0.92491015861586
 1  12.61809556205620 -0.07716702570257 -1.74849821112111
 1  13.66936837353735  0.90245280128013  0.67884522752275
 1  14.05156790989099 -0.70670027472747  1.00576709320932
 1  15.18941222972297  0.62585207020702 -1.41276563456346
 1  15.80603804670467 -2.25562585468547 -0.47394884878488
 1  15.11054410511051 -1.79660203580358 -2.03713112821282
 1  16.61505113451345 -1.42319784468447 -1.74956642614261
 1  16.01644684538454  1.35605343904390  0.76804334863486
 1  16.38447289448945 -0.29330850595060  1.43204596579658
 1  18.23670460916092 -0.35979252665267 -0.12525586598660
 1  17.88223528802881  0.92189950885089 -0.94376795259526
 1  18.34231502410241  2.41014517221722  1.23631163646365
 1  18.77160432073207  0.86982116311631  1.88970897119712
 1  20.50357527022702  0.63523967216722  0.06593365736574
 1  19.75389949654965  3.31055461736174 -0.72076566996700
 1  21.25997024912491  2.72141879467947 -1.26137750105010
 1  19.90757466186619  2.07968977977798 -1.87505447444744
 1  21.20186616181618  1.23101121022102  2.26421603880388
 1  22.15436714301430  2.06282751245125  0.99358432473247
 1  20.65043477337734  2.93893397669767  1.83988442894289

