%nproc=4
%Mem=2GB
# td=(NStates=1) CAM-B3LYP/6-31G(d,p) 

TD

0 1
<<<<<<< HEAD
12 -7.19609018201820  0.52267101520152  0.06742442984298
 6 -4.87416203420342 -1.94581575997600  0.49743627632763
 6 -4.83744367326733  2.83914236153615  1.11948831373137
 6 -9.38629336483648  3.03337883338334 -0.38156101580158
 6 -9.53531384508451 -1.73873938493849 -0.91269769886989
 7 -5.19181260586059  0.42501231933193  0.77218763706371
 6 -4.38912861896190 -0.69934975697570  0.76786480968097
 6 -2.99135814121412 -0.39558898459846  1.26376673087309
 6 -3.04372781118112  1.07608027632763  1.74727545824582
 6 -4.41068806370637  1.56776752555256  1.18849587948795
 6 -3.02052713481348  1.23888617671767  3.30574198309831
 6 -1.90608406940694 -0.51299656105611  0.16273023132313
 6 -0.46757418001800 -0.26748109530953  0.50247437673767
 6  0.52543368056806 -0.61296480938094 -0.64990037053705
 8  0.25111635173517 -0.88757416501650 -1.76420275197520
 8  1.83373518401840 -0.50421781818182 -0.07767455635564
 7 -7.14257470537054  2.65197078687869  0.27622631813181
 6 -6.09393867286729  3.41409238503850  0.77972150575058
 6 -6.38676592969297  4.77287157655766  0.70772145934593
 6 -7.71751445844584  4.87141777327733  0.22744113541354
 6 -8.13386765836584  3.46514570987099 -0.02622007570757
 6 -5.55248320502050  5.87189965586559  1.11341610211021
 6 -8.54917271487149  6.07543857755776  0.02161914731473
 6 -8.59687357865787  7.25422154075408  0.68764501430143
 7 -9.03761603420342  0.62903576467647 -0.48216224992499
 6 -9.90383664336434  1.68441839493949 -0.63646997109711
 6 -11.18360745734573  1.46115445454545 -1.09342106160616
 6 -11.26258866276628  0.09228459255926 -1.17802651665167
 6 -9.88453413411341 -0.37835981028103 -0.86347136323632
 6 -12.34114293799380  2.32965353635364 -1.21064783958396
 6 -12.37721226752675 -0.82295970607061 -1.67646845534553
 6 -12.32619010741074 -1.04627703890389 -3.16734185278528
 7 -7.27100656895690 -1.35168478207821 -0.06098077507751
 6 -8.31523176297630 -2.23191836393639 -0.55834078927893
 6 -7.73572971857186 -3.61105937343734 -0.58845612291229
 6 -6.42095597969797 -3.56965130213021 -0.08189992189219
 6 -6.14773737013701 -2.14111239253925  0.09518232243224
 6 -8.56431389878988 -4.85535837823782 -0.95351382978298
 6 -5.27458192849285 -4.36958084158416  0.16058893149315
 8 -5.12190102800280 -5.61375585898590  0.11893892459246
 6 -4.20124370377038 -3.37009279907991  0.63884374967497
 6 -3.49059969086909 -3.74902012331233  1.91016138903890
 8 -3.60035163576358 -3.19500623682368  3.01537421852185
 8 -2.64900609430943 -4.74596931933193  1.71773035393539
 6 -2.13047363526353 -5.20168439753975  2.89386432193219
 6  2.80501301300130 -0.71546934153415 -1.20201140154015
 6  4.16705879487949 -0.41112928922892 -0.51622177117712
 6  5.14944842924292  0.41848811421142 -0.95132490519052
 6  5.04182260526053  1.22589523882388 -2.24196836213621
 6  6.46750108290829  0.45107695789579 -0.22566905210521
 6  7.67265480338034 -0.27823817071707 -1.07510446094609
 6  8.92528440104010 -0.09979510991099 -0.27774958775878
 6  10.19704032853285 -0.45212228392839 -0.93685465596560
 6  10.18994569476948 -2.09005994209421 -1.32352581758176
 6  11.36902977987799 -0.18861264206421 -0.08497762916292
 6  12.76969187688769 -0.41710576167617 -0.69830985388539
 6  13.87656712511251  0.00324912211221  0.24176124362436
 6  15.27252337723772 -0.13155688478848 -0.46892513231323
 6  15.62384405330533 -1.63265089888989 -0.69209882758276
 6  16.37917202310231  0.55573993399340  0.47264177137714
 6  17.75039962936293  0.58633003140314 -0.18449426402640
 6  18.83599396889689  1.22122033903390  0.75689612261226
 6  20.25562423162316  1.14743507700770  0.21181594479448
 6  20.47239859365937  1.91440973817382 -1.09197018971897
 6  21.18764969576958  1.76241917821782  1.25620098349835
 1 -4.03130461496150  3.82565808720872  1.38326291319132
 1 -10.02148254095409  3.79628046304630 -0.68320371187119
 1 -10.37794108350835 -2.35170451125113 -1.18696534873487
 1 -2.72982943984398 -0.83369168306831  1.88423911511151
 1 -2.34279788498850  1.73034661726173  1.48917956835684
 1 -1.96380083758376  0.91200165306531  3.51365507900790
 1 -3.28241330133013  2.17926198369837  3.56513867926793
 1 -3.87748119081908  0.83365804980498  3.81846425922592
 1 -2.13973645854586 -1.56701666206621 -0.37557146634663
 1 -2.29017068956896  0.17148439883988 -0.75151519111911
 1 -0.16539005640564  0.87313192709271  0.59909030813081
 1 -0.39662746474648 -0.72143665886589  1.52185614081408
 1 -5.96110488588859  6.84833347744774  0.54107981718172
 1 -5.56711370077008  6.05287865096510  2.14650094719472
 1 -4.45938989498950  5.74018518491849  0.62457563316332
 1 -9.17406945944595  5.99585573367337 -0.89871009920992
 1 -9.35637685358536  7.92804354325432  0.45862548434844
 1 -8.14422388818882  7.23094949444945  1.62850123562356
 1 -12.13722782788279  3.07019734573457 -2.01801480618062
 1 -13.38928859805980  1.90058394959496 -1.30292148364836
 1 -12.41001273237324  2.71721037573757 -0.17631887588759
 1 -12.38625340374037 -1.82040148524853 -1.16546150105011
 1 -13.40150886978698 -0.17780451725173 -1.36007153465347
 1 -13.12983933653365 -1.75205989218922 -3.45989587408741
 1 -12.28309187338734 -0.03157769536954 -3.91539503520352
 1 -11.26515279457946 -1.50141500860086 -3.40628924892489
 1 -9.28240784378438 -4.53093383628363 -1.77233049714971
 1 -7.76798616341634 -5.66806681088109 -0.95585519851985
 1 -9.17257714261426 -4.96844186548655 -0.02733455605561
 1 -3.37699839573957 -3.41736498719872 -0.09595486698670
 1 -1.55954412091209 -4.31504794449445  3.32328524382438
 1 -3.02774238283828 -5.33683530113011  3.64382722162216
 1 -1.44043215471547 -5.92338161136114  2.62240619351935
 1  2.78364766886689 -1.68369020492049 -1.71334529952995
 1  2.61564904250425  0.08418269786979 -2.06536968916892
 1  4.33557446304630 -0.96143835903590  0.42189540554055
 1  4.03004196769677  1.19306801720172 -2.64644301400140
 1  5.25958136983698  2.32805306420642 -2.14261072927293
 1  5.92207951555156  0.90652175967597 -2.78843757475748
 1  6.73551561446145  1.59714371437144 -0.14449180638064
 1  6.15322944234423  0.09334129672967  0.75857557425743
 1  7.34165154985499 -1.38141737693769 -1.11479280288029
 1  7.74386682258226  0.17936114421442 -2.15993891749175
 1  9.00126217781778  1.08992687768777 -0.07534990279028
 1  8.75895438413841 -0.49564507070707  0.79205706940694
 1  10.27256480788079  0.12076461416142 -1.89784467396740
 1  9.44897988348835 -2.36215419191919 -1.95109103390339
 1  11.08316087178718 -2.45975275917592 -1.96171041494149
 1  10.14988787478748 -2.71479342134213 -0.48158759845985
 1  11.20629831073107  0.91899412961296  0.24484597209721
 1  11.15457851125113 -0.79886584788479  0.81774239583958
 1  12.66936025492549 -1.57226538773877 -0.97436510411041
 1  12.78373212571257  0.05207589858986 -1.53603696499650
 1  14.01291272797280  1.09909246524652  0.53579092209221
 1  13.98678143124313 -0.62747235193519  1.08748526502650
 1  15.17221050955095  0.48684816981698 -1.42958731673167
 1  15.47216465936594 -2.15856614871487  0.23845239133913
 1  14.74277732843284 -1.97769014461446 -1.35142255735574
 1  16.58705833523353 -2.17241276617662 -1.30352182168217
 1  16.03570877157716  1.66547438113811  0.64042058635864
 1  16.37504195139514  0.05567639253925  1.54979774097410
 1  18.36011695039504 -0.32597914531453 -0.43301664206421
 1  17.90596766126613  1.09583690259026 -1.14212778857886
 1  18.53922471507151  2.25066922462246  1.05124312961296
 1  18.80803796409641  0.58178235923592  1.72229222952295
 1  20.60792570527053  0.04219036723672  0.05015207920792
 1  20.15396950355035  3.00223378527853 -0.92234582798280
 1  21.38098235033504  1.95588224102410 -1.49726108940894
 1  19.72077598199820  1.62629444024402 -1.96369333833383
 1  21.15455143034303  0.87654576367637  2.12835245244524
 1  22.14328603490349  1.80705193489349  1.03695866216622
 1  20.78078780868087  2.68507859115912  1.92682312281228
=======
12 -7.11556212921292  0.58889763786379  0.05914360176018
 6 -4.83788840684068 -1.90007118551855  0.43709024172417
 6 -4.86377630653065  2.85334378167817  1.14750111501150
 6 -9.49390412591259  3.02192768826883 -0.19369222892289
 6 -9.47686800050005 -1.78570408140814 -0.94142057115712
 7 -5.08519194379438  0.45785560366037  0.63370378867887
 6 -4.34411411751175 -0.65920574257426  0.83281130433043
 6 -2.91780078547855 -0.29225865156516  1.12711306550655
 6 -3.01638507690769  1.15592826112611  1.62899363006301
 6 -4.45153214811481  1.51051179998000  1.01349837973797
 6 -2.91808689078908  1.27565985408541  3.11249265816582
 6 -1.96770023102310 -0.56767202860286  0.06016997529753
 6 -0.47251467406741 -0.34637898509851  0.42901703100310
 6  0.47346848404840 -0.64531804470447 -0.62171755225523
 8  0.22652389248925 -1.15055046264626 -1.76176250795079
 8  1.76280809130913 -0.28823622002200 -0.22761955085509
 7 -7.18240868876888  2.57475306510651  0.40314901040104
 6 -6.12673195219522  3.39448042384238  0.77961149474947
 6 -6.54933218631863  4.78950323972397  0.74678536573657
 6 -7.86534924192419  4.85846647814781  0.44372276357636
 6 -8.17322159375938  3.44669386468647  0.12292483878388
 6 -5.57284524122412  5.91731419731973  1.25010977147715
 6 -8.61226902450245  5.99432046574657  0.23500048544854
 6 -8.44408830013001  7.22144826342634  0.78063431323132
 7 -9.13158543114311  0.60233309440944 -0.59999403310331
 6 -9.93052931263126  1.73433338643864 -0.63755007910791
 6 -11.29062815941594  1.36452479157916 -0.99839155865587
 6 -11.18759116301630  0.02069743384338 -1.26346506050605
 6 -9.96105178587859 -0.42584455875588 -0.89719473557356
 6 -12.36157498119812  2.33017358835884 -1.26094286908691
 6 -12.37015156145615 -0.84687209730973 -1.84454526302630
 6 -12.38335582398240 -1.04637704890489 -3.32195731433143
 7 -7.13848331663166 -1.37954756835684 -0.28541321832183
 6 -8.23808404820482 -2.26256142824282 -0.64106906210621
 6 -7.68981512711271 -3.55609387688769 -0.49776705400540
 6 -6.48806269036904 -3.57230156715672 -0.06468820072007
 6 -6.14793739013901 -2.15700398169817 -0.00669786558656
 6 -8.49995746314631 -4.83288613101310 -0.78586706510651
 6 -5.25493996429643 -4.40037392089209  0.22237511011101
 8 -5.13607244514451 -5.55147963136314  0.27691472217222
 6 -4.11483506290629 -3.28259404920492  0.51940180548055
 6 -3.48978960986099 -3.57192241354135  1.90696106900690
 8 -3.67917951855185 -3.01921865806581  2.88412109320932
 8 -2.69390058375838 -4.62959768216822  1.77207578847885
 6 -2.20337092499250 -5.09475370447045  3.05546048154815
 6  2.83052556425643 -0.44111190579058 -1.31566276667667
 6  4.13165525452545 -0.30727890419042 -0.65276542554255
 6  5.10257374177418  0.43049931533153 -0.91382115481548
 6  5.12451087408741  1.40373302260226 -2.06290045534553
 6  6.34659899269927  0.44338618881888 -0.23098958415842
 6  7.67701523942394 -0.23135348224822 -0.91933888438844
 6  8.91576344894490 -0.41043617401740 -0.05914772757276
 6  10.18235886038604 -0.75539261096110 -0.72243321382138
 6  10.26589328952895 -2.24317525362536 -1.11537500250025
 6  11.44691756865687 -0.24314809560956  0.08024889348935
 6  12.81384629232923 -0.69395344644464 -0.61547157005701
 6  13.97053652205221 -0.10816201900190  0.32112918041804
 6  15.35530165506551 -0.35901963106311 -0.38285652545255
 6  15.76363803270327 -1.79354698849885 -0.73099271697170
 6  16.38938304420442  0.44712907290729  0.40117462466247
 6  17.80880546994699  0.49260065846585 -0.35528134273427
 6  18.85313568306831  1.12622083908391  0.64099453245325
 6  20.24513318251825  1.41855218871887  0.09828459165917
 6  20.29784113791379  2.22704100130013 -1.23598459115912
 6  21.12958388918892  2.00647358365837  1.19818518191819
 1 -4.24796628112811  3.44105962736274  1.38219280618062
 1 -10.03735412811281  3.73053388838884 -0.24016940844084
 1 -10.16398968836884 -2.37389673047305 -1.24391104330433
 1 -2.38267472437244 -0.79524783868387  2.08196888808881
 1 -2.34482808800880  1.62349593219322  1.12030268066807
 1 -1.78935339283928  1.17333778667867  3.60442415591559
 1 -3.23795885588559  2.34768882638264  3.45153731913191
 1 -3.69400284298430  0.44706939093909  3.69535194799480
 1 -1.97417990289029 -1.72407236763676 -0.27002091129113
 1 -2.25143681618162  0.04951220162016 -0.80311035063506
 1 -0.26513003040304  0.72730734463446  0.56959735883588
 1 -0.18496629862986 -0.96744125932593  1.38877283248325
 1 -5.73059183458346  6.72204084818482  0.39266497569757
 1 -5.78265525492549  6.31755511861186  2.23071936903690
 1 -4.42232618861886  5.62505367176718  1.05052822842284
 1 -9.21057310981098  5.73647979607961 -0.56351657985799
 1 -9.23722493839384  7.89697043594359  0.76817643944394
 1 -7.53539300510051  7.35812221172117  1.37268565406541
 1 -12.04570867596760  3.18615894189419 -1.91182418711871
 1 -13.22773244244424  1.81269516071607 -1.87087827932793
 1 -12.94288601970197  2.89523817851785 -0.33738498249825
 1 -12.35034981338134 -1.82664210931093 -1.15337029192919
 1 -13.26061478037804 -0.33180991779178 -1.31926745424542
 1 -13.18536488908891 -1.64425911211121 -3.64792467696770
 1 -12.55194875907591 -0.11350588818882 -3.96252974867487
 1 -11.51745802510251 -1.38930379747975 -3.61257987798780
 1 -9.02639224222422 -4.72395313821382 -1.77970123422342
 1 -7.82473183798380 -5.81800180438044 -0.93704331733173
 1 -9.45393527842784 -4.95027004830483 -0.04881670427043
 1 -3.36331702760276 -3.58846209690969 -0.16110138163816
 1 -1.39873804030403 -4.17377381708171  3.15680859615962
 1 -2.90981058965897 -5.31744336193619  3.70876371527153
 1 -1.78244635613561 -6.12027130033003  2.81201515441544
 1  2.61476078017802 -1.38592042794279 -1.76928089308931
 1  2.68015549314932  0.49077335693569 -1.98966211841184
 1  4.19124002960296 -0.93026524172417  0.33934715071507
 1  4.09605856935694  1.64889359975998 -2.54473284298430
 1  5.48909432113211  2.33449370827083 -1.69757622582258
 1  5.83817112471247  1.14972608010801 -3.06763549454945
 1  6.59462152505250  1.41049504950495  0.32043468626863
 1  6.27805192459246 -0.24305234263426  0.56703642034203
 1  7.46427381208121 -1.08447768296830 -1.68302962656266
 1  7.98068050395040  0.40249345744574 -1.74013693729373
 1  8.89899195079508  0.54090197519752  0.55510314251425
 1  8.55773426212621 -1.03586909310931  0.81600946464646
 1  10.08087563896390 -0.06369383168317 -1.70954584408441
 1  9.50231521702170 -2.54715269176918 -1.88166409120912
 1  11.07267982368237 -2.43217000090009 -1.82708695259526
 1  10.18219110511051 -2.94494643664366 -0.24560400010001
 1  11.40001768266827  0.89438166836684  0.19031051855185
 1  11.31905495889589 -0.73523948524852  1.18567918951895
 1  12.97717103600360 -1.80187834903490 -0.82757042464246
 1  12.93319707220722 -0.19313862286229 -1.49979334063406
 1  13.80721215791579  1.00914347034703  0.56116345934593
 1  13.83620637373737 -0.49896950165017  1.39338585508551
 1  15.36557984648465  0.26125561056106 -1.38481283928393
 1  15.89284672757276 -2.25851614371437  0.30280882698270
 1  15.09113216391639 -2.33954633023302 -1.25630304540454
 1  16.67111674107411 -1.76504202910291 -1.38484995449545
 1  16.07054225492549  1.42765059875988  0.85933247754775
 1  16.55621006820682 -0.22486166126613  1.30356311751175
 1  18.17768870757076 -0.47809435683568 -0.58015135553555
 1  17.70373743824383  0.89714703360336 -1.20023359915992
 1  18.39561035363536  2.11469562726273  0.92819082438244
 1  18.97254441474148  0.60853503450345  1.64658465876588
 1  20.52674758745875  0.35625177337734 -0.07383031903190
 1  19.89500360696070  3.25504906680668 -0.78724231763176
 1  21.49388364046405  2.50960761356136 -1.46695805910591
 1  19.85670957535754  1.98508031883188 -2.31959892889289
 1  20.97540351555156  1.39752786188619  2.27062667986799
 1  22.18597030333033  2.05039626932693  0.94322928922892
 1  20.70146987688769  3.05430551385139  1.48599904040404
>>>>>>> 8e03b5b5abfc0030b3aa597dc0de36371bfbd096

