%nproc=4
%Mem=2GB
# td=(NStates=1) CAM-B3LYP/6-31G(d,p) 

TD

0 1
12 -7.19766033903390  0.60955970407041  0.10752844024402
 6 -4.79268388638864 -2.00510168856886  0.56934346704670
 6 -4.85990591949195  2.83368181548155  1.11671803670367
 6 -9.45618035353535  3.10139563506351 -0.43702656235624
 6 -9.52106241994199 -1.78955446644664 -0.84372080118012
 7 -5.13092651725173  0.44153397149715  0.67736815511551
 6 -4.34144385048505 -0.70996081808181  0.90252827602760
 6 -2.93437244264426 -0.33768319401940  1.29508986318632
 6 -3.07797123552355  1.18683135143514  1.66728745944594
 6 -4.50907790269027  1.46518726752675  1.08176520642064
 6 -2.94004908700870  1.33886617471747  3.20289169806981
 6 -1.97243070407041 -0.58697395879588  0.09217317561756
 6 -0.49538696129613 -0.43584793199320  0.53321745104510
 6  0.53422455965597 -0.61098461136114 -0.61226660716072
 8  0.30368160826083 -0.92295770337034 -1.73393972567257
 8  1.76993880438044 -0.48044544094409 -0.20979776867687
 7 -7.15478592649265  2.59392498229823  0.26109480498050
 6 -6.11074035303530  3.39215019081908  0.78372190579058
 6 -6.53167042014201  4.71881617101710  0.83792447964797
 6 -7.81829453645365  4.82491312281228  0.35248363966397
 6 -8.17227149874988  3.54485368066807  0.07952049834984
 6 -5.62749070577058  5.84552701860186  1.25740050055006
 6 -8.65065286288629  6.00833186688669  0.20592757815782
 6 -8.48520241154115  7.20718683728373  0.90664691449145
 7 -9.18161043364336  0.69592245334533 -0.65946998069807
 6 -9.86522278197820  1.76733668676868 -0.68084440854085
 6 -11.19747884448445  1.46766510561056 -1.22747446694669
 6 -11.21157356125613  0.09892525662566 -1.39666838083808
 6 -9.93557923862386 -0.43476545084508 -0.92861787788779
 6 -12.42538136183618  2.46691726272627 -1.60588736353635
 6 -12.36251079737974 -0.89104651475148 -1.81868267676768
 6 -12.40319780818082 -1.10361277247725 -3.29909502810281
 7 -7.25940540884088 -1.38421803540354 -0.09265394239424
 6 -8.25726596639664 -2.25323049514952 -0.50520547574758
 6 -7.82493863946395 -3.67266553405341 -0.46427370467047
 6 -6.50435431953195 -3.54295863286329 -0.00250198209821
 6 -6.22451504790479 -2.17756603790379  0.17064986918692
 6 -8.64565203260326 -4.87891073347335 -0.86838531693169
 6 -5.32276674697470 -4.41084496799680  0.23590646324632
 8 -5.19981881978198 -5.58787327072707  0.11020805150515
 6 -4.23935751515152 -3.34723051285129  0.53907377267727
 6 -3.55262589348935 -3.66918213951395  1.89820019291929
 8 -3.71560316091609 -3.04706144234423  2.95533821492149
 8 -2.70376156985699 -4.68158288068807  1.81891047194719
 6 -2.14140472837284 -5.16661089018902  3.01848678417842
 6  2.86930944264426 -0.61229902450245 -1.21452265266527
 6  4.19078116711671 -0.43223139943994 -0.54995514451445
 6  5.17691117551755  0.33932019741974 -0.87289706240624
 6  5.15139356235624  1.27434008330833 -2.06773093839384
 6  6.47212154495450  0.36716856705671 -0.08929541474147
 6  7.65324286218622 -0.17965831273127 -0.82747969846985
 6  8.91815368796880 -0.12330746114611 -0.00828264106411
 6  10.23563418791879 -0.57596466816682 -0.85019599009901
 6  10.09433613381338 -2.07342827892789 -1.11891535653565
 6  11.56885976287629 -0.31304508530853  0.02400326892689
 6  12.83275818351835 -0.51053510461046 -0.73364338723872
 6  14.12794226262626 -0.03909511231123  0.01697876537654
 6  15.49490561546155 -0.20714444354435 -0.62210044984498
 6  15.67695936483648 -1.60100773457346 -0.93173279097910
 6  16.52142624852485  0.35198955895590  0.28133264046405
 6  17.90890547994799  0.44347574597460 -0.31956777137714
 6  18.80689105860586  1.23275149214921  0.65917635063506
 6  20.26778544774477  1.42871320482048  0.13771853505351
 6  20.46341769556956  2.11399969716972 -1.07418841154115
 6  21.23546447724772  1.90606354265427  1.30179554295430
 1 -4.17627911241124  3.60839636103610  1.25382996989699
 1 -10.25373576627663  3.89431026602660 -0.45540093159316
 1 -10.61971526092609 -2.49998933973397 -1.05925257745775
 1 -2.46210266716672 -0.92310062396240  2.06305699689969
 1 -2.39117272247225  2.02010559315932  1.09876052645264
 1 -1.99988444594459  1.09052950585058  3.53808752225223
 1 -3.26894195419542  2.37433149064907  3.63665583098310
 1 -3.83865730843084  0.52527721172117  3.53661607440744
 1 -2.01962444734473 -1.50044000440044 -0.39155306450645
 1 -2.25703737623762  0.09108635903590 -0.66990703030303
 1 -0.49548306570657  0.61655626952695  0.87751815091509
 1 -0.35996379837984 -1.12410692589259  1.44547850305031
 1 -5.58861763716372  6.89048769286929  0.78931464066407
 1 -5.85429241864186  5.97610097319732  2.27645394249425
 1 -4.48054201020102  5.50125129152915  1.08869204480448
 1 -9.42740479297930  5.99773592169217 -0.65246547474747
 1 -9.14104532043204  7.96596733563356  0.57175679747975
 1 -7.67659712551255  7.38229462896290  1.67926631213121
 1 -11.99218332343234  3.07948827482748 -2.45747875257526
 1 -13.31482115131513  1.87642153335333 -1.98228942044204
 1 -12.69799153025303  2.94990364506451 -0.74397564156416
 1 -12.10463524192419 -1.81649109420942 -1.20148510341034
 1 -13.32746146504650 -0.40209694649465 -1.50888641614161
 1 -13.27347369997000 -1.60289497569757 -3.44465434993499
 1 -12.53359692389239 -0.13802834043404 -3.76975047074708
 1 -11.47965424472447 -1.45689055615561 -3.89143776377638
 1 -8.83950355335534 -4.83098384128413 -1.97934119821982
 1 -8.13298266306631 -5.84641464566457 -0.70395000800080
 1 -9.44698458335834 -4.81936695799580 -0.23183500610061
 1 -3.38142883878388 -3.51624487518752 -0.27315258675868
 1 -1.92224039053905 -4.30183662336234  3.72124503980398
 1 -3.11735134373437 -5.56564818241824  3.57403024192419
 1 -1.34672278377838 -5.72219149234923  2.70492444534453
 1  2.87681698579858 -1.62307414331433 -1.62327629262926
 1  2.78798627622762  0.09181346094610 -1.96986013821382
 1  4.17376828242824 -0.88628084328433  0.54475769176918
 1  4.11557052055205  1.43586229662966 -2.47468583828383
 1  5.53567897959796  2.27199745864586 -1.60401686988699
 1  6.01637894549455  0.95185629312931 -2.81130986198620
 1  6.64681674457446  1.42949694969497  0.40977362016202
 1  6.34152827222722 -0.20764880228023  0.91603131983198
 1  7.35553293799380 -1.21942117731773 -1.14745606920692
 1  7.97428986488649  0.45390859895990 -1.74761768536854
 1  9.08937098869887  0.82865075007501  0.42216984918492
 1  8.90739922862286 -0.86114162036204  0.75012287598760
 1  10.47731528292829 -0.16653411571157 -1.84890978047805
 1  9.24137912341234 -2.34268224472447 -1.75663158795880
 1  11.04775733143314 -2.59451623552355 -1.71530577447745
 1  9.96506939293930 -2.61679362136214 -0.03350278997900
 1  11.46056373727373  0.78950118031803  0.35709719721972
 1  11.48378143154316 -0.92117807910791  0.91028164976498
 1  12.77047036593659 -1.62254041524152 -0.90421808940894
 1  12.77905165766577 -0.09266857585759 -1.70781414271427
 1  14.06227766446645  0.86759931593159  0.44654199719972
 1  14.08577133023302 -0.39891949664967  1.06431294779478
 1  15.57645093359336  0.33943342834283 -1.61021537953795
 1  15.48233567646765 -2.15933622572257 -0.02287374127413
 1  15.08575162586259 -2.17810018561856 -1.53233064816482
 1  16.70195982538254 -1.94249977487749 -1.31514298379838
 1  16.11728692939294  1.25336317001700  0.68701524582458
 1  16.70187463466347 -0.17670684578458  1.12279504070407
 1  18.37404834353435 -0.60162671007101 -0.42410575097510
 1  17.85189225372537  0.67181450035003 -1.38077165296530
 1  18.18886967956796  2.29168332603260  0.92285029032903
 1  19.04840200050005  0.77848202920292  1.70218021832183
 1  20.33016792949295  0.30809695789579 -0.17956089208921
 1  20.46600070667067  3.33645720762076 -0.88577217061706
 1  21.50804505660566  1.87599425222522 -1.29618098139814
 1  19.77129103350335  1.94169598039804 -1.87236420542054
 1  21.18778475367537  1.36770487958796  2.30109972717272
 1  22.29520122642264  1.99760098979898  0.91335630193019
 1  20.90233996389639  3.01914199749975  1.49360980148015

