%nproc=4
%Mem=3GB
# td=(NStates=1) iop(3/107=0140000000,3/108=0140000000) CAM-B3LYP/6-31G(d,p) 

TD

0 1
12 -7.20987567926793  0.65765414891489  0.18905527552755
 6 -4.82072088858886 -1.94146137673767  0.52368777117712
 6 -4.76639266986699  2.83480219811981  1.14800490569057
 6 -9.38514527902790  3.11023857685769 -0.32753522882288
 6 -9.45628172617262 -1.70141190689069 -0.79978678357836
 7 -5.10891792299230  0.38885497609761  0.69062688668867
 6 -4.37756000330033 -0.69572071527153  0.77583547824782
 6 -2.94629084968497 -0.35110350835084  1.19006467556756
 6 -3.09080230713071  1.02598129972997  1.68331461076108
 6 -4.43362359705971  1.47135178627863  1.12793718761876
 6 -2.97252343314331  1.09880269956996  3.19358467306731
 6 -1.93427915761576 -0.47083307250725  0.02055586588659
 6 -0.47514322352235 -0.40670391839184  0.50249363166317
 6  0.51043296649665 -0.68923554545455 -0.70745053515352
 8  0.19296951375138 -1.00809458715872 -1.81289868296830
 8  1.80484908330833 -0.63234317271727 -0.17371275887589
 7 -7.09462710611061  2.64292750265027  0.41647257135714
 6 -5.96493663746375  3.29802356975698  0.69105498159816
 6 -6.36557146554655  4.75534239783978  0.74407266596660
 6 -7.68875366066607  4.87097890309031  0.28765489188919
 6 -8.20228975647565  3.48215515431543  0.09874787338734
 6 -5.45632766666667  5.87544701840184  1.14552470767077
 6 -8.45758576657666  5.97985825542554  0.05180579307931
 6 -8.45099350935094  7.25868501820182  0.71481554085409
 7 -9.17148618971897  0.67760475487549 -0.57231380528053
 6 -9.86635412171217  1.82061538583858 -0.61745455895590
 6 -11.22713666636664  1.51118056255626 -1.08684354405441
 6 -11.34734422162216  0.14105165096510 -1.28869889818982
 6 -9.96592419601960 -0.34963515691569 -0.85365756705671
 6 -12.31109204690469  2.53246848824883 -1.30468992169217
 6 -12.38792258515852 -0.72146827062706 -1.72846217681768
 6 -12.20831274017402 -1.18075826812681 -3.24328497969797
 7 -7.23374633703370 -1.34418925462546 -0.04495717081708
 6 -8.23309763606361 -2.10010855635564 -0.52866444634463
 6 -7.87314935473547 -3.52666321772177 -0.49103940374037
 6 -6.53423121362136 -3.63363634573457 -0.10288236993699
 6 -6.21245497719772 -2.18052600840084  0.04273610901090
 6 -8.86974931443144 -4.72679877827783 -0.75639902300230
 6 -5.35947141004100 -4.34681824522452  0.24947992209221
 8 -5.09635062736274 -5.61145800280028  0.20490643924392
 6 -4.24599910251025 -3.28091553895390  0.54281260286029
 6 -3.48768294509451 -3.74459240194019  1.89379534803480
 8 -3.76730951435144 -3.20392775067507  2.95675903410341
 8 -2.71605695849585 -4.74955357385739  1.67849688718872
 6 -2.09194815181518 -5.26240144604460  2.88221562196220
 6  2.73249957035704 -0.69771806070607 -1.27423094029403
 6  4.12448333353335 -0.42401766966697 -0.60889345214521
 6  5.17097258855886  0.33871039903990 -1.00277315431543
 6  5.16814053965397  1.11660933623362 -2.25634976997700
 6  6.47343362206221  0.34924554055406 -0.19964048844885
 6  7.65018647124712 -0.31735028302830 -0.93297362606261
 6  8.91297900950095 -0.18751056715672 -0.19712581498150
 6  10.27848330893089 -0.62689435263526 -0.89861558155816
 6  10.15633891049105 -2.10292817271727 -1.17875484148415
 6  11.39118378217822 -0.09634452555256  0.04298633613361
 6  12.69035677117712 -0.39556959045905 -0.65325283038304
 6  14.00026129792979  0.01474576027603  0.18543495509551
 6  15.37095308630863 -0.08654773837384 -0.46268192069207
 6  15.72650892189219 -1.53319170747075 -0.99903172947295
 6  16.40870786348635  0.50951746904690  0.51733646834683
 6  17.74589217691769  0.60789451905190 -0.08330485748575
 6  18.78952937153715  1.26018409690969  0.75509876657666
 6  20.23667647204720  1.24894432693269  0.16884359035904
 6  20.30532337813781  2.25541284638464 -1.03568826472647
 6  21.26559162616261  1.60380208010801  1.30321426142614
 1 -4.06563692719272  3.63996724812481  1.36074217001700
 1 -10.13625574887489  3.81202347684769 -0.35574010021002
 1 -10.30484490859086 -2.54003953905391 -0.93643146254625
 1 -2.50946823402340 -1.27692789548955  1.88075456615662
 1 -2.36813027932793  1.71840390149015  1.17695134413441
 1 -1.99862294869487  0.60967007340734  3.49231956935694
 1 -3.20453756285629  2.17694691749175  3.56739476167617
 1 -3.77183998449845  0.56875202950295  3.73114479967997
 1 -1.78713383238324 -1.22684335513551 -0.65200320742074
 1 -2.03302967196720  0.20584820462046 -0.72362909750975
 1 -0.35330075877588  0.68033762106211  0.75405926892689
 1 -0.14421284158416 -1.05154592119212  1.29540299859986
 1 -5.57186136383638  6.81613912591259  0.48222805410541
 1 -5.56246771807181  5.92756563796380  2.27619963246325
 1 -4.39997484208421  5.69822409040904  1.02074280688069
 1 -9.23643390319032  5.88844222622262 -0.61651300400040
 1 -8.89654871857186  8.31171089208921  0.61179095479548
 1 -7.59842777487749  7.16031286768677  1.40976993729373
 1 -12.05037551055105  3.29692883998400 -2.04443027452745
 1 -13.29316661436144  1.98542728512851 -1.88092382058206
 1 -12.58449948264827  2.93211054515452 -0.38011845134513
 1 -12.58433039793979 -1.46042696549655 -0.93415691659166
 1 -13.37179947904790 -0.26305901640164 -1.67099285368537
 1 -13.12860806000600 -1.67702136423642 -3.68039899799980
 1 -11.97559796549655 -0.25687415871587 -3.87232621102110
 1 -11.25417025642564 -1.88761978917892 -3.46400467866787
 1 -9.21910652925292 -4.72548904970497 -1.68237430043004
 1 -8.28340272547255 -5.71864781808181 -0.67678763386339
 1 -9.75157933693369 -4.89545799419942 -0.13571584028403
 1 -3.55587310581058 -3.41505811141114 -0.34333207130713
 1 -1.29923331093109 -4.38349056245625  3.28821053865387
 1 -2.81846828412841 -5.48691821672167  3.72249328702870
 1 -1.52852337283728 -6.32747353215322  2.53504686578658
 1  2.75475353015302 -1.61800842364236 -1.97395884458446
 1  2.61428787008701  0.13779186398640 -2.08361941944194
 1  4.36992747944795 -0.94647306110611  0.34462586278628
 1  4.23632894439444  1.29968551125112 -2.60101058675868
 1  5.43551048324832  2.12986341024102 -1.94460189858986
 1  5.71030059855986  0.85268645954595 -3.05207146404641
 1  6.98642682658266  1.45159514011401 -0.02923330943094
 1  6.40396826892689 -0.00954829152915  0.90274647014701
 1  7.50667279007901 -1.45137581058106 -1.22465722292229
 1  7.89793235173517  0.23309241224122 -1.99635045794580
 1  9.03510955525553  0.74261375887589  0.17378980708071
 1  8.98098121892189 -0.76119447214721  0.84160028342834
 1  10.42964759655966  0.11502765056506 -1.73926908490849
 1  9.35986559565957 -2.24183246674667 -1.89316769866987
 1  10.99742888348835 -2.62642604190419 -1.60473583168317
 1  10.02605480258026 -2.76697081178118 -0.33422081578158
 1  11.15572721432143  0.96033246664667  0.13466123692369
 1  11.66646424192419 -0.69075037263726  1.19810613071307
 1  12.63231118361836 -1.40041746104610 -0.93646591809181
 1  12.85118094799480  0.09856479247925 -1.59704403810381
 1  13.84249566986699  0.95737110041004  0.69413424212421
 1  13.82920123072307 -0.50951733063306  1.09166154015402
 1  15.27470787218722  0.57935133213321 -1.36467773657366
 1  15.49883368016802 -2.28522786398640 -0.17120525602560
 1  14.93701534593459 -1.78376289628963 -1.59744111761176
 1  16.63421170077008 -1.66254715171517 -1.56070258355836
 1  16.12264553805381  1.53943227692769  0.90406632293229
 1  16.53595767356736 -0.09499578437844  1.23612210691069
 1  18.18919565726573 -0.33268978297830 -0.58779897549755
 1  17.74955226482648  1.20053894799480 -1.00064580818082
 1  18.40863992089209  2.43373464146415  0.89556150295030
 1  18.76434239673967  0.96358119761976  1.87830107560756
 1  20.23708354065407  0.19594059165917 -0.12569667746775
 1  20.05584240274028  3.22628340484048 -0.65569775447545
 1  21.37573137393739  1.92344348644864 -1.29643762496250
 1  19.58600699829983  1.78097838803880 -1.64894327872787
 1  21.13114696819682  1.11216685758576  2.18692236103610
 1  22.29993788658866  1.61583205390539  0.97087374097410
 1  21.04139421792179  2.57698381558156  1.60527766446645

