%nproc=4
%Mem=2GB
# td=(NStates=1) CAM-B3LYP/6-31G(d,p) 

TD

0 1
<<<<<<< HEAD
12 -7.14079465246525  0.57200594869487  0.09321700910091
 6 -4.88018263626363 -1.99961113951395  0.58016454915492
 6 -4.78051798069807  2.78622707000700  1.04493085798580
 6 -9.40821555705570  3.10705620112011 -0.28794165386539
 6 -9.54292460616062 -1.71322683368337 -0.84134056315632
 7 -5.02548597319732  0.46866668476848  0.65669608790879
 6 -4.38134784088409 -0.69400922292229  0.68257628082808
 6 -2.94050305570557 -0.40678010371037  1.00098045224522
 6 -2.96015945434543  1.08022069036904  1.59842057275728
 6 -4.36329332423242  1.51863261206121  1.11154818471847
 6 -2.94807989008901  1.27200948904891  3.03164457335734
 6 -1.92564602560256 -0.57750301170117 -0.10560660236024
 6 -0.42117954055406 -0.49390373757376  0.39355348464846
 6  0.57691882908291 -0.74090760366037 -0.80545592609261
 8  0.34116535663566 -1.12028743634363 -1.94771110281028
 8  1.84962677317732 -0.36370376677668 -0.36250303920392
 7 -7.08099854775478  2.60613620342034  0.33583227872787
 6 -5.96901618061806  3.31740271607161  0.76495002860286
 6 -6.42824007710771  4.74687897729773  0.80610129732973
 6 -7.75569827682768  4.81352198369837  0.45142353365337
 6 -8.14816908850885  3.35823501880188  0.15166771307131
 6 -5.56923488018802  5.92811527742774  1.18814357485749
 6 -8.50743854145414  5.93777481118112  0.18091507690769
 6 -8.50126401770177  7.13584970357036  0.92709895969597
 7 -9.13360563316332  0.68073093419342 -0.56778081178118
 6 -9.92751901160116  1.81699165226523 -0.60263658775878
 6 -11.26918601520152  1.49078741784178 -1.12380409990999
 6 -11.29769217311731  0.16072143624362 -1.22314102810281
 6 -9.93335901660166 -0.47010898519852 -0.91609662576258
 6 -12.33093191689169  2.55576614761476 -1.33690046484648
 6 -12.40417496379638 -0.65384279437944 -1.64171497999800
 6 -12.45255274367437 -0.97706011721172 -3.12573769236924
 7 -7.24539400770077 -1.44153376697670 -0.12214689168917
 6 -8.24501474127413 -2.25807097919792 -0.44603955915592
 6 -7.91204735033503 -3.59526779427943 -0.44030130743074
 6 -6.53315719981998 -3.53880821782178 -0.01383311521152
 6 -6.21471406780678 -2.20617889918992  0.09928273247325
 6 -8.76960442784278 -4.88498134053405 -0.67086556495650
 6 -5.31099556985699 -4.38212209570957  0.26998987158716
 8 -5.16944578247825 -5.57432191559156  0.13888091879188
 6 -4.19987356675668 -3.32548833863386  0.53141300660066
 6 -3.61040167106711 -3.64246946824683  1.90364073697370
 8 -3.77094869546955 -3.00366710291029  2.97481016211621
 8 -2.78442963666367 -4.59014373677368  1.82089066996700
 6 -2.20955154305431 -5.00127435653565  3.03539847534753
 6  2.81952446414641 -0.69334712931293 -1.30869206960696
 6  4.09830191919192 -0.51328950525052 -0.61065121412141
 6  5.17790127452745  0.24265053045305 -1.04304407710771
 6  5.30143856685669  1.17476012531253 -2.29115328062806
 6  6.44641897469747  0.23234508470847 -0.25248173337334
 6  7.70396793469347 -0.27473782068207 -0.95876282678268
 6  8.99793166576658 -0.17329245964596 -0.14078589138914
 6  10.21173179767977 -0.74905197689769 -0.88273924442444
 6  10.19230593079308 -2.20798173427343 -1.29080254525453
 6  11.39640251715172 -0.46794057485749 -0.01341047244724
 6  12.85898080578058 -0.49240329142914 -0.70997102000200
 6  14.03827329572957  0.05362415961596  0.17295436293629
 6  15.35165129002900 -0.13592732183218 -0.46981522132213
 6  15.78679034793479 -1.64771240504050 -0.77033665136514
 6  16.40815492139214  0.48951331133113  0.50014452165217
 6  17.82128671807181  0.72568396679668 -0.04255006960696
 6  18.81473184268427  1.35663388038804  0.83306373937394
 6  20.24483315251525  1.42758309180918  0.35897066026603
 6  20.20024137793779  2.08795709290929 -1.03093408610861
 6  21.11503243404341  2.12387532383238  1.35453081648165
 1 -3.82547403190319  3.52401792319232  1.48600318721872
 1 -10.12684307700770  3.99623045804580 -0.21450684218422
 1 -10.36656994639464 -2.33846318711871 -1.38346499869987
 1 -2.50446690359036 -1.15070338423842  1.97829852105211
 1 -2.22463606880688  1.63882746534653  1.10030068046805
 1 -2.00106456395640  1.04186463936394  3.14209792329233
 1 -3.35381044104410  2.29471352885289  3.36084825022502
 1 -3.50893433613361  0.61449613361336  3.47017943074307
 1 -2.04311679657966 -1.34583454385439 -0.81441535073507
 1 -2.24890656315632  0.22092934333433 -1.06825686528653
 1 -0.23570708810881  0.58891350525052  0.83347374647465
 1 -0.25773357535754 -1.26264077927793  1.16915087028703
 1 -5.96402517791779  6.88159680378038  0.67500320952095
 1 -5.70493748314831  6.14815817891789  2.33109940704070
 1 -4.52427638363836  5.80506167256726  1.17147032263226
 1 -9.21379343184319  5.81388753685369 -0.67657788598860
 1 -9.09118033393339  8.06584732363236  0.76304592639264
 1 -7.60333979977998  7.04827122662266  1.76814520002000
 1 -12.20025413051305  3.39794012001200 -2.08516152085209
 1 -13.30736040524052  2.09087297849785 -1.91122231373137
 1 -12.68991072217222  3.10209886458646 -0.38283952795280
 1 -12.32734751315132 -1.45259470457046 -1.08819377427743
 1 -13.48199691859186 -0.31193793059306 -1.41426695419542
 1 -13.35093144574457 -1.78562324852485 -3.10768065256526
 1 -12.77166073027303 -0.10496503410341 -3.83803729942994
 1 -11.45825210451045 -1.49692455955596 -3.28246686668667
 1 -9.22367197019702 -5.29970071297130 -1.70481374547455
 1 -8.13039240404040 -5.73563356755676 -0.66235584858486
 1 -9.63372325722572 -4.95500052135214  0.28191636903690
 1 -3.44862555845585 -3.54848809950995 -0.29556482798280
 1 -1.23194136063606 -4.26136257595760  3.30104301960196
 1 -2.88371798039804 -5.19960157775778  3.89117195609561
 1 -1.64123223472347 -6.00645991919192  3.00050400330033
 1  2.69040834493449 -1.67773960986099 -1.81259522452245
 1  2.80123760136014  0.01237551715171 -2.31537468966897
 1  4.07390829642964 -1.05544775997600  0.25767898389839
 1  4.23279224272427  1.58911762216222 -2.58397676737674
 1  5.82104751645165  2.12991325022502 -2.01349781798180
 1  5.73418072567257  0.56934804230423 -3.26059479047905
 1  6.59687175007501  1.20240424042404  0.17972061486149
 1  6.15056917631763 -0.37407544494449  0.62730244694469
 1  7.52353973867387 -1.34466370157016 -1.29181050465047
 1  7.80330276617662  0.36222943104310 -1.86068899249925
 1  9.04298635023502  0.91106899189919 -0.12170453825383
 1  9.03771225992599 -0.78443394959496  0.86849471317132
 1  10.20651820322032 -0.25530299259926 -1.88824371387139
 1  9.41540652615261 -2.75913388988899 -2.17899382418242
 1  11.28112066776678 -2.45024180808081 -1.68141238513851
 1  10.18080096609661 -2.76228817081708 -0.36790623032303
 1  11.24663234413441  0.45756798699870  0.31548303580358
 1  11.44734778817882 -1.14650061136114  0.73583420502050
 1  12.97819113801380 -1.60749891109111 -1.00379804740474
 1  13.01159491199120 -0.03005231423142 -1.63722708400840
 1  13.91299273597360  1.00959351535154  0.60157750075007
 1  14.01210396349635 -0.52519212391239  1.22086860336034
 1  15.35206849534953  0.36111559655966 -1.37344170217022
 1  15.64764220712071 -2.13800409250925  0.19694824092409
 1  14.98716176687669 -2.04871724732473 -1.62807022212221
 1  16.84223385278528 -1.86321184608461 -1.12373384288429
 1  16.15922112281228  1.57978581228123  0.75877242154215
 1  16.44187863506350  0.13060388528853  1.44876763796380
 1  18.17624856355636 -0.33559010641064 -0.62818615901590
 1  17.47211427592759  1.28692601150115 -1.10310388618862
 1  18.39128992159216  2.37071122882288  1.26473447874787
 1  18.91202836313632  0.69266344734473  1.76961696199620
 1  20.74134904760476  0.48047419561956  0.19584664866487
 1  19.69545365196520  3.12921648354835 -1.15632922632263
 1  21.32004625672567  2.17882453525353 -1.30857222052205
 1  19.72152605700570  1.60728253905391 -1.75990295929593
 1  21.10207618281828  1.71157926702670  2.42373199039904
 1  22.11775348164817  2.12403363306331  1.22564753105311
 1  20.74614434433444  3.16521660496050  1.55435587608761
=======
12 -7.17183775677568  0.61900064816482  0.01291897929793
 6 -4.82439705770577 -1.94794597299730  0.54127065976598
 6 -4.99468939783978  2.88898734603460  1.37942430733073
 6 -9.44816955245525  3.14286978247825 -0.40046290599060
 6 -9.42552286598660 -1.78348385938594 -1.01762819191919
 7 -5.19448287288729  0.50364018211821  0.80338075637564
 6 -4.40054976107611 -0.62581240324032  0.86414443764376
 6 -2.95507451285128 -0.30279970567057  1.27258761296130
 6 -3.13190662906291  1.09927259555956  1.78828955965597
 6 -4.45504249914991  1.58098884768477  1.29554658455846
 6 -3.08813389548955  1.26637892599260  3.30708211711171
 6 -1.90421388238824 -0.56733199459946  0.10124408270827
 6 -0.52400982358236 -0.42706705390539  0.56801093039304
 6  0.53518465566557 -0.68473198609861 -0.52166754725473
 8  0.21151239133913 -1.11526693429343 -1.63505983768377
 8  1.74461627212721 -0.50486788318832 -0.12653944284428
 7 -7.20496094399440  2.61857744754475  0.32783147864786
 6 -6.12444172317232  3.34060503630363  0.81375490909091
 6 -6.47493474657466  4.75686997639764  0.91895258245825
 6 -7.76748945594559  4.93469410091009  0.27350574187419
 6 -8.23196746834684  3.49034823012301  0.04422696899690
 6 -5.59959791649165  5.88353081898190  1.47854261476148
 6 -8.50894869246925  6.04504553825383  0.09286627202720
 6 -8.44265815711571  7.24200031863186  0.73040929072907
 7 -9.11018329092909  0.65368822992299 -0.61294532823282
 6 -9.77986424612461  1.75365531863186 -0.76837316141614
 6 -11.18244734133413  1.44207254635464 -1.28853057255726
 6 -11.14028643254325  0.06901226532653 -1.38153686768677
 6 -9.79661534223422 -0.42267424172417 -1.01063607970797
 6 -12.31721054475448  2.45475604660466 -1.43058983378338
 6 -12.28114266056606 -0.71166857695770 -1.88774958345835
 6 -12.15999348774877 -0.95899831103110 -3.39917503610361
 7 -7.18491796009601 -1.49425903950395 -0.11619629662966
 6 -8.24470471027103 -2.35464063616362 -0.59179413461346
 6 -7.78445459105911 -3.65939420692069 -0.51296857415742
 6 -6.42983686778678 -3.53915825282528 -0.16009774167417
 6 -6.15042763916392 -2.23869215051505  0.02421522572257
 6 -8.62662012941294 -4.88670151255126 -0.80682916131613
 6 -5.26706117641764 -4.33154703820382  0.14589746234623
 8 -5.09290812871287 -5.55060954435443  0.14523155385539
 6 -4.10430400980098 -3.30364615441544  0.60258012331233
 6 -3.66835746664667 -3.62864808610861  2.04155452835284
 8 -3.99910151075108 -3.06857359355936  3.05963864496450
 8 -2.74115530923092 -4.60262498489849  1.85797437833783
 6 -2.19530011791179 -5.20060428952895  3.12946788228823
 6  2.73466597829783 -0.73597139173917 -1.22020322072207
 6  4.06990907990799 -0.55815399169917 -0.65905605460546
 6  5.09717320172017  0.24931119651965 -1.04130390309031
 6  5.05953437643764  1.17184983428343 -2.32839700500050
 6  6.38121245404540  0.24001585178518 -0.22891937713771
 6  7.59691722962296 -0.39432977987799 -1.04877182768277
 6  8.82542441504151 -0.37318244864486 -0.15880769356936
 6  10.19628025252525 -0.63923099479948 -0.80470144064406
 6  10.17869456965697 -2.13734467056706 -1.26563002800280
 6  11.42866574347435 -0.26506028682868  0.01800266886689
 6  12.81767667536754 -0.52652670377038 -0.61250127302730
 6  13.96215568396840 -0.10591179397940  0.25460252775278
 6  15.37769389428943 -0.02516624572457 -0.45671391119112
 6  15.72514418331833 -1.42050968476848 -0.93409302700270
 6  16.42912701860186  0.54012837283728  0.34422893009301
 6  17.91892648204820  0.58563996239624 -0.25873168776878
 6  18.90720108960896  1.37641585858586  0.68556898989899
 6  20.35769443864386  1.31740207370737  0.08663342654265
 6  20.47248860266027  2.21523982118212 -1.12596358905891
 6  21.38713964476448  1.88225116141614  1.13244860826083
 1 -4.30694217871787  3.66052157355736  1.90749533643364
 1 -10.07185757845784  3.94271510651065 -0.56619201070107
 1 -10.31249453885389 -2.44995433623362 -1.52905955815581
 1 -2.59510596749675 -0.98817713161316  2.08075876707671
 1 -2.40507411261126  1.70008359095910  1.30190084048405
 1 -2.01655611311131  1.00370082298230  3.61109482298230
 1 -3.39089414941494  2.27737179467947  3.62598476387639
 1 -3.93307675037504  0.57945262926293  3.63317573037304
 1 -1.93422590749075 -1.44734469486949 -0.29150305950595
 1 -2.15859753225322  0.29382663306331 -0.58003804340434
 1 -0.24332785018502  0.62486710061006  0.86118651775178
 1 -0.39720752275228 -1.17887240244024  1.40873482868287
 1 -5.75567434283428  6.74827347144715  0.84005971517152
 1 -5.69047603700370  6.06654001710171  2.49373567066707
 1 -4.47805176117612  5.54437560396040  1.25980915651565
 1 -9.18882093459346  6.22737888598860 -0.70695092329233
 1 -9.22765398129813  7.97461820072007  0.64075369716972
 1 -7.92064152995300  7.43074947444744  1.60378876437644
 1 -12.33364746984699  3.23993431943194 -2.22094509920992
 1 -13.16793646284628  1.82270616181618 -1.79648083958396
 1 -12.57919965106511  2.74661331603160 -0.34790603460346
 1 -12.32825760416042 -1.75716516161616 -1.68332328722872
 1 -13.31478019691969 -0.13284002080208 -1.73677920542054
 1 -12.98056440904090 -1.51302598879888 -3.59921980648065
 1 -12.43632719691969 -0.11878641624162 -4.03604710041004
 1 -11.15649192849285 -1.47679254635464 -3.80328894889489
 1 -8.99668927192719 -4.65232597549755 -2.00352361646165
 1 -8.08027739253925 -5.88337834203420 -0.75531514451445
 1 -9.43602348724872 -4.88131315261526 -0.16793861646165
 1 -3.20504120002000 -3.36613986468647 -0.14620989248925
 1 -1.70796896339634 -4.45160159985999  3.70331324662466
 1 -2.92045165376538 -5.76415803340334  3.84601744064406
 1 -1.34940305180518 -5.95531480468047  2.99078303120312
 1  2.44823412751275 -1.63272510841084 -1.56836080108011
 1  2.53946142374237  0.09454373397340 -1.82864601680168
 1  4.12265317091709 -0.92533474867487  0.41218443444344
 1  4.10472943644364  1.51633034343434 -2.71907027672767
 1  5.46020143184318  2.09346960586059 -2.02935940414041
 1  5.59295660326033  0.67079818731873 -3.10033876487649
 1  6.54750681358136  1.26969096909691  0.21802444524452
 1  6.11119523892389 -0.26179421682168  0.78990870757076
 1  7.51606899159916 -1.40866010121012 -1.41243256685669
 1  7.63149558545855  0.22636584468447 -2.05491841544154
 1  9.07452950455045  0.67462534753475  0.21052868506851
 1  8.73133162186219 -0.95443094929493  0.70687855155516
 1  10.20180773217322  0.13892643034303 -1.79065395489549
 1  9.14075906140614 -2.30686866336634 -1.76242216701670
 1  10.85510806650665 -2.46485326922692 -2.06607085098510
 1  10.19339222522252 -2.77706964896490 -0.32575201490149
 1  11.60865854675468  0.76405863606361  0.25899738723872
 1  11.63025607900790 -0.81922788408841  0.95336595819582
 1  13.03284660356036 -1.76166432763276 -0.53003067066707
 1  12.93484723722372 -0.19163847284728 -1.65418878017802
 1  13.91200263696370  0.96665922192219  0.63627097009701
 1  14.04782753585359 -0.69689929462946  1.26302281878188
 1  15.03464675317532  0.72184166916692 -1.39334369236924
 1  15.54775221812181 -2.31971226332633 -0.22049350325032
 1  15.08204125482548 -1.68464083968397 -1.94063147824783
 1  16.74747437683768 -1.60867639253925 -1.34083555305531
 1  16.13513871457146  1.51102893659366  0.85954249854986
 1  16.58198264546455  0.02115294019402  1.35811857305731
 1  18.28893983268327 -0.44523107050705 -0.26621996239624
 1  17.95725278977898  0.97394471337134 -1.31526510231023
 1  18.74607540014001  2.29929408710871  0.91300930623062
 1  18.76964412471247  0.65872005300530  1.50801080138014
 1  20.54840975367537  0.20521666986699 -0.18650158615862
 1  20.17522162876287  3.14559812171217 -1.02820641404140
 1  21.26308056015602  2.22100875367537 -1.57196856015601
 1  19.87597150155016  1.87968977977798 -1.85926289528953
 1  21.37855383058306  1.52589069816982  2.19739935713571
 1  22.28550025632563  1.82636386608661  0.71127609390939
 1  21.25807553745375  3.08137822112211  1.34697513801380
>>>>>>> 8e03b5b5abfc0030b3aa597dc0de36371bfbd096

