%nproc=4
%Mem=2GB
# td=(NStates=1) CAM-B3LYP/6-31G(d,p) 

TD

0 1
12 -7.18697927092709  0.63192194029403  0.12126981438144
 6 -4.75072969096910 -1.96223740214021  0.43454998769877
 6 -4.89338926782678  2.84015246254625  1.16117248214821
 6 -9.51181591709171  3.08208370387039 -0.38774163386339
 6 -9.50505081878188 -1.73924943594359 -0.82699912901290
 7 -5.20415383998400  0.47891770987099  0.67407782608261
 6 -4.34862456855686 -0.70124994699470  0.76677470067007
 6 -2.87878688408841 -0.36839626532653  1.05529588378838
 6 -3.03654709310931  1.12791545984598  1.55414614531453
 6 -4.51648864376438  1.53388413721372  1.12073910381038
 6 -2.88733381548155  1.29045133323332  3.13596500540054
 6 -1.93008646964696 -0.57848310971097 -0.03190923262326
 6 -0.42958038063806 -0.48060240744074  0.56937106640664
 6  0.56456759395940 -0.63307682058206 -0.59158453895390
 8  0.21184242434243 -0.97441284888489 -1.73757008870887
 8  1.77834964546455 -0.33613100950095 -0.14204099299930
 7 -7.18732918081808  2.62144773457346  0.16844554005401
 6 -6.11376065506551  3.38779975577558  0.74745827942794
 6 -6.43231048414841  4.85358964836484  0.81555224242424
 6 -7.75650835783578  4.88718935043504  0.46200459175918
 6 -8.21059533113311  3.47904710001000  0.04674722102210
 6 -5.57551550825083  5.96547901380138  1.24885964646465
 6 -8.55309310691069  6.04892592629263  0.17898488388839
 6 -8.52238612991299  7.21341746034603  0.72079832963296
 7 -9.15975824842484  0.71880474157416 -0.60657469116912
 6 -9.94535079477948  1.83882383548355 -0.68091441554155
 6 -11.34525362196220  1.37768610771077 -1.07021874137414
 6 -11.32875527942794  0.12014737883788 -1.18725743974397
 6 -9.89940562126213 -0.40594256855686 -0.88601361746175
 6 -12.43484230793079  2.35985655665567 -1.29677645244524
 6 -12.37548209450945 -0.84447185728573 -1.62287309580958
 6 -12.30881837023702 -1.18906131733173 -3.13923904250425
 7 -7.10039950825083 -1.33652326592659 -0.12598727572757
 6 -8.27080732053205 -2.19704487658766 -0.48116307150715
 6 -7.84668081368137 -3.64978324582458 -0.45950322762276
 6 -6.53374725882588 -3.59469380638064 -0.07139887178718
 6 -6.05407800420042 -2.23123140444044  0.07031983618362
 6 -8.69600706810681 -4.78452129452945 -0.90375885428543
 6 -5.41378584888489 -4.37461134463446  0.23223609620962
 8 -5.33493233113311 -5.57760224362436  0.31078810951095
 6 -4.15103868326833 -3.37682347214721  0.52150201550155
 6 -3.59206983788379 -3.67526274757476  1.89356972987299
 8 -3.88023962456246 -3.13423015921592  2.88799148024802
 8 -2.62142333603360 -4.59292401480148  1.71030961186119
 6 -2.32262285018502 -5.33977820692069  3.00139507500750
 6  2.76243875557556 -0.64656245084508 -1.23942514291429
 6  4.20471256025603 -0.41785996229623 -0.50619076807681
 6  5.19173265766577  0.22687895329533 -1.05623539623962
 6  5.11176959996000  1.07467011631163 -2.18998316361636
 6  6.48916324912491  0.32128397859786 -0.24668115331533
 6  7.72231976987699 -0.17360770767077 -1.03157010751075
 6  9.05521739433943 -0.10095522592259 -0.37899971277128
 6  10.36219684418442 -0.51440851255126 -1.02969393989399
 6  10.33140984118412 -1.98115905200520 -1.41310477547755
 6  11.52320519741974 -0.19289307010701 -0.00874000540054
 6  12.88663357105711 -0.51969602070207 -0.65318534143414
 6  13.91486095449545 -0.28008921172117  0.39997706520652
 6  15.36987311221122 -0.22998672777278 -0.34843308310831
 6  15.70809247814782 -1.68931656545655 -0.70774039173917
 6  16.45357946384638  0.23397775777578  0.60620512771277
 6  17.86708129752975  0.50998239663966 -0.15322113671367
 6  18.89493986348635  1.25052326932693  0.69993042604260
 6  20.33312198139814  1.43422375587559  0.23902866606661
 6  20.27512886668667  2.19648794599460 -1.18696968966897
 6  21.28704963576358  2.07595053135314  1.25547091049105
 1 -4.17026851135114  3.65773129452945  1.38853344024402
 1 -10.03664405710571  3.99472030703070 -0.54978036953695
 1 -10.25273856325633 -2.43301264206421 -1.27736438863886
 1 -2.81256771367137 -1.25641395529553  1.76081677287729
 1 -2.30023362856286  1.77085066766677  1.11323197359736
 1 -1.97886234373437  1.10925137803780  3.61975568906891
 1 -3.26056111611161  2.31784584208421  3.46482864826483
 1 -3.53789723242324  0.59411409540954  3.73682609540954
 1 -2.07954043894389 -1.55868582898290 -0.49608351755176
 1 -1.95203687618762  0.38649589999000 -0.77056709630963
 1  0.07888437103710  0.36906152005200  1.11046144524452
 1 -0.16300410241024 -1.41771628682868  1.27319127432743
 1 -5.64549332473247  6.81612025612561  0.72222793199320
 1 -5.63261025042504  6.07525088818882  2.32203850095009
 1 -4.51921587758776  5.65732689908991  1.17468064366437
 1 -9.52737478997900  5.92450859895990 -0.42446267446745
 1 -9.27319853575358  7.94821556045605  0.42172179397940
 1 -7.80832029782978  7.46460285978598  1.37181556705671
 1 -11.93554765986599  2.97130745674567 -2.18045104980498
 1 -13.24382405160516  2.00558444964496 -1.45877706920692
 1 -12.56032776387639  2.94801345604560 -0.36040728472847
 1 -12.06967174557456 -1.66835628072807 -0.96581153605361
 1 -13.27527624652465 -0.40490722752275 -1.47064259175918
 1 -13.09319567216722 -1.94740942714271 -3.40273015751575
 1 -12.59687325152515 -0.21001553915392 -3.73773726942694
 1 -11.22716899619962 -1.58646351345135 -3.43228184818482
 1 -8.84096369936994 -5.07313805670567 -2.02050531463146
 1 -8.16398576337634 -5.80115011921192 -0.36235584858486
 1 -9.81908179307931 -4.81368638993899 -0.53191501410141
 1 -3.40886158205821 -3.42990624132413 -0.23540881238124
 1 -1.49564773127313 -4.61725816551655  3.67561047634763
 1 -3.27081669026903 -5.58454007160716  3.55904874377438
 1 -1.77791590309031 -6.01781105430543  2.67968192109211
 1  2.67103640774077 -1.86651848774877 -1.49519348434843
 1  2.71192867046705  0.06370064966497 -1.97382053425342
 1  4.46713761936194 -0.94360657585759  0.45831904790479
 1  4.28274723822382  1.11912062246225 -2.95922429212921
 1  5.42191760346035  1.93864412331233 -1.75263173137314
 1  5.97562487008701  0.81810291779178 -2.97305603660366
 1  6.64936699959996  1.60935493549355 -0.29024638183818
 1  6.47923204260426 -0.22692072947295  0.71938165486549
 1  7.64293167786779 -1.39418865406541 -1.35259658325833
 1  7.86357879377938  0.32214542264226 -1.99250217381738
 1  9.12926497809781  0.86068395339534 -0.08138050585058
 1  9.07738622732273 -0.71006651285129  0.65018288198820
 1  10.70790834223422  0.23904644234423 -1.85255014451445
 1  9.53157814331433 -2.15327330383038 -2.31364728952895
 1  10.99495205090509 -2.44309109300930 -2.23544778867887
 1  9.83273615961596 -2.62966490849085 -0.42119155885589
 1  11.52154983588359  0.76296852705271  0.20843233073307
 1  11.31583463686369 -0.63157911921192  1.09191981358136
 1  12.80073339223922 -1.40443860506051 -1.16875454305431
 1  13.01975572807281  0.30289098009801 -1.41415477677768
 1  13.72133357005701  0.65863841984198  1.04486182918292
 1  14.06673942704271 -1.03776338103810  1.22828934543454
 1  15.25026831533153  0.30342982798280 -1.26039039703970
 1  15.93189063196320 -2.53424371647165 -0.06196765066507
 1  15.12211526222622 -2.10124249984999 -1.62157957305731
 1  16.68888851825183 -1.67173269816982 -1.11065253475348
 1  16.16350155085508  1.07507534123412  0.90641718601860
 1  16.48240268746875 -0.48827800290029  1.40785354655465
 1  18.23592453115312 -0.53540008740874 -0.44461780218022
 1  17.53558062256226  1.14170148904890 -0.96387996379638
 1  18.55673646624663  2.23862802050205  0.98997700300030
 1  18.73797095739574  0.95504968596860  1.73546354665467
 1  20.82657757045705  0.42042819101910  0.19604666866687
 1  20.01579568616862  3.31499506140614 -0.92097569096910
 1  21.31373562566257  2.30495714851485 -1.67247861116112
 1  19.56000990539054  1.88468027882788 -2.05128209720972
 1  21.15056103130313  1.43703181228123  2.09901951915191
 1  22.28209991629163  2.14703593329333  1.00031499779978
 1  20.74230396029603  3.14881496479648  1.55834627512751

