%nproc=4
%Mem=2GB
# td=(NStates=1) CAM-B3LYP/6-31G(d,p) 

TD

0 1
<<<<<<< HEAD
12 -7.09397997099710  0.64780352845285  0.05477316471647
 6 -4.84297891589159 -1.88029920832083  0.43796032873287
 6 -4.81232116101610  2.80869931723172  1.13800016491649
 6 -9.39383411891189  3.08485398089809 -0.37601046074607
 6 -9.57525783948395 -1.79985549654965 -0.78552498159816
 7 -5.06490991559156  0.49685950405041  0.63490390869087
 6 -4.30764047014701 -0.67219704170417  0.68786680988099
 6 -2.89159816521652 -0.41735116081608  1.16423677787779
 6 -2.99605304370437  1.15417808610861  1.60678140884088
 6 -4.26317331223122  1.50573132193219  1.06504353425343
 6 -2.89134421652165  1.27031932003200  3.10585199409941
 6 -1.82533599459946 -0.55314057545755  0.01683564186419
 6 -0.41039846244624 -0.51284563176318  0.57435156445645
 6  0.61709284648465 -0.69518303120312 -0.59744512501250
 8  0.45417665776578 -0.94537994559456 -1.74236056775678
 8  1.81411322182218 -0.49673707010701 -0.07354414331433
 7 -7.07507795569557  2.62759834963496  0.28813750925093
 6 -6.04707398639864  3.34965594139414  0.74522805640564
 6 -6.34747200030003  4.82040633003300  0.67420810801080
 6 -7.71604431143114  4.87003763526353  0.33712210351035
 6 -8.08424269586959  3.52440163546355  0.06284883118312
 6 -5.40774873157316  5.88112057795780  1.11936669716972
 6 -8.54320211781178  6.07805883958396  0.10013699909991
 6 -8.43439733103310  7.27523364196420  0.59757600740074
 7 -9.13203547614761  0.62153501460146 -0.58336236993699
 6 -9.89325558525853  1.76805675877588 -0.78720504460446
 6 -11.24304340094009  1.41872021112111 -1.10446216571657
 6 -11.29770217411741 -0.00621525742574 -0.91111982598260
 6 -9.96401208190819 -0.41962393669367 -0.74318933503350
 6 -12.36517534123412  2.28126869786979 -1.20305708050805
 6 -12.44332887918792 -0.83926133623362 -1.61529233773377
 6 -12.15298278667867 -1.25766817801780 -3.12503762236224
 7 -7.19300876917692 -1.34488410201020 -0.11938661566157
 6 -8.20914115391539 -2.12738791089109 -0.52996795199520
 6 -7.85270141574157 -3.57807607510751 -0.56791406870687
 6 -6.55211909600960 -3.47167150415042 -0.08620035193519
 6 -6.19932252865287 -2.16870515181518  0.01066387058706
 6 -8.59485695309531 -4.87896073847385 -0.95607408580858
 6 -5.33441791209121 -4.34492837633763  0.17559043164316
 8 -5.18512735063506 -5.52639712311231  0.07535456615662
 6 -4.10569414881488 -3.35248103790379  0.52999286458646
 6 -3.63278390929093 -3.63394861616162  1.88521889478948
 8 -3.83504510511051 -3.01597833403340  2.91225390649065
 8 -2.81621281498150 -4.74068879127913  1.81998057895790
 6 -2.43278386628663 -5.17977220632063  3.10954589008901
 6  2.82849536123612 -0.75497329192919 -1.14230543094309
 6  4.14367645664566 -0.55077325362536 -0.47244739373937
 6  5.06876036043604  0.32386865226523 -0.75959573227323
 6  5.00825924892489  1.29265191449145 -2.00370453575358
 6  6.43833816661666  0.36828867906791  0.00189370417042
 6  7.59869740764076 -0.12752309920992 -0.94893184368437
 6  8.96772864546455 -0.13389852025203 -0.14443625642564
 6  10.13618424292429 -0.52458953065307 -1.06688765926593
 6  10.06640334053405 -1.96597753385338 -1.57186065106511
 6  11.38114099099910 -0.36027980878088 -0.09997912931293
 6  12.72909781748175 -0.41887593869387 -0.80289031193119
 6  13.88292776117612 -0.08384958775878  0.24903197069707
 6  15.31288741364136 -0.21350507960796 -0.39359759955996
 6  15.74706637553755 -1.61291892569257 -1.11279089678968
 6  16.38084219011901  0.33153751375138  0.51614612181218
 6  17.79125371477148  0.57168856725673 -0.10866668126813
 6  18.69437980748075  1.35652386938694  0.72856328932893
 6  20.12762143134313  1.30622095559556  0.21154591779178
 6  20.38990034383438  2.24070236743674 -1.00049104180418
 6  21.17302823362336  1.83754669096910  1.34924028742874
 1 -4.25189667416742  3.58471399279928  1.70144473137314
 1 -10.10084047674767  3.94152498749875 -0.52379777127713
 1 -10.38752204160416 -2.47234657545755 -0.96662331453145
 1 -2.86689314621462 -1.33162147604761  1.99245993719372
 1 -1.92248585378538  1.47693127572757  1.08564921532153
 1 -2.02445690319032  0.82422287518752  3.66764047754775
 1 -2.90787584758476  2.28143220072007  3.36266843224322
 1 -3.76556999969997  0.77066175017502  3.80030244304430
 1 -2.07922040694069 -1.33977393779378 -0.83674758395840
 1 -2.09759143164316  0.38361561196120 -0.65450549014901
 1 -0.13270678807881  0.38162277617762  1.25013541264126
 1 -0.31550935293529 -1.60057457265727  1.39836379157916
 1 -5.46697547294729  6.67928657275728  0.39409511871187
 1 -5.62637962736274  6.04868823192319  2.23799009610961
 1 -4.34939889588959  5.59209037543754  1.22609578517852
 1 -9.26369842234223  6.10238638673867 -0.71147137533753
 1 -9.18805002090209  7.95004574347435  0.31817143894389
 1 -7.75626509230923  7.43779017851785  1.38911729722972
 1 -12.28405251035104  2.97924825082508 -2.11280428512851
 1 -13.41894156335633  1.86898078927893 -1.21947313881388
 1 -12.60955268636864  2.92258091279128 -0.26295753975398
 1 -12.49664444284429 -1.90041948704870 -1.11137609250925
 1 -13.38817753665366 -0.37016375317532 -1.55739126662666
 1 -12.71499785238524 -2.01231591779178 -3.41685156965697
 1 -12.28320188438844 -0.36069060666067 -3.79866336203620
 1 -11.10004628392839 -1.67372223932393 -3.44880350035003
 1 -9.11598120112011 -4.71711245414541 -1.88266153025303
 1 -7.98306767156716 -5.80207021122112 -0.93560317331733
 1 -9.32675256015601 -4.83506852815282 -0.03828565116512
 1 -3.43436413231323 -3.41399465016502 -0.23625889738974
 1 -1.94056222272227 -4.53679011871187  3.80606352165217
 1 -3.15724533313331 -5.31485310291029  3.83846668556856
 1 -1.89379749124913 -6.00653992719272  3.11746569946995
 1  2.70896020012001 -1.72193402930293 -1.62410637563756
 1  2.75617309490949 -0.03240896129613 -2.08397154935493
 1  4.20652155775577 -1.38023023822382  0.36903011901190
 1  3.88924788828883  1.44638334873487 -2.29148751845185
 1  5.12055746744674  2.22580283918392 -1.69616608480848
 1  5.52747005460546  0.92998410591059 -2.81310004100410
 1  6.68718078097810  1.39420342034203  0.47620026282628
 1  6.26930104950495 -0.49200723812381  0.71500121682168
 1  7.38067545224522 -1.16754598979898 -1.23711503510351
 1  7.81813424932493  0.34893810191019 -1.93524644824482
 1  8.95417746934693  0.77034491949195  0.47827545974597
 1  8.52588107680768 -0.76248175437544  0.79250711441144
 1  10.02149970137014  0.13103564126413 -1.91423631313131
 1  9.33429841534153 -2.22812078857886 -2.21576750155016
 1  11.10701325702570 -2.23382016591659 -1.98463270717072
 1  10.03693657965797 -2.51511345334533 -0.53977341704170
 1  11.36882456335634  0.67671990219022  0.42635412291229
 1  11.50656370977098 -1.14825078637864  0.56527714931493
 1  12.84133745264526 -1.35540370157016 -1.10073774137414
 1  12.95518927142714  0.05869656065607 -1.79405276657666
 1  13.73548498519852  0.94903745974597  0.51024836783678
 1  13.86477923102310 -0.75838544324432  1.12294881138114
 1  15.25088837733773  0.60087957295730 -1.08657301530153
 1  15.47645508840884 -2.52945323742374 -0.34957641154115
 1  15.22792584328433 -1.74839721532153 -2.23126054115412
 1  16.88439806920692 -1.50199572447245 -1.20885235473547
 1  16.20979618031803  1.26843467716772  1.03941048534854
 1  16.59815426262626 -0.53498267336734  1.21438419961996
 1  18.43131407010701 -0.21266781418142 -0.41610495089509
 1  17.55314237873787  1.10336765566557 -0.98281185698570
 1  18.34651544414442  2.37962211991199  0.87916592189219
 1  18.84137129742975  0.82179636063606  1.65966596689669
 1  20.36329124182418  0.27469361756176 -0.11219415541554
 1  19.93777788438844  3.07193075497550 -0.84776837023702
 1  21.31970622272227  2.40884753755376 -1.11423278657866
 1  19.77639154355436  2.00047185798580 -1.96446341534153
 1  21.21573754895489  1.06564467356736  2.07192680988099
 1  22.20451215751575  1.79171040074007  0.75801076737674
 1  20.96680641054106  2.75572565586559  1.56207664816482
=======
12 -7.12959353235324  0.65599434753475  0.03423111051105
 6 -4.91000561856186 -1.98488966736674  0.45012154485449
 6 -4.78388831773177  2.79813826112611  1.21653801870187
 6 -9.39123385888589  3.05048054355436 -0.45050791049105
 6 -9.52237255095510 -1.77697320832083 -0.83055948504850
 7 -5.16678010261026  0.40896071417142  0.74191460976098
 6 -4.41714142024202 -0.63517333933393  0.78121614481448
 6 -2.92954195959596 -0.39617904360436  1.32943329752975
 6 -3.05852929132913  1.07244991329133  1.78706943764376
 6 -4.39436643154315  1.56432718151815  1.18950598049805
 6 -3.03573865596560  1.27128941704170  3.38713012191219
 6 -1.97546100710071 -0.61355661706171  0.09873383168317
 6 -0.49029645224522 -0.33991833903390  0.66573070237024
 6  0.53222435963596 -0.70805431833183 -0.45131051155115
 8  0.27044828492849 -1.18225363296330 -1.55613194489449
 8  1.82187399789979 -0.45493288968897 -0.10000678957896
 7 -7.05889633753375  2.63591918171817  0.26470516601660
 6 -6.03905318431843  3.36293726952695  0.79184271787179
 6 -6.36436368946895  4.80849513891389  0.70333102030203
 6 -7.71718442544254  4.82215284678468  0.28314670597060
 6 -8.19870414201420  3.44596379167917  0.03352589888989
 6 -5.47373533023302  5.84004647054705  1.10411517201720
 6 -8.54046184378438  6.08578961266127  0.04379136453645
 6 -8.29324321562156  7.23268938753875  0.65039128892889
 7 -9.12026429902990  0.59762262336234 -0.51412544624462
 6 -9.77151341104110  1.76255620872087 -0.73901022512251
 6 -11.21354045064506  1.44472281138114 -1.12030374987499
 6 -11.36352875677568  0.12276764086409 -1.15448416241624
 6 -9.99196487718772 -0.41757373167317 -0.90349536563656
 6 -12.21523034673467  2.49169974097410 -1.44542131693169
 6 -12.33941848814881 -0.77368477857786 -1.62488329682968
 6 -12.32327981638164 -1.00239265046505 -3.21332645124512
 7 -7.24153362166217 -1.36747636123612 -0.28937361436144
 6 -8.21959219901990 -2.24297947004700 -0.71280623582358
 6 -7.77805395099510 -3.60923919141914 -0.56662393969397
 6 -6.42691657575758 -3.57975231223122 -0.25684741664166
 6 -6.18138073447345 -2.20340862216222  0.02006481068107
 6 -8.57052451985198 -4.82326516891689 -0.90157863626363
 6 -5.37080155045505 -4.38152203570357  0.15998887148715
 8 -5.27279611751175 -5.61298578197820  0.31200823152315
 6 -4.16144972437244 -3.25562135193519  0.56415628092809
 6 -3.61817244814481 -3.71327654895490  1.84882525542554
 8 -3.87461906250625 -3.09700643684368  2.90094277537754
 8 -2.86927812151215 -4.83820854325432  1.68757733863386
 6 -2.30839142704270 -5.34839906900690  2.84275921142114
 6  2.84445695739574 -0.69721751635164 -1.06666786718672
 6  4.12082417141714 -0.53807198349835 -0.45247539653965
 6  5.15431891629163  0.26344260966097 -0.81430120282028
 6  5.06264468746875  1.16656930623062 -2.11582574787479
 6  6.41577591039104  0.33039488968897 -0.07248373357336
 6  7.71132867076708 -0.07626797369737 -0.88120507100710
 6  8.90057192979298 -0.08063319371937 -0.12614442724272
 6  10.19015964046405 -0.48602567426743 -0.87528849934994
 6  10.22085878607861 -1.94325526162616 -1.27566103110311
 6  11.41598447534754 -0.06765054585459  0.00825169376938
 6  12.71996690439044 -0.35505955705571 -0.61080110301030
 6  13.93666313471347  0.00721951915192  0.26360342784278
 6  15.28942506740674 -0.08672240134013 -0.52040027982798
 6  15.65761743064306 -1.46623425722572 -0.94946456415642
 6  16.40724483038304  0.50837519751975  0.35491999919992
 6  17.82793738313831  0.67034843324332 -0.26773258785879
 6  18.92114248374838  1.30643886088609  0.75746617961796
 6  20.29865853505351  1.22881321482148  0.11472623582358
 6  20.34409576337634  1.88844714191419 -1.23620461316132
 6  21.27895882668267  1.79028196449645  1.09641500490049
 1 -4.03299478397840  3.48388390979098  1.81136572347235
 1 -9.93902429512951  3.77450828582858 -0.67637302880288
 1 -10.31606489588959 -2.52236157695770 -1.07504415661566
 1 -2.67646410331033 -1.05509382328233  2.19044973617362
 1 -2.14173777897790  1.64676825942594  1.21301195159516
 1 -1.94828928642864  0.99557000990099  3.68568228172817
 1 -3.25905096509651  2.37928198569857  3.69459162456246
 1 -3.59873331603160  0.45766045004500  3.80383279607961
 1 -2.02187467236724 -1.53644360476048 -0.32525643484348
 1 -2.21380305280528  0.01204845524552 -0.50426046564656
 1 -0.24507802520252  0.75543015691569  1.08889928902890
 1 -0.29823762576258 -0.69264377957796  1.73880783598360
 1 -5.59171794719472  6.58636728082808  0.45404111331133
 1 -5.68510549994999  6.22121548464847  2.12337863496350
 1 -4.45603955995599  5.58804997139714  1.16620979657966
 1 -9.35558761126113  6.00654680278028 -0.70259048724872
 1 -9.04634585048505  7.94509524842484  0.31947156895690
 1 -7.67818728452845  7.50980738023802  1.39458784428443
 1 -11.79053315841584  2.91543186918692 -2.38695169986999
 1 -13.00721039023902  1.82458634983498 -1.73863505500550
 1 -12.40970270137014  3.32537119181918 -0.81940318431843
 1 -12.29636441484148 -1.81213065816582 -1.16630158505851
 1 -13.30830954985498 -0.54545128192819 -1.33887941544154
 1 -12.95544189678968 -1.83284797099710 -3.53196308080808
 1 -12.51680524472447 -0.18838337593759 -3.82418591429143
 1 -11.47892417171717 -1.57132199929993 -3.44519313931393
 1 -8.80083968696870 -4.73972471537154 -2.02023528762876
 1 -7.98596796159616 -5.61403140734073 -0.84674428742874
 1 -9.59802968786879 -4.84209923122312 -0.43873569616962
 1 -3.68919961586159 -3.36546979767977 -0.26317158865887
 1 -1.77338550505051 -4.61902834253425  3.43769668496850
 1 -2.95494510311031 -5.71918353595360  3.56683952285228
 1 -1.87404551605161 -6.24829410261026  2.53896784968497
 1  2.39469877397740 -1.63142497839784 -1.33630759575958
 1  2.61718919651965 -0.32178789918992 -2.08256140834083
 1  4.24366527212721 -1.15078729392939  0.47370058605861
 1  3.95454441794179  1.06009471987199 -2.29983835353535
 1  5.36373178487849  2.27066732563256 -2.06086255445545
 1  5.77691499909991  0.74607571507151 -2.90909964096410
 1  6.41934399729973  1.31336533653365  0.19600224302430
 1  6.39909402880288 -0.40020805820582  0.66771648834883
 1  7.48035542024202 -1.13663289848985 -1.19157048064806
 1  7.77891032693269  0.71814502260226 -1.73021594519452
 1  9.18652070367037  0.91884976997700  0.22563019521952
 1  8.91060954965497 -0.82408791499150  0.86385424912491
 1  10.14930248164816  0.17199973767377 -1.96461135063506
 1  9.44264925042504 -2.43380135663566 -1.83414933973397
 1  11.37394995069507 -2.03266004990499 -1.73884812871287
 1  10.50298318431843 -2.63664560656066 -0.27363680338034
 1  11.21883956485649  0.95162739293929  0.29215070257026
 1  11.29183223662366 -0.67275323662366  0.86614723632363
 1  12.74051737063706 -1.33278143934393 -1.09979764736474
 1  12.70550430293029  0.27231792279228 -1.52824618591859
 1  14.03467490419042  1.07071962796280  0.72626996999700
 1  14.10811356445645 -0.66998660336034  1.23186970347035
 1  15.29589287778778  0.54836432143214 -1.51970632863286
 1  16.04039148204820 -2.18734902700270  0.06124467056706
 1  14.85348839953996 -1.95105748134814 -1.36391380648065
 1  16.51735136453646 -1.54687021192119 -1.56915838533853
 1  16.02441764246425  1.46857469116912  0.68105464976498
 1  16.58314276147615 -0.02456163126313  1.39815257645765
 1  18.33373431213121 -0.31623817121712 -0.81649498989899
 1  17.86538360286029  1.37225454435444 -1.10659423522352
 1  18.61413220582058  2.21020517821782  1.03104110941094
 1  18.82874003430343  0.90367454845485  1.62430243054305
 1  20.39757467016702  0.07523367156716  0.03242030603060
 1  20.06566067266726  3.08589215111511 -1.21396498989899
 1  21.25370962306231  2.04383103590359 -1.65588695199520
 1  19.91127503190319  1.53128493929393 -2.24178114711471
 1  21.02388836403640  1.39729783888389  2.13507312451245
 1  22.27256896319632  1.65183641334133  0.74560952725273
 1  20.97710744064407  2.92132221552155  1.24035447594759
>>>>>>> 8e03b5b5abfc0030b3aa597dc0de36371bfbd096

