%nproc=4
%Mem=2GB
# td=(NStates=1) CAM-B3LYP/6-31G(d,p) 

TD

0 1
12 -7.02802337533753  0.59063781188119 -0.07779009160916
 6 -4.83005762376238 -1.91863304170417  0.70999753245325
 6 -4.92208213711371  2.82614106140614  1.20534689958996
 6 -9.37392212771277  3.05185068056806 -0.36226908660866
 6 -9.49917023072307 -1.73077858885889 -0.92476890599060
 7 -5.12388581318132  0.44245406350635  0.72731314961496
 6 -4.32247195329533 -0.66344616661666  0.74245226842684
 6 -2.95831483688369 -0.36387581328133  1.37381773597360
 6 -2.99708314671467  1.09754242254225  1.81594232493249
 6 -4.41180817571757  1.51601235003500  1.08334536443644
 6 -3.16768185028503  1.35146743484348  3.30288169706971
 6 -1.93962742374237 -0.56184144554455  0.17523148144814
 6 -0.53229065166517 -0.37375172237224  0.55069919921992
 6  0.55308644584458 -0.72045555845585 -0.49433481398140
 8  0.29672091219122 -1.10414582218222 -1.62251858355836
 8  1.79071088158816 -0.55097249364937 -0.11965875477548
 7 -7.13343379127913  2.65291088088809  0.14087278277828
 6 -6.12296157515752  3.41878285408541  0.79776330993099
 6 -6.43687094019402  4.79194348374837  0.75597628482848
 6 -7.75180788778878  4.80391102260226  0.41485987728773
 6 -8.22110638223822  3.49188838413841  0.05595814211421
 6 -5.56225418211821  5.90156262216222  1.21002576307631
 6 -8.62063986158616  5.97906894059406  0.25775276067607
 6 -8.49447333863386  7.10170628922892  0.97878412821282
 7 -9.04841711431143  0.59293215431543 -0.67043107680768
 6 -9.84829108880888  1.74658461156116 -0.67102342644264
 6 -11.19766886348635  1.35151349044904 -1.20733245274527
 6 -11.18140054395439  0.05149051315132 -1.45218393239324
 6 -9.85844152485248 -0.44458643294329 -0.97674269036904
 6 -12.16037486118612  2.44719529052905 -1.48902567736774
 6 -12.36309085538554 -0.70454786488649 -1.94055486398640
 6 -12.21999948834883 -0.69392180338034 -3.49155427402740
 7 -7.27743721202120 -1.44177379097910 -0.11048572557256
 6 -8.27169740954095 -2.24934010611061 -0.50734568976898
 6 -7.81950809640964 -3.55216348384839 -0.43065034233423
 6 -6.53124700880088 -3.51366570357036  0.00897916601660
 6 -6.10857345374537 -2.12040032133213  0.23646645084508
 6 -8.67881534893489 -4.76779962236224 -0.80836931533153
 6 -5.28013248354836 -4.38999288278828  0.29960283288329
 8 -5.22900173807381 -5.60989547294729  0.37547457815782
 6 -4.11332491189119 -3.36312210201020  0.62837270257026
 6 -3.49808043894389 -3.67745296659666  1.89101947484748
 8 -3.59159075967597 -3.02661939813981  2.92414509560956
 8 -2.69610080378038 -4.75813053545355  1.73263184408441
 6 -2.02766335423542 -5.18590281938194  2.86256119161916
 6  2.75884839653965 -0.85502329692969 -1.11887308770877
 6  4.05557764676468 -0.63820199649965 -0.49117926692669
 6  5.12878636303630  0.16080234563456 -1.00123989668967
 6  4.97527595059506  1.02777542684268 -2.26911107640764
 6  6.41899623242324  0.45267711791179 -0.29137562276228
 6  7.57085462336234 -0.12074242114211 -1.01215816631663
 6  8.90700257285729  0.04783965356536 -0.17942975577558
 6  10.13352397689769 -0.51455852755276 -1.04130510101010
 6  10.05702240244024 -2.02246318241824 -1.31495496049605
 6  11.40399327622762 -0.16389016981698 -0.14045317671767
 6  12.78109301700170 -0.45128918001800 -0.76674669756976
 6  13.95269473787379 -0.12365356815682  0.20900796829683
 6  15.35660178507851 -0.25173890299030 -0.38755699549955
 6  15.74403607250725 -1.72580021382138 -0.78161777947795
 6  16.43074718061806  0.35345970597060  0.44908941614161
 6  17.79897448684869  0.66950834923492 -0.26499231383138
 6  18.86490686018602  1.21845006200620  0.71906233923392
 6  20.30428909810981  1.37638797229723  0.09026378957896
 6  20.26975832963296  2.29961825902590 -1.15894688738874
 6  21.11673260406041  1.83734667096710  1.31635699909991
 1 -4.11968345284529  3.66816233763376  1.56221080798080
 1 -10.28601899459946  4.01837267226723 -0.49874526602660
 1 -10.27850113951395 -2.63157249804980 -1.33097975017502
 1 -2.63257971487149 -1.01584989888989  2.05353604480448
 1 -2.25734934013401  1.60664424702470  1.16189684008401
 1 -2.11141559905991  1.31389184208421  3.91862557605761
 1 -3.66681174117412  2.35940999849985  3.46735890129013
 1 -3.79928337103710  0.84104878887889  3.75940835363536
 1 -2.04296678157816 -1.70506046644664 -0.00516442564256
 1 -2.21509318181818  0.19505675607561 -0.54899493909391
 1 -0.28699221662166  0.62710732463246  0.85795619471947
 1 -0.19527732973297 -0.96639115431543  1.37227118231823
 1 -5.76508528392839  6.80326897099710  0.77272298149815
 1 -5.61160815021502  6.39405276837684  2.23005930303030
 1 -4.41608556455646  5.47846901330133  1.14202737833783
 1 -9.67143919641964  5.76099224732473 -0.28548877707771
 1 -9.14029524542454  7.95089582848285  0.98177779957996
 1 -7.65697516331633  7.32737913741374  1.73915230073007
 1 -11.59109321442144  2.92361268726873 -2.27247025172517
 1 -13.19380905010501  1.97432132333233 -1.83172436393639
 1 -12.37999973107311  3.09895855055505 -0.66726797079708
 1 -12.31355613401340 -1.66626607170717 -1.39345430033003
 1 -13.12951167006701 -0.03097983478348 -1.89813534103410
 1 -13.02968932153215 -1.21927661386139 -3.84157404190419
 1 -11.97072063626363  0.25985144754475 -3.84076757245725
 1 -11.31167744704470 -1.54536940404040 -3.83360198019802
 1 -8.98567817081708 -4.37154789768977 -1.80123338743874
 1 -8.06765613041304 -5.59898990319032 -0.62814242724272
 1 -9.47866775167517 -4.96712173347335 -0.17183900650065
 1 -3.19590028592859 -3.32198544924492  0.09899462796280
 1 -1.50404857135714 -4.43422986268627  3.28902181748175
 1 -2.82465207380738 -5.71374299189919  3.55212805170517
 1 -1.25665377687769 -5.84669394259426  2.60425437833783
 1  2.59112841694169 -1.95683751965197 -1.38997296229623
 1  2.43344082168217 -0.20146586698670 -1.98405155735574
 1  4.33114402000200 -1.36326854205421  0.41298451445145
 1  3.97417638113811  0.95212392279228 -2.80364873457346
 1  5.22981839353935  2.12360261916192 -1.94477094529453
 1  5.57382469006901  0.42612371987199 -3.14286301730173
 1  6.55922798569857  1.39856385638564 -0.20400775797580
 1  6.42463658305831 -0.00307834523452  0.70931064776478
 1  7.23826121082108 -1.24553378857886 -1.35720704430443
 1  7.60771320722072  0.22798600670067 -2.01360428402840
 1  9.23752580418042  1.06467435243524  0.10609824202420
 1  8.80417890659066 -0.47369287548755  0.73966182988299
 1  10.28422597399740 -0.12207967026703 -2.03985887538754
 1  9.30449543504350 -2.49596757325733 -1.97010293509351
 1  11.05334789048905 -2.42187897179718 -1.81342558645865
 1  10.19469235523552 -2.47554949694970 -0.28044748444844
 1  11.19781746264626  0.96288851905191  0.13700518801880
 1  11.29684273767377 -0.55394135543554  0.88456907850785
 1  12.85652897179718 -1.43523168436844 -0.90959862746275
 1  13.06056980948095 -0.01887119611961 -1.69159252055205
 1  13.74034547124712  0.96844940094009  0.52477982098210
 1  13.65356810991099 -0.58751835653565  1.15203171967197
 1  15.08903219171917  0.37394687968797 -1.31448580658066
 1  15.80592803570357 -2.26792708480848  0.27151569766977
 1  14.94857790849085 -2.42687506310631 -1.30436785188519
 1  16.58694832423242 -1.87059258415842 -1.40776224572457
 1  16.17565276597660  1.46090392409241  0.50943748804881
 1  16.36099054625462 -0.01944111921192  1.54551731293129
 1  18.00299123782378 -0.32852940034003 -0.63351669206921
 1  17.54605166966697  1.37902522142214 -1.10274385018502
 1  18.49546033863386  2.30944510221022  1.19604761006101
 1  18.63545070537054  0.57720190119012  1.59312931323132
 1  20.54450936363637  0.32041819001900 -0.36393932993299
 1  19.65366947354735  3.28203176507651 -0.97408100150015
 1  21.31170542264227  2.58512516531653 -1.50440180348035
 1  19.82854675907591  1.54398620942094 -1.89733670267027
 1  21.05799177437744  1.09707781688169  2.17459707690769
 1  22.15797750405040  1.90822205190519  0.96838180448045
 1  20.96328605850585  2.94602468576858  1.78234867536754

