%nproc=4
%Mem=3GB
# td=(NStates=1) iop(3/107=0140000000,3/108=0140000000) CAM-B3LYP/6-31G(d,p) 

TD

0 1
12 -7.14348904060406  0.61449983348335  0.05871224122412
 6 -4.88540735723572 -1.96181341194119  0.47385278767877
 6 -4.78718474907491  2.75667438533853  1.18083818901890
 6 -9.41068783328333  3.11096864986499 -0.39058153345335
 6 -9.49937603560356 -1.70043180888089 -0.90438724362436
 7 -5.11049808100810  0.48205429602960  0.71428925292529
 6 -4.36730897819782 -0.69300044324432  0.74338223292329
 6 -2.94352057265727 -0.33339173717372  1.19363503260326
 6 -2.95334856175618  1.08312701430143  1.69009528882888
 6 -4.37327756245624  1.50805545664566  1.08936333023302
 6 -2.77266344714471  1.37939075837584  3.09802511711171
 6 -1.84133986368637 -0.62830882008201  0.08414222452245
 6 -0.49178488768877 -0.56904015201520  0.58282166446645
 6  0.49035095829583 -0.72874949684968 -0.62942273237324
 8  0.20812102890289 -1.10071384908491 -1.73536092919292
 8  1.76745534393439 -0.42931286968697 -0.14909029662966
 7 -7.11305894929493  2.65829903980398  0.23973489758976
 6 -5.94845498929893  3.31940570797080  0.65120099619962
 6 -6.31672658105810  4.71093795739574  0.81190944964496
 6 -7.59070385568557  4.92057386258626  0.34961108750875
 6 -8.08877840534053  3.53321025982598  0.03025102370237
 6 -5.40995302920292  5.79032850655066  1.26159631483148
 6 -8.44685469346935  6.10677094669467  0.18531914441444
 6 -8.34592300230023  7.25963511321132  0.81223528282828
 7 -9.18838787988799  0.74407140154015 -0.39457603150315
 6 -9.89220670697070  1.85461878617862 -0.58708152165217
 6 -11.30417437013701  1.48674811931193 -0.99543440314031
 6 -11.34328381558156  0.11453899969997 -1.22891291959196
 6 -9.98306591019102 -0.35655584898490 -0.95164736603660
 6 -12.31151208890889  2.51689693109311 -1.27483693639364
 6 -12.49559335223522 -0.77429355315532 -1.75250458105811
 6 -12.19922183108311 -1.25501569386939 -3.12738338953895
 7 -7.22880584298430 -1.42136697239724 -0.15043771887189
 6 -8.32121644794480 -2.18637718321832 -0.64608618851885
 6 -7.89651169096910 -3.55936648804880 -0.68813911371137
 6 -6.49916770727073 -3.53731671377138 -0.25583766546655
 6 -6.20829456115611 -2.23042099789979  0.02568440384038
 6 -8.64648698819882 -4.74452055045505 -1.13172655575558
 6 -5.39698516141614 -4.40199376277628  0.22007698179818
 8 -5.17385837813781 -5.62098895589559  0.20155610421042
 6 -4.21592609520952 -3.28900634803480  0.67715603720372
 6 -3.64161833863386 -3.66364430713071  1.91449741824182
 8 -3.70479326272627 -2.98438579647965  2.95713907210721
 8 -2.79472482528253 -4.68443706220622  1.77442648014801
 6 -2.27127608460846 -5.26892209810981  2.96957435783578
 6  2.80384670507051 -0.65370365926593 -1.20945446264626
 6  4.11895278047805 -0.52676794469447 -0.54741730453045
 6  5.11141663296330  0.34424095209521 -0.90783366036604
 6  5.03647737333733  1.15164283958396 -2.10674480948095
 6  6.50753703240324  0.28119873587359 -0.16363688808881
 6  7.60819227182718 -0.23746229422942 -0.96193652235224
 6  8.89781749334933 -0.23021483758376 -0.10885698809881
 6  10.28324378497850 -0.74777644084408 -0.82379809980998
 6  10.17551082768277 -2.26848472837284 -1.25555252125213
 6  11.46520118391839 -0.49864475557556  0.04385642314231
 6  12.86583431893189 -0.65825585908591 -0.59398690379038
 6  13.95937720952095 -0.15535124942494  0.27892430403040
 6  15.32805879687969 -0.13726280988099 -0.45426107860786
 6  15.68679495049505 -1.45417380568057 -0.95740756705671
 6  16.38999599229923  0.53977049434944  0.36582131683168
 6  17.77720530823082  0.73582731233123 -0.16681320832083
 6  18.84064448304830  1.43191126962696  0.71420467716772
 6  20.25298810321032  1.48541797429743  0.16220292629263
 6  20.17129997579758  2.29417672277228 -1.15547024292429
 6  21.21373644064406  1.88442014191419  1.22375631563156
 1 -3.98339870337034  3.60683393479348  1.44782087788779
 1 -9.95174729802980  4.16009828432843 -0.42698722492249
 1 -10.24869929402940 -2.43296883198320 -1.10651847124712
 1 -3.04887217441744 -1.06101630433043  2.14650114081408
 1 -2.22208567486749  1.78156021712171  1.27889153815382
 1 -1.79672275867587  1.07357646404640  3.52980331773177
 1 -2.88352546164616  2.34399362216222  3.41908993119312
 1 -3.49208200870087  0.86297145144514  3.80459214441444
 1 -2.08519363836384 -1.46177684848485 -0.36972497959796
 1 -2.16802317131713  0.19884750455046 -0.56953368796880
 1 -0.37166259495950  0.28215780308031  1.13354721772177
 1 -0.24264268456846 -1.28471923852385  1.27279073737374
 1 -5.46260043774377  6.68744625662566  0.59312914421442
 1 -5.75928740004000  6.09138201960196  2.19574158665867
 1 -4.40860570517052  5.45733000100010  1.20350108270827
 1 -9.08690895069507  5.84679806180618 -0.54910626332633
 1 -8.90700976467647  8.14254397539754  0.41120089578958
 1 -7.76565449754975  7.42289912631263  1.67931689198920
 1 -11.85744621762176  2.91543069016902 -2.26459229072907
 1 -13.32119941764176  2.07542628502850 -1.73577930613061
 1 -12.40878191089109  3.40934826892689 -0.65059549904991
 1 -12.56098806370637 -1.55588651145115 -0.93317681858186
 1 -13.46383868296830 -0.30893360386039 -1.82209796419642
 1 -13.28629382858286 -1.53047670977098 -3.46490744884488
 1 -12.09250965666567 -0.39829830113011 -3.79577855625563
 1 -11.56496133553355 -1.97853888108811 -3.27974625282528
 1 -8.84706932553255 -4.73124962576258 -2.27633369636964
 1 -8.10604498969897 -5.65320127342734 -1.09422937803780
 1 -9.73702788178818 -5.01333978237824 -0.60625289398940
 1 -3.66651416991699 -3.50209681528153 -0.28764650275028
 1 -1.83377676527653 -4.34372658605861  3.80595231283128
 1 -3.26607304460446 -5.75257478237824  3.59496053375338
 1 -1.67768828932893 -6.08836962176218  2.79053241434143
 1  2.50453850865087 -1.75799242204220 -1.49980142884288
 1  2.71404784608461 -0.03952586778678 -1.89362041954195
 1  4.22566305300530 -1.20397881168117  0.22121352155216
 1  4.00327563906391  1.09553509620962 -2.31666215191519
 1  5.24416134833483  2.17502792669267 -1.82280971937194
 1  5.84269383788379  0.87715890679068 -2.65372162906291
 1  6.62778096199620  1.38640862146215 -0.10797118321832
 1  6.44095196729673  0.10946360966097  1.05927212271227
 1  7.48847096989699 -1.21563223622362 -1.24848960616062
 1  7.75959851835184  0.37723682668267 -1.83581440434043
 1  9.37307335163516  0.64579407690769  0.41547397549755
 1  8.70501362216222 -0.98541689438944  0.94145026842684
 1  10.51165579737974 -0.24767862006201 -1.76348150615061
 1  9.32219182828283 -2.45752403590359 -1.84307268916892
 1  11.10941008160816 -2.60007340664066 -1.79029438753875
 1  9.95398759585959 -2.94734884958496 -0.36949434313431
 1  11.18127976957696  0.52633906730673  0.40643841464146
 1  11.37944554005401 -1.10631192879288  0.82315863596360
 1  12.83402135463546 -1.64881230053005 -0.80111238273827
 1  12.66977280718072 -0.04115917991799 -1.46350068376838
 1  13.71496291659166  0.91980734403440  0.43524835353535
 1  14.10756906750675 -0.66872325122512  1.30852322632263
 1  15.15338573997400  0.69329272627263 -1.33913518231823
 1  15.92396619341934 -2.09088843004300 -0.14967310281028
 1  14.79721136553655 -1.95962048204821 -1.53990536403640
 1  16.54894317391739 -1.69817071407141 -1.57555406870687
 1  15.98861213471347  1.51840017371737  0.65159107540754
 1  16.53528760656065  0.05191890709071  1.25940443514351
 1  18.29222596029603 -0.31038755275528 -0.45226542214221
 1  17.83107041664166  1.19260815491549 -1.15331107470747
 1  18.59208826572657  2.51481274927493  0.79420136693669
 1  18.89138510101010  0.85635047454745  1.63983722922292
 1  20.55955578787879  0.38045904350435 -0.21347545534553
 1  19.93953077157716  3.30882165866587 -0.84390657535754
 1  21.17773157395740  2.27839898199820 -1.62677065826583
 1  19.65626402400240  1.77491778197820 -1.86414479887989
 1  20.99874372787279  1.15232087298730  1.98204187298730
 1  22.20716860966096  1.83527399809981  1.09111576517652
 1  20.96361644014402  2.83124924212421  1.69580671737174

