%nproc=4
%Mem=2GB
# td=(NStates=1) CAM-B3LYP/6-31G(d,p) 

TD

0 1
12 -7.12437301030103  0.64596334443444  0.07303499089909
 6 -4.93031764976498 -1.88915009340934  0.46889342204220
 6 -4.77157708660866  2.87032547984798  1.11131749664967
 6 -9.39229396489649  3.12442793829383 -0.44694755445545
 6 -9.57595790949095 -1.75625113611361 -0.83772020112011
 7 -5.08189161376138  0.52249206730673  0.66256667496750
 6 -4.36033573967397 -0.63972379437944  0.72328035123512
 6 -2.89880888628863 -0.39753917961796  1.29448980318032
 6 -2.93013645204520  1.09557222552255  1.72831356205621
 6 -4.30766776167617  1.55308605740574  1.10947797769777
 6 -3.05932101420142  1.34655694379438  3.22607401630163
 6 -1.95268872987299 -0.68289355075508  0.09918387668767
 6 -0.40497792039204 -0.57270161736174  0.63986811611161
 6  0.53355449264927 -0.68296180908091 -0.54261964246425
 8  0.21513275337534 -1.08190359795980 -1.63152948464846
 8  1.84452626312631 -0.30152754915492 -0.27183397229723
 7 -7.05786623452345  2.61216680648065  0.37560625612561
 6 -6.04642392139214  3.33303427922792  0.72479601320132
 6 -6.42360961406141  4.69495378477848  0.82563325052505
 6 -7.69254196119612  4.79644027552755  0.31965035633563
 6 -8.13174744634463  3.45543473877388 -0.05252270597060
 6 -5.43926188288829  5.89895236113611  1.19487424792479
 6 -8.59677747534753  6.01100213391339  0.07458444384438
 6 -8.55792968426843  7.23372949154915  0.66836308610861
 7 -9.14574684728473  0.64976783788379 -0.49906394009401
 6 -9.95662192189219  1.84316426952695 -0.62053837793779
 6 -11.30892998959896  1.49903824292429 -1.03488520802080
 6 -11.35094749864986  0.02250761486149 -1.18155686968697
 6 -9.95413109380938 -0.41137311161116 -0.84333935003500
 6 -12.30296912061206  2.49336990799080 -1.32650942574257
 6 -12.43585813211321 -0.77487489758976 -1.62847365586559
 6 -12.29979746814682 -1.21007341854185 -3.04135925452545
 7 -7.25374484278428 -1.42930254385439 -0.18637331433143
 6 -8.28602884268427 -2.28813398549855 -0.55503045824582
 6 -7.82901904750475 -3.55351361886189 -0.57645492279228
 6 -6.56704058815882 -3.56755109210921 -0.14616634853485
 6 -6.23669626602660 -2.18879716101610  0.09533233743374
 6 -8.75803327072707 -4.77580042244224 -0.84251272967297
 6 -5.37676214651465 -4.32996688018802  0.24495736833683
 8 -5.30573941184118 -5.58813329672967  0.23494052475248
 6 -4.17032061146115 -3.28087387718772  0.50694055935594
 6 -3.62257288818882 -3.75862108340834  1.90200057295730
 8 -3.84995659625963 -3.16366310251025  2.95532821392139
 8 -2.70286147984798 -4.74060878327833  1.66336491739174
 6 -2.21242183008301 -5.19142337143714  3.03299823532353
 6  2.74204671637164 -0.45569336393639 -1.33182438283828
 6  4.10475256425643 -0.40872904920492 -0.66442659165917
 6  5.13465695009501  0.24326059145915 -1.08108788148815
 6  5.22650107310731  1.12738538783878 -2.26596076137614
 6  6.48108244104410  0.30771262146215 -0.18931541674167
 6  7.68464600250025 -0.29670001690169 -1.00465741624162
 6  8.91779365196520 -0.20799592999300 -0.09930174297430
 6  10.35271589608961 -0.57668474017402 -0.93333430393039
 6  10.10930763096310 -2.04964590069007 -1.50764422942294
 6  11.50646352325233 -0.42882666346635 -0.11082021342134
 6  12.84669957765776 -0.77928197929793 -0.75592561546155
 6  14.00606007440744 -0.13756495929593  0.07460452795280
 6  15.39122524742474 -0.13294702380238 -0.56030427022702
 6  15.76387805670567 -1.60063769756976 -0.87096671437144
 6  16.42545665156516  0.63079743974397  0.38376288348835
 6  17.86881147054705  0.67788918731873 -0.24651046564656
 6  18.76870724022402  1.33897211421142  0.80804123712371
 6  20.37181585078508  1.35165549904991  0.38103286648665
 6  20.49220057385739  2.15820411761176 -0.95323631633163
 6  21.17419835063506  2.05683862016202  1.52178754215422
 1 -4.06587807230723  3.59460498189819  1.35204979187919
 1 -10.07453784648465  3.91920275527553 -0.48267365886589
 1 -10.22106539593959 -2.59976931773177 -1.09401605380538
 1 -2.60919737663766 -1.02513082698270  1.91583227442744
 1 -2.16295990119012  1.69631321392139  1.07241789218922
 1 -2.15616007350735  1.26083653655365  3.95251896539654
 1 -3.39259431943194  2.43618767626763  3.35063722912291
 1 -3.78142158485849  0.74100878487849  3.65054746754675
 1 -2.09261174607461 -1.76506646704670 -0.10971488068807
 1 -2.09403107560756 -0.01679442904290 -0.61182122172217
 1 -0.07385090249025  0.29909452335234  1.26821722082208
 1 -0.26207400940094 -1.41849636483648  1.31313526872687
 1 -5.96499527492749  6.94886353045305  0.90462617181718
 1 -5.23365035443544  6.10012337543754  2.18445474257426
 1 -4.48965292129213  5.54764593099310  0.62332550815082
 1 -9.29578163066307  5.87670381848185 -0.71705193339334
 1 -9.38779999589959  7.97553829272927  0.51660128192819
 1 -7.92754222002200  7.21675807530753  1.51422980848085
 1 -12.15670977607761  3.22582290829083 -2.23924692939294
 1 -13.34802447164716  1.95559945114511 -1.30647183868387
 1 -12.32458418951895  3.22522117681768 -0.56252749674967
 1 -12.75205998439844 -1.63393283838384 -0.88423337823782
 1 -13.36666538543854 -0.20866760356036 -1.38254378187819
 1 -13.17274362696270 -1.73413810001000 -3.32771265576558
 1 -12.56818038223822 -0.38687322492249 -3.75571906760676
 1 -11.53829010831083 -1.74921978907891 -3.36232485248525
 1 -9.07150675367537 -4.70311105400540 -1.89250251435144
 1 -8.17421678647865 -5.62905290949095 -0.86572618561856
 1 -9.45717560246025 -4.80641566286629 -0.03024484708471
 1 -3.37345804170417 -3.42955620632063 -0.16062133363336
 1 -1.54584275077508 -4.47254369406941  3.66661957725773
 1 -3.01119072767277 -5.30414203180318  3.76033887278728
 1 -1.56487459895990 -6.07966723992399  2.82949690259026
 1  2.71391069516952 -1.46802863876388 -1.90755472047205
 1  2.83652112971297  0.23295757535754 -2.22361551375137
 1  4.32648355395540 -1.19819203440344  0.19854307030703
 1  4.33832279577958  1.30834954535454 -2.70937930763076
 1  5.48478389008901  2.19411967086709 -2.00853732193219
 1  5.97617492509251  0.72128323582358 -3.00128885988599
 1  6.61813387628763  1.47916191619162  0.18494113691369
 1  6.28413253265327 -0.28925696309631  0.66316603330333
 1  7.44727211191119 -1.24364359955996 -1.29168049164917
 1  7.88112054795480  0.17077028512851 -2.10986390999100
 1  9.05310736233623  0.85277316231623  0.35989362156216
 1  8.91677016571657 -0.74853035923592  0.87282514621462
 1  10.37608515991599  0.03250578827883 -1.73462835233523
 1  9.22827781328133 -1.88219619611961 -2.29762568736874
 1  11.07531008670867 -2.61070785468547 -1.74012825672567
 1  9.66291917791779 -2.57641958395840 -0.59929936963696
 1  11.44434211511151  0.72043427362736  0.20412189968997
 1  11.59339239263926 -1.15596155745575  0.79329995159516
 1  13.01658497739774 -1.90643880508051 -1.06541420902090
 1  12.69453320582058 -0.18162747174717 -1.70320368166817
 1  14.07581901860186  1.01289384538454  0.29270661366137
 1  14.03758651175118 -0.60472007670767  0.95648216471647
 1  15.29027231573157  0.50480996599660 -1.48732309030903
 1  15.85542298519852 -2.24863515561556  0.03523206930693
 1  15.00340339103910 -1.86847922352235 -1.36166358145815
 1  16.69682931233124 -1.55533105800580 -1.46318778827883
 1  16.12305750645064  1.52020985468547  0.64286083038304
 1  16.32022646984698 -0.07984715981598  1.40423318451845
 1  18.32269320802080 -0.29269581698170 -0.26230957135714
 1  17.95569263376338  1.31994931383138 -1.26727030283028
 1  18.31809260186019  2.22189634733473  0.97688569386939
 1  18.71281844214421  0.87307148814881  1.93949394969497
 1  20.73713862656266  0.38869501770177  0.34910197419742
 1  20.17580168676868  3.25205876777678 -0.80263385678568
 1  21.55082933503351  2.14991164396440 -1.19478084138414
 1  20.05140904530453  1.61827363816382 -1.76638360736074
 1  20.96446242144215  1.54527263636364  2.48904852205221
 1  22.19104081038104  2.08303953365337  1.50990595689569
 1  20.94942467236724  3.06324640794079  1.67923836433643

