%nproc=4
%Mem=2GB
# td=(NStates=1) CAM-B3LYP/6-31G(d,p) 

TD

0 1
12 -7.16163673667367  0.63227197529753  0.04144183158316
 6 -4.82826744474447 -1.85994717311731  0.62286881958196
 6 -4.69790971987199  2.92709115641564  1.18350471537154
 6 -9.38492322782278  3.02585808130813 -0.36612947264726
 6 -9.45585589928993 -1.74343985498550 -0.79410583968397
 7 -5.10975440004000  0.54025384348435  0.86663708200820
 6 -4.36834654075408 -0.57719754175418  0.82554057725773
 6 -2.91541054645465 -0.27984741044104  1.18465882008201
 6 -3.06047948634863  1.18591125942594  1.84975570627063
 6 -4.37190418531853  1.55430617941794  1.14788181808181
 6 -3.13925900800080  1.10301258935894  3.26125753465347
 6 -1.86659012001200 -0.36777203860386  0.01528548684868
 6 -0.46403382598260 -0.21333568076808  0.47806193549355
 6  0.48919005620562 -0.44898841174117 -0.76237161766177
 8  0.07646888698870 -0.82298770637064 -1.85584191589159
 8  1.77625943644364 -0.41192858925893 -0.35834262316232
 7 -7.01266171407141  2.59129471927193  0.28878757425743
 6 -6.07268654765477  3.46871784758476  0.76251978557856
 6 -6.52609986308631  4.82463675307531  0.77817850505051
 6 -7.85167787478748  4.79071970347035  0.26446483778378
 6 -8.17331160276028  3.38196739203920  0.03940648694869
 6 -5.67966592329233  6.14113657955796  1.25070983148315
 6 -8.72283008060806  5.84034506820682  0.08138512391239
 6 -8.71723561486149  7.00594671327133  0.88406465626563
 7 -9.09631190379038  0.59451231233123 -0.58161219491949
 6 -9.86860312001200  1.68869882298230 -0.66153247734773
 6 -11.22344144074407  1.42055039413941 -1.03616533603360
 6 -11.26518892279228 -0.00285492139214 -1.17441615561556
 6 -9.92104778547855 -0.42214418871887 -0.82459747584758
 6 -12.25011383508351  2.37409798079808 -1.47898467326733
 6 -12.30468501480148 -0.93783119321932 -1.65317612611261
 6 -12.38100558895890 -1.21816422762276 -3.08304342294229
 7 -7.19921939023902 -1.31199081268127 -0.06102077907791
 6 -8.24068430823082 -2.21741691379138 -0.43198815401540
 6 -7.78164431003100 -3.59663793129313 -0.36763404070407
 6 -6.41661554565457 -3.49384372137214 -0.08091982388239
 6 -6.16944954135414 -2.10072835413541  0.20578338253825
 6 -8.39236670407041 -4.81950479287929 -0.94891336973697
 6 -5.25453992429243 -4.37940182368237  0.19504237683768
 8 -5.05685452335234 -5.54607909130913  0.11789882058206
 6 -4.06946052545254 -3.19115490529053  0.68202806810681
 6 -3.44019465036504 -3.57595281658166  1.92366273917392
 8 -3.75036663726373 -3.07213394959496  2.94926760786079
 8 -2.54641583528353 -4.57705242764276  1.73734231513151
 6 -2.11015160306031 -5.16499072817282  2.95758069356936
 6  2.84361687338734 -0.59781757635764 -1.38664986538654
 6  4.13355544454445 -0.51144932123212 -0.72757290629063
 6  5.22896638103810  0.27229349474948 -1.20046981968197
 6  5.16774519751975  1.17671032033203 -2.33170733603360
 6  6.42845717851785  0.28337018721872 -0.38046453165317
 6  7.62925046294629 -0.25587593449345 -1.11013796429643
 6  8.93244511711171 -0.17945307570757 -0.32023383618362
 6  10.26094671917192 -0.59142621432143 -0.87488845934593
 6  10.07939463966397 -2.11254219031903 -1.23850731573157
 6  11.44461733863386 -0.26878065886589 -0.03384251565157
 6  12.80329523722372 -0.65451950305031 -0.62882290519052
 6  13.97019648804880 -0.15679688248825  0.16542360986099
 6  15.43815994089409 -0.31087481658166 -0.49111735153515
 6  15.69057072597260 -1.75261289508951 -0.80080969866987
 6  16.36882098799880  0.30721508150815  0.46742124932493
 6  17.75368995839584  0.48072947134713 -0.11675749034903
 6  18.72257262676268  1.14589280628063  0.82990342334233
 6  20.23897256645665  1.31740207370737  0.28944370757076
 6  20.29129048284829  2.25031332853285 -0.90369136183618
 6  21.10387131793179  1.92538547484748  1.42217758115812
 1 -4.01545302980298  3.66699222062206  1.68009259615962
 1 -10.07176756945695  3.87819865486549 -0.67599299079908
 1 -10.22270555995600 -2.37327666846685 -0.94210086228623
 1 -2.59193565046505 -0.84947326122612  1.94094478567857
 1 -2.27571117631763  1.68561214381438  1.52554320472047
 1 -2.09283374087409  0.83595404830483  3.72426614011401
 1 -3.40871593159316  2.14266832433243  3.81539370477048
 1 -3.82083552625263  0.35225990999100  3.56178859165917
 1 -1.81734421932193 -1.37333729412941 -0.38249215841584
 1 -2.32298397089709  0.43470072047205 -0.64681472107211
 1 -0.29009252665266  0.77456207010701  0.87194759385939
 1 -0.18765656765677 -0.93833834903490  1.30974492969297
 1 -5.76314508990899  6.92351099519952  0.56982269146915
 1 -5.74735172457246  6.63296665976598  2.32191848894889
 1 -4.72698665466547  5.83588475487549  1.27095027062706
 1 -9.45054710721072  5.68633478157816 -0.72844307250725
 1 -9.48912012791279  7.74194493339334  0.85101472327233
 1 -7.91498096389639  7.15020141964196  1.55677406290629
 1 -12.15429953505351  2.97674800080008 -2.43229623432343
 1 -13.11398106730673  1.67410130133013 -1.71810300180018
 1 -12.41128285938594  3.16268492319232 -0.54030527452745
 1 -12.23400817921792 -1.95562500760076 -1.35378033293329
 1 -13.25873459235924 -0.46595333213321 -1.42510803830383
 1 -12.92008836143614 -2.07943262946295 -3.59666955145514
 1 -12.47136070027003 -0.30000453805381 -3.69282277797780
 1 -11.39729600890089 -1.38533340044004 -3.84008262826283
 1 -8.34711431443144 -4.86613735663566 -2.06449971407141
 1 -7.85307467226723 -5.79313931813181 -0.36865647864786
 1 -9.63505339023902 -4.77953297459746 -0.67422924552455
 1 -3.33402409830983 -3.31681493219322 -0.07802307380738
 1 -1.73817198369837 -4.39307574727473  3.82043495879588
 1 -2.81387099569957 -5.65663728132813  3.50349318821882
 1 -1.17265537703770 -5.89367864106411  2.99587354025403
 1  2.73980328442844 -1.61591342724272 -1.94462842784278
 1  2.69238671627163  0.07912219181918 -2.30779393159316
 1  4.41406231183118 -1.40766298149815  0.05737895389539
 1  3.95448441194119  1.59421813221322 -2.85479384908491
 1  5.62788820052005  2.23365362426243 -2.28406487468747
 1  5.77496480408041  0.86766787428743 -3.28179691069107
 1  6.41661372427243  1.29927392739274  0.07056969976998
 1  6.21792591199120 -0.50061809920992  0.43529324602460
 1  7.44142152685269 -1.29674891009101 -1.13492481608161
 1  7.83257569346935  0.25306851495149 -2.07134005760576
 1  9.09345139673967  1.00352823782378  0.17343497569757
 1  8.61043953265327 -0.55266077227723  0.64112197589759
 1  10.36644419581958 -0.14996245854585 -1.80419530903090
 1  9.44300928642864 -2.28226620312031 -2.14278020282028
 1  11.02498505420542 -2.57496428032803 -1.86055029892989
 1  9.64474736073607 -2.74825676767677 -0.46005544524452
 1  11.38726640754075  0.79277150735073  0.21100258775878
 1  11.33345639903991 -0.79020498179818  0.92095271687169
 1  13.01353467236724 -1.84295245644564 -0.92709037663766
 1  12.72825657815781 -0.31981129012901 -1.78787214851485
 1  14.03601503820382  0.83142569856986  0.60012735573557
 1  13.73864661776178 -0.72994259895990  1.17636415291529
 1  15.19381266976698  0.31107059205921 -1.43940829882988
 1  15.47900534343434 -2.31297158925893  0.00084863096310
 1  14.89093214391439 -2.23655603120312 -1.53548096319632
 1  16.71927155655566 -1.84347987288729 -1.17972944244424
 1  16.15163036373637  1.42962079577958  0.74557110141014
 1  16.44422887008701 -0.32646182128213  1.24651741294129
 1  18.13291423012301 -0.54911145854585 -0.64336767716772
 1  17.54608167266727  1.14356167506751 -1.01715529132913
 1  18.46253704630463  2.10784494219422  1.33440144544454
 1  18.52798995929593  0.62785696669667  1.82900290059006
 1  20.66110102280228  0.20054620282028  0.02074913891389
 1  19.74859896649665  3.25990955285529 -0.65803939733973
 1  21.29082333443344  2.35700235303530 -1.32205356865687
 1  19.56973087748775  1.77506931773177 -1.62699966896690
 1  21.26194216941694  1.35098320742074  2.33260287748775
 1  21.97899960626063  1.88509973967397  0.72062702900290
 1  20.80595032493249  2.88413849714971  1.77491793229323

