%nproc=4
%Mem=2GB
# td=(NStates=1) CAM-B3LYP/6-31G(d,p) 

TD

0 1
12 -7.13285385838584  0.63546229432943 -0.07544985758576
 6 -4.80582520052005 -1.95681686008601  0.47078361106111
 6 -4.70348027692769  2.86301474877488  1.19687605250525
 6 -9.42659739523952  3.15996149164916 -0.40834369406941
 6 -9.43011332503250 -1.73905941694169 -1.03614004310431
 7 -5.12433585818582  0.44945476357636  0.71537195549555
 6 -4.28844855095510 -0.68990881288129  0.78890691389139
 6 -2.88168717411741 -0.43331275697570  1.19922027622762
 6 -3.06074951335134  1.03871653995400  1.65514624532453
 6 -4.34189118401840  1.48195894469447  1.21926895679568
 6 -2.93851893399340  1.21172346044604  3.26186759565957
 6 -1.86102956395640 -0.60927618901890  0.12446640494049
 6 -0.42357978057806 -0.52894724192419  0.61851598089809
 6  0.58033917111711 -0.70412392529253 -0.46714209470947
 8  0.25000624072407 -1.12299770737074 -1.58074440614061
 8  1.89474128462846 -0.43346074247425 -0.11651844074407
 7 -7.04541498939894  2.69038462826283  0.20989968546855
 6 -5.96031531053105  3.39265024082408  0.70327386098610
 6 -6.38766601970197  4.78120240964096  0.84216490369037
 6 -7.67973068006801  4.87944857635764  0.35237362866287
 6 -8.10094436603660  3.54009320462046 -0.02242969666967
 6 -5.44633258995900  5.88831129702970  1.26240100060006
 6 -8.59303710131013  6.04837587128713  0.16944392979298
 6 -8.49980387168717  7.13400951955196  0.91042729252925
 7 -9.08298057065707  0.67446030713071 -0.61658569226923
 6 -9.82526878657866  1.80855080818082 -0.77664398849885
 6 -11.13300239683968  1.49206754585459 -1.23769548904890
 6 -11.25838824272427  0.13723908800880 -1.29534824882488
 6 -9.94845052575258 -0.38617059135914 -1.02677769386939
 6 -12.22091091479148  2.56568713971397 -1.41582835763576
 6 -12.46178072437244 -0.75166257635764 -1.86540734923492
 6 -12.10977846624663 -1.22313472467247 -3.21938705730573
 7 -7.22807227552755 -1.34974458805881 -0.20870554755476
 6 -8.18044828462846 -2.15296046814681 -0.61449640484048
 6 -7.78340448604860 -3.61253952145215 -0.59461673897390
 6 -6.48467235133513 -3.56463080008001 -0.08719045094509
 6 -6.23163575997600 -2.16646492779278  0.16107891209121
 6 -8.64092155955595 -4.85580842324232 -0.77062554095410
 6 -5.27401187148715 -4.35577946144614  0.20859373197320
 8 -5.12636147404741 -5.57939242264226  0.17629466016602
 6 -4.11754533393339 -3.32779856965697  0.59646951225122
 6 -3.55488611951195 -3.74220944224422  1.97446781968197
 8 -3.78734033463346 -3.11967870407041  3.04286696779678
 8 -2.69331052475248 -4.71119584198420  1.90058863976398
 6 -2.13674426232623 -5.12384661376138  3.11258619411941
 6  2.88165067676768 -0.74703249784979 -1.16737793819382
 6  4.15849793879388 -0.51368954525453 -0.47851800080008
 6  5.17528101250125  0.27149341474147 -0.82435220792079
 6  4.92631105410541  1.36925957525753 -2.06945111041104
 6  6.43292762556256  0.41824367456746 -0.13062954815482
 6  7.57078461636164 -0.13918426532653 -0.93469041954195
 6  8.82781465406541 -0.21829696009601 -0.10172198499850
 6  10.12985360986099 -0.67829490119012 -0.91638260876088
 6  9.98320502070207 -2.14532546864686 -1.30603406840684
 6  11.38096097299730 -0.41143492429243 -0.07708684008401
 6  12.67134204190419 -0.61607565866587 -0.82185220812081
 6  13.88470793919392 -0.16274747754776  0.07516458395840
 6  15.25376150105011 -0.15523925302530 -0.56494473427343
 6  15.68940060896090 -1.56161379517952 -0.84119373707371
 6  16.33035714161416  0.54446880688069  0.36020052725273
 6  17.66437102650265  0.65746714511451 -0.28157397199720
 6  18.65936630613061  1.30989920692069  0.72274270727073
 6  20.15252392159216  1.38683901740174  0.19442420562056
 6  20.34062541634163  2.28364666186619 -1.08220921362136
 6  21.10031096189619  1.93749668596860  1.19902526592659
 1 -4.04949643414341  3.53454897629763  1.77191177807781
 1 -10.14516490919092  4.00498133313331 -0.39521491299130
 1 -10.20210349974998 -2.42907224802480 -1.24810146234623
 1 -2.54005046194619 -1.18147646154615  1.90289098029803
 1 -2.21254485968597  1.61702528512851  1.20936158655866
 1 -1.83525798329833  0.92286273917392  3.54623833733373
 1 -3.12685774577458  2.34523858135814  3.38787095249525
 1 -3.66051949464947  0.56848153215322  3.91362377517752
 1 -2.15336782168217 -1.50663062346235 -0.42090599979998
 1 -2.04156582908291  0.00746799719972 -0.72544258385839
 1 -0.14338785618562  0.47077169106911  1.10900129922992
 1 -0.40017781978198 -1.21927644284428  1.30811476667667
 1 -5.85207398279828  6.92320096419642  0.73859956915692
 1 -5.52890988038804  5.84099746284628  2.48607490459046
 1 -4.26997095309531  5.81367253365337  1.02054523012301
 1 -9.44833688618862  5.84479062716272 -0.61745197339734
 1 -9.04780599649965  8.07408814771477  0.49456907870787
 1 -7.95892535833583  7.23435983548355  1.77594598009801
 1 -12.18908301340134  3.37366769276928 -2.00552355705571
 1 -13.16750641984198  1.98332222342234 -1.58939013051305
 1 -12.36240797189719  3.06671532623262 -0.44483572757276
 1 -12.61017579597960 -1.68678812391239 -1.29713466836684
 1 -13.34130284918492 -0.26528326512651 -1.78487401490149
 1 -12.79951630423042 -1.90770545674567 -3.60879076357636
 1 -12.36098966316632 -0.31848638623862 -3.73665716141614
 1 -10.96744302360236 -1.58058292539254 -3.06589520952095
 1 -9.17332693569357 -4.82619336223622 -1.82930619471947
 1 -8.14395376017602 -5.71931193539354 -0.60143975697570
 1 -9.44192407730773 -4.95787080838084 -0.00673249584958
 1 -3.52167286318632 -3.65859911061106 -0.19334460596060
 1 -1.48366653315332 -4.23449988968897  3.33267618291829
 1 -2.96505611421142 -5.29232084968497  3.62894573347335
 1 -1.61670978247825 -6.16815608880888  2.83604755765577
 1  2.66539584368437 -1.82332416831683 -1.46112007700770
 1  2.68702618021802 -0.30850657105711 -2.08560171237124
 1  4.21258216381638 -1.30937315251525  0.37856107210721
 1  3.83001196469647  1.32007071747175 -2.51344971467147
 1  5.24703011471147  2.54011427032703 -1.96351281948195
 1  5.72423973157316  0.95683679117912 -2.79878860986099
 1  6.56346840974097  1.42323632363236  0.09138178097810
 1  6.40902502190219 -0.22340037743774  0.65998571527153
 1  7.36325371007101 -1.02167140234023 -1.42057338093809
 1  7.65424786068607  0.34847805590559 -1.85324824842484
 1  8.94942699429943  0.60666855185519  0.39227685988599
 1  8.68551704040404 -0.98366387258726  0.82720058375838
 1  10.05236278767877 -0.11398886118612 -1.91588647814782
 1  9.07851283678368 -2.48404638113811 -1.95189111391139
 1  10.82477503320332 -2.63676045994599 -1.75569981388139
 1  9.90737362336234 -2.63141508350835 -0.41993143284328
 1  11.48854653555355  0.48096032623262  0.51452293979398
 1  11.33779683308331 -1.43717967926793  0.59766038763876
 1  12.82576589548955 -1.68838699989999 -1.02131979957996
 1  12.65871962446245  0.07663835483548 -1.73065642694269
 1  13.59943137983798  0.76921947794779  0.54944228722872
 1  13.84480723382338 -0.75910551525153  1.05368188468847
 1  15.13897718621862  0.32535202020202 -1.49771412941294
 1  15.74301174407441 -2.14580487258726  0.11485003110311
 1  15.00893394409441 -2.03946632223222 -1.61031844694469
 1  16.79551918131813 -1.70591611651165 -1.11623309280928
 1  16.07306250695069  1.64739257295730  0.82916946124613
 1  16.47957240444044 -0.05964513961396  1.32555531673167
 1  18.11242218091809 -0.50392694009401 -0.46963030343034
 1  17.48203526802681  1.22110942984298 -1.14346792259226
 1  18.14743553615362  2.35479963766377  1.13681168646865
 1  18.45144230453045  0.62437661866187  1.52599259955996
 1  20.39000391309131  0.49604575277528 -0.08698163416342
 1  20.09123322992299  3.39545310721072 -0.92598619201920
 1  21.36703095519552  2.11647830063006 -1.59990135343534
 1  19.48337224162416  2.12960477127713 -1.99202617161716
 1  21.52121809700970  1.04778288738874  2.07476709390939
 1  21.98508021432143  2.20819204890489  0.53407837413741
 1  20.89206893679368  2.83561364466447  1.79725016551655

