%nproc=4
%Mem=3GB
# td=(NStates=1) iop(3/107=0140000000,3/108=0140000000) CAM-B3LYP/6-31G(d,p) 

TD

0 1
12 -7.14367905960596  0.58522690619062  0.14396076607661
 6 -4.85069388588859 -2.00768799939994  0.65889129152915
 6 -4.72780881148115  2.86886560446045  1.13519362456246
 6 -9.38690545504551  3.15722327532753 -0.43723619891989
 6 -9.45415151315132 -1.66050781648165 -0.93586039093909
 7 -5.14023105430543  0.52482857345735  0.77128495249525
 6 -4.37732998029803 -0.67402854605461  0.87160505520552
 6 -2.94647086768677 -0.35180357835784  1.23809947904790
 6 -3.02290551745175  1.13082178377838  1.62007828712871
 6 -4.35554578927893  1.54993964506451  1.22194658855886
 6 -2.96903308410841  1.20780359965997  3.17555286988699
 6 -1.94833056275628 -0.56640262946295  0.08629243954395
 6 -0.53706941614161 -0.49261250925092  0.58012139443944
 6  0.49744166736674 -0.63408002990299 -0.55670546064606
 8  0.17749796659666 -0.94532831053105 -1.74833222632263
 8  1.82407100550055 -0.56242618101810 -0.11376676427643
 7 -7.05937358075808  2.61434464436444  0.29784070817082
 6 -5.98597874167417  3.37612137953795  0.81626750285029
 6 -6.35145005340534  4.74349121272127  0.84876313501350
 6 -7.79671445674567  4.81204300950095  0.50078620502050
 6 -8.10240976847685  3.35466240504050  0.02128012661266
 6 -5.45361739563956  5.84627410111011  1.11507166236624
 6 -8.54949495749575  5.99221949154915  0.24279489198920
 6 -8.36573498349835  7.23319246894689  0.79415347464746
 7 -8.97920696179618  0.68990598499850 -0.62031860576058
 6 -9.72028951525152  1.86947027132713 -0.82134494799480
 6 -11.09647360006001  1.52822226672667 -1.23673853355336
 6 -11.16304579177918  0.13891143694369 -1.34146417471747
 6 -9.81716932053205 -0.34178437183718 -0.91725392669267
 6 -12.20547148484849  2.51887712911291 -1.56322577527753
 6 -12.26019981288129 -0.75437156095610 -1.72191152175218
 6 -12.17079898879888 -1.24464465676568 -3.22649330053005
 7 -7.24816777917792 -1.33706854255426 -0.00824349944994
 6 -8.27846217251725 -2.24833337883788 -0.43153473337334
 6 -7.81960400020002 -3.63406395779578 -0.39710000980098
 6 -6.54758254875488 -3.60464344644465  0.00658857715772
 6 -6.17740147184718 -2.16147410321032  0.21396323172317
 6 -8.71209354885489 -4.82609870827083 -0.77849123222322
 6 -5.27962342524252 -4.39389295269527  0.19329430353035
 8 -5.13619461176118 -5.62853971097110  0.06757270587059
 6 -4.26759126172617 -3.33704115151515  0.51986030763076
 6 -3.56229040584058 -3.64397233993399  1.81190715921592
 8 -3.70156293969397 -3.03525088298830  2.91490484868487
 8 -2.76568192099210 -4.75606422492249  1.75195423292329
 6 -2.25783474047405 -5.38034324022402  2.98580598099810
 6  2.77600392079208 -0.64314260316032 -1.16819033623362
 6  4.15831671687169 -0.38267353525353 -0.53190575337534
 6  5.18072356365637  0.36912344034403 -0.96536941394139
 6  5.06984070967097  1.27041471677168 -2.24897903290329
 6  6.49194547324733  0.42407302330233 -0.25821634603460
 6  7.63438489108911 -0.15412396039604 -1.03664399309931
 6  8.95396310791079 -0.01361317741774 -0.26147224962496
 6  10.14420988158816 -0.57464912811281 -1.03470919091909
 6  9.99352262886289 -2.01754963486349 -1.33803076907691
 6  11.45182984678468 -0.29760465156516 -0.18635659815982
 6  12.81907964346435 -0.64574460796080 -0.72396990209021
 6  13.95444671647165 -0.11522723702370  0.11765817741774
 6  15.27013300430043 -0.22148123172317 -0.52546819931993
 6  15.59235550655066 -1.67534592289229 -0.97671949824982
 6  16.41957895059506  0.27652416971697  0.46001073577358
 6  17.73121070877088  0.60412414201420 -0.28309483648365
 6  18.73374379297930  1.18784686318632  0.74933819051905
 6  20.13259606400640  1.36376580908091  0.35148185418542
 6  20.24808765456546  2.19854715981598 -0.94698939483948
 6  20.97904297129713  1.97144884478448  1.40869480948095
 1 -4.12358272177218  3.76617986938694  1.46263235903590
 1 -10.19877200050005  3.80197247174717 -0.54056858305831
 1 -10.10403482758276 -2.31064659975998 -1.52435025442544
 1 -2.61899918711871 -0.99170937363736  2.13322981368137
 1 -2.04911837813781  1.59188124922492  1.41044469346935
 1 -1.79015210161016  1.36315542194219  3.55047538493849
 1 -3.46348345744575  2.20885010781078  3.56105412761276
 1 -3.53746654715472  0.49501465576558  3.71380306550655
 1 -2.05375049404940 -1.55143581438144 -0.59750775787579
 1 -2.16275264426443  0.31684930473047 -0.68053478807881
 1 -0.39638506720672  0.41348093539354  1.10646450945094
 1 -0.33766218651865 -1.44458522512251  1.30763422172217
 1 -5.70930510821082  6.66764427642764  0.58828866016602
 1 -5.45238670997100  6.21405428682868  2.26544855735574
 1 -4.34131897649765  5.55658992699270  1.06272700530053
 1 -9.62979323912391  5.76661004300430 -0.35566691939194
 1 -8.97868693239324  8.16973669466947  0.53136291199120
 1 -7.55840377247725  7.40871770817082  1.37899685998600
 1 -12.05228570157016  2.95561470857086 -2.41743757525753
 1 -13.33523082078208  2.15838458085809 -1.53319904810481
 1 -12.26897793049305  3.34482181628163 -0.70774121362136
 1 -12.35008697359736 -1.88067899069907 -1.14130763166317
 1 -13.41835413451345 -0.33117582808281 -1.59910566496650
 1 -13.25941114031403 -1.49911357345735 -3.57051800990099
 1 -12.01829223492349 -0.24020249154916 -3.85713469186919
 1 -11.22163700310031 -1.92214324152415 -3.41454973317332
 1 -8.83532815141514 -4.94972147294729 -1.87207327032703
 1 -8.25293967916792 -5.71944789808981 -0.26918687378738
 1 -9.79892407140714 -4.70112856125613 -0.43427569626963
 1 -3.35336285478548 -3.32813941954195 -0.02948068616862
 1 -1.39209259685969 -4.58959117251725  3.16147786538654
 1 -3.08360479777978 -5.37220674557456  3.67742878057806
 1 -1.96434695519552 -6.31520230503050  2.82443580468047
 1  2.69200725552555 -1.85715233803380 -1.77556900560056
 1  2.42625906720672 -0.00030194539454 -2.02196325382538
 1  4.37860834753475 -1.15799421322132  0.22973437363736
 1  4.12680799229923  1.50536607930793 -2.66190667636764
 1  5.41990892309231  2.22723314721472 -1.83298073647365
 1  5.60065963446345  0.90711190209021 -3.02222847974798
 1  6.63007119101910  1.43426340694069  0.03944355825583
 1  6.34905277737774 -0.35919325602560  0.56203239873987
 1  7.34959708250825 -1.21312198519852 -1.23461821902190
 1  7.71345390389039  0.39479858285829 -1.88279910281028
 1  9.11305735003500  1.02199169666967  0.04127655575558
 1  8.85031815261526 -0.46839519221922  0.81509763316332
 1  10.17737236903690 -0.02336618881888 -1.97608276627663
 1  9.09174878397840 -2.30664894839484 -2.03491187308731
 1  10.72865200580058 -2.56080948024802 -1.89206456455646
 1  10.00324252135214 -2.48969308400840 -0.44132152585258
 1  11.50210185178518  0.86131256465647  0.00981875267527
 1  11.17891548704871 -0.70780207780778  0.88821514161416
 1  12.76349430193019 -1.90230765006501 -0.79452172367237
 1  13.02461829172917 -0.22212727672767 -1.59881421512151
 1  13.60367178747875  0.87747311061106  0.23848867756776
 1  13.91983029362936 -0.69690606950695  0.92249462346235
 1  15.24017441884188  0.47378077507751 -1.17696896569657
 1  15.36104990179018 -2.22591193239324 -0.02658079357936
 1  14.94771641604160 -2.05017953795380 -1.79406077957796
 1  16.48297657725773 -1.75320621762176 -1.46157267056706
 1  15.91778505200520  1.19183751745175  0.98587450375037
 1  16.58185226302630 -0.53132941774177  1.19092758745875
 1  18.20597733543354 -0.13981049504950 -0.70993118871887
 1  17.45475278487849  1.14028292239224 -1.07681342494249
 1  18.26307536443644  2.10559182718272  1.31980392719272
 1  18.74385034753475  0.49087392689269  1.74924817031703
 1  20.34557438973897  0.45372637023702  0.17240313251325
 1  19.96392321082108  3.23736451295130 -0.83406559125913
 1  21.23965776657666  2.03527466956696 -1.17487546874687
 1  19.53052144974497  1.70396068626863 -1.84226261066107
 1  20.75102895639564  1.34663030393039  2.44965863466347
 1  22.17435532833283  1.81931240194019  1.31396805040504
 1  20.68974905340534  3.06981309850985  1.62405954265426

