%nproc=4
%Mem=2GB
# td=(NStates=1) CAM-B3LYP/6-31G(d,p) 

TD

0 1
12 -6.97618819181918  0.66356510461046 -0.06736904950495
 6 -4.77941255925593 -1.88648982738274  0.41905843854385
 6 -4.71878180708071  2.78320676797680  1.20880724562456
 6 -9.31737647314731  3.10729622512251 -0.42442530223022
 6 -9.50124043774377 -1.73711922292229 -0.83702013111311
 7 -5.08710213481348  0.45015483358336  0.82051246954695
 6 -4.32483218931893 -0.69174899689969  0.83080110331033
 6 -2.87070607600760 -0.32667209290929  1.30817117131713
 6 -2.99756319471947  1.16698936723672  1.72783351405141
 6 -4.35773276817682  1.49498024682468  1.16013304320432
 6 -2.91688677077708  1.19859214731473  3.19066047494749
 6 -1.84142760376038 -0.54274953635364  0.21585554385439
 6 -0.40648807140714 -0.50352469966997  0.56066019531953
 6  0.58286942414241 -0.66064957785779 -0.55413079357936
 8  0.34412565266527 -0.98983439103910 -1.70915724742474
 8  1.81424323482348 -0.41362875927593 -0.06415320422042
 7 -7.06939738763876  2.57012260206021  0.26606530203020
 6 -6.03131241024102  3.30446142194219  0.77964149774978
 6 -6.46584383748375  4.81972626202620  0.80791147834783
 6 -7.66757946494649  4.84456508800880  0.34494288558856
 6 -8.10309458105811  3.41182037733773 -0.01200865456546
 6 -5.38491644834483  5.69355182108211  1.26707146764676
 6 -8.53532132973297  5.99766079977998  0.06254323972397
 6 -8.46791068236824  7.19155527412741  0.82364861466147
 7 -9.10895316791679  0.64664752585259 -0.59900393409341
 6 -9.86156241594159  1.78790874397440 -0.70373669776978
 6 -11.21278037463746  1.41122946204620 -1.10965268476848
 6 -11.23893629752975  0.07511287538754 -1.20362907690769
 6 -9.93704938563856 -0.49567154145415 -0.89739475557556
 6 -12.25017384108411  2.44078464946495 -1.33122989778978
 6 -12.40782532883288 -0.74129153925393 -1.75358616711671
 6 -12.20744823322332 -1.15743815501550 -3.16785190379038
 7 -7.19858932723272 -1.37697731133113 -0.40817549454946
 6 -8.19159939973997 -2.18534370647065 -0.71208616381638
 6 -7.75912205780578 -3.58578684618462 -0.56864414171417
 6 -6.47076096019602 -3.49710404740474 -0.11558329022902
 6 -6.15371796819682 -2.18254653595360 -0.04813200900090
 6 -8.63652111951195 -4.86327917031703 -0.76632511091109
 6 -5.30633510381038 -4.34725860936094  0.16190906350635
 8 -5.16693553145315 -5.53259774317432  0.18831586228623
 6 -4.09570314971497 -3.28969475927593  0.48707857315732
 6 -3.51842247314732 -3.66453167446745  1.85858623152315
 8 -3.78633023362336 -3.18113484968497  3.00858353945395
 8 -2.68470966466647 -4.70228495089509  1.86328490939094
 6 -2.12892348024802 -5.11716594569457  3.07889282478248
 6  2.74841735343534 -0.71777957255726 -1.09022022242224
 6  4.17994008300830 -0.39077725402540 -0.53118326732673
 6  5.08363184758476  0.51576784218422 -0.99801957465747
 6  4.84987341034103  1.27775042434243 -2.32978714401440
 6  6.38214254705471  0.55387723792379 -0.33236972217222
 6  7.52674021192119 -0.11633198009801 -1.02123907440744
 6  8.77944981758176 -0.18924405480548 -0.18936074887489
 6  10.04468509300930 -0.60377744944494 -0.86414738523852
 6  10.08639533973397 -2.08719965606561 -1.22493595859586
 6  11.28347122402240 -0.29918369916992  0.02516338493849
 6  12.70037494519452 -0.52685673677368 -0.64920494339434
 6  13.87174664306431 -0.13780498329833  0.21148821632163
 6  15.33458958385838 -0.27101083018302 -0.45929416921692
 6  15.58706037493749 -1.68333596739674 -0.87996761446145
 6  16.37041114701470  0.35285964596460  0.42229673687369
 6  17.79640422982298  0.43500489888989 -0.08172398699870
 6  18.74521489098910  1.30332854985499  0.74017445044504
 6  20.11546021522152  1.34842517601760  0.18560332353235
 6  20.19817117091709  2.20627892509251 -1.07861885458546
 6  21.08204913571357  1.96011894819482  1.16683204660466
 1 -3.89360084458446  3.55255077647765  1.54558914581458
 1 -10.03138353105311  3.89284011901190 -0.72414780628063
 1 -10.23804709410941 -2.50537987878788 -1.00511716391639
 1 -2.74575103200320 -0.98857717161716  2.22002269346935
 1 -2.19349295449545  1.66925050765077  1.31949259965997
 1 -1.91916637413741  0.93667412031203  3.47462117561756
 1 -3.16938199819982  2.28757281478148  3.59574173957396
 1 -3.53259670237024  0.57125180918092  3.68390080288029
 1 -2.16444892979298 -1.47537749814981 -0.17068097729773
 1 -2.14888656115612 -0.02826557615762 -0.69551959155916
 1 -0.15760927832783  0.44137875177518  1.31878227732773
 1 -0.15763356535654 -1.19506402160216  1.32744669986999
 1 -5.50475925132513  6.75935457955796  0.90144585378538
 1 -5.38098508790879  6.00494385748575  2.28338463556356
 1 -4.38455241124112  5.38895006140614  1.04347752335234
 1 -9.32523457595760  5.94456060416042 -0.86422665086509
 1 -9.20419163506351  7.92508324722472  0.44858448024802
 1 -7.99667913371337  7.17534393389339  1.69749813531353
 1 -11.98479258435844  3.29416974297430 -2.19720272497250
 1 -13.22670233943394  2.01300519171917 -1.67281847334733
 1 -12.37955968706871  3.09588824352435 -0.58558980298030
 1 -12.56262104050405 -1.73735318041804 -1.06501145604560
 1 -13.46638535743574 -0.47180391719172 -1.59741526902690
 1 -12.91399775237524 -2.02528721492149 -3.51588147264726
 1 -12.49488305250525 -0.24207874547455 -3.88891238693869
 1 -11.39919619891989 -1.61275614271427 -3.56003462346235
 1 -9.13924352735274 -4.84147489038904 -1.67447071117112
 1 -8.11373073787379 -5.60006001020102 -0.42706231923192
 1 -9.47622750765077 -4.74518954025403  0.03183136053605
 1 -3.21737243314331 -3.49175242594259 -0.10931620312031
 1 -1.68122628912891 -4.45730216991699  3.58374128942894
 1 -2.86445605420542 -5.53236485408541  3.75076791569157
 1 -1.45660377187719 -5.79096837003700  2.72835678857886
 1  2.85445474957496 -1.77833966986699 -1.37462142714271
 1  2.49463694129413 -0.06626234663466 -1.88348150035003
 1  4.40302120772077 -0.86006822202220  0.52537575357536
 1  3.81087005050505  1.23741245164516 -2.68892726242624
 1  5.13102851455145  2.39241950085008 -2.01633810201020
 1  5.50761806940694  0.94236534403440 -3.14220295129513
 1  6.56127819071907  1.72372637263726 -0.16404376157616
 1  6.19143326272627  0.38446040864087  0.90099981668167
 1  7.18573595829583 -1.14424365956596 -1.40352167576758
 1  7.64896733263326  0.27695090319032 -2.15265818941894
 1  9.24750680228023  0.72398028302830  0.21720935313531
 1  8.53538202690269 -0.96474198039804  0.56176404010401
 1  10.22431998339834 -0.18714617691769 -1.94552944244424
 1  9.42831781728173 -2.11911988848885 -2.01434735953595
 1  10.96037859355936 -2.33504028792879 -1.54607885178518
 1  9.65167805380538 -2.63062500450045 -0.28477791749175
 1  11.37761544244425  0.89863209340934  0.35063655115512
 1  11.34078713211321 -0.80476643794379  0.94803542514251
 1  12.60196351525152 -1.66841500270027 -1.05838350595060
 1  12.70472422492249  0.17948863986399 -1.54322768406841
 1  13.79602103880388  0.92443499949995  0.45904324732473
 1  14.04630738383838 -0.58803840854085  1.15388190469047
 1  15.27877116561656  0.32696218121812 -1.29100345834583
 1  15.70293773667367 -2.47750804290429 -0.11726318021802
 1  14.77519056975698 -2.46314869046905 -1.24266168126813
 1  16.40724035343534 -1.76589211411141 -1.82358382788279
 1  16.05791099179918  1.15866370007001  0.88523506780678
 1  16.36891133833383 -0.30712988808881  1.04615737693769
 1  18.08573951265127 -0.62706925432543 -0.41923526392639
 1  17.70087715221522  1.06921424032403 -0.92801637743774
 1  18.33387418001800  2.34418857655766  0.75032303760376
 1  18.63272043234323  0.93534771577158  1.71270127042704
 1  20.57600251295129  0.35713186138614 -0.17194013001300
 1  20.12500660726073  3.20583414531453 -0.86271986538654
 1  21.31885613771377  2.11925857865787 -1.43053441674167
 1  19.49931383578358  1.68608041884188 -1.71709867886789
 1  21.22353832903290  1.52499060816082  2.12944256145615
 1  22.08731043734373  2.15444667436744  0.64538950525053
 1  20.76064579447945  2.83140322362236  1.51932237273727

