%nproc=4
%Mem=3GB
# td=(NStates=1) iop(3/107=0140000000,3/108=0140000000) CAM-B3LYP/6-31G(d,p) 

TD

0 1
12 -7.10968566026603  0.60054843834383  0.07051342134213
 6 -4.89641845834583 -1.97155438603860  0.48203360576058
 6 -4.79326535713571  2.79272799069907  1.12326243144314
 6 -9.42418918341834  3.18675622862286 -0.26223869916992
 6 -9.47661375937594 -1.70389215491549 -0.83886069096910
 7 -5.04682171337134  0.37915400600060  0.68616644064406
 6 -4.35320756805681 -0.75584672787279  0.69295719041904
 6 -2.89398561916192 -0.40554895289529  1.16654232333233
 6 -3.02502572947295  1.03436213781378  1.56652293159316
 6 -4.37417765246525  1.45911056215622  1.09292368626863
 6 -2.96780296109611  1.19177199649965  3.13843915851585
 6 -1.95756148584858 -0.61814780398040 -0.03850003970397
 6 -0.45515122432243 -0.58610185818582  0.46682006430643
 6  0.40068199139914 -0.78566518841884 -0.77180697079708
 8  0.14832504930493 -0.97604138183818 -1.92245963906391
 8  1.76567516591659 -0.54326426482648 -0.40791617921792
 7 -7.16061370477048  2.67869107900790  0.38974989908991
 6 -6.04167431123112  3.43966773417342  0.78395427152715
 6 -6.34546945534553  4.79051591519152  0.87904616331633
 6 -7.65448023332333  4.95827763296330  0.38957508390839
 6 -8.14738426592659  3.60442738153815  0.10853885248525
 6 -5.53393542744274  5.93513298699870  1.25838599379938
 6 -8.47407741574157  6.10500076967697  0.22485309780978
 6 -8.31852026202620  7.28952810251025  0.86343040234023
 7 -9.11776081718172  0.69633662806281 -0.38440501440144
 6 -9.90900838713871  1.90326365066507 -0.54147696119612
 6 -11.18922287498750  1.53521296579658 -1.09020388008801
 6 -11.25304479167917  0.18155570137014 -1.24738476677668
 6 -9.86040364396440 -0.34593478687869 -0.83168536983698
 6 -12.29305024272427  2.51736697809781 -1.32761221392139
 6 -12.28827262016202 -0.60832695649565 -1.88046737733773
 6 -12.15418732763276 -1.17598779107911 -3.30149080028003
 7 -7.21457441984198 -1.38154298999900 -0.16507918301830
 6 -8.28454278057806 -2.26845539103910 -0.41500308020802
 6 -7.84975701550155 -3.66578713011301 -0.45025532533253
 6 -6.51206899739974 -3.56517950005001 -0.10105218691869
 6 -6.17733146484648 -2.18481643744374  0.05642747814781
 6 -8.77566990649065 -4.80649674807481 -0.66214959805981
 6 -5.35532099499950 -4.43845740914091  0.28300327442744
 8 -5.20608160046005 -5.67143400040004  0.45001094969497
 6 -4.22008651125113 -3.37609505690569  0.67023534513451
 6 -3.64592876967697 -3.68903684638464  1.88677464596460
 8 -3.86189897329733 -3.03234059195920  2.95398875707571
 8 -2.72277763056306 -4.73746236473647  1.76102514001400
 6 -2.31289024602460 -5.35015022092209  2.99121652205221
 6  2.75327164756476 -0.61544983388339 -1.56429994719472
 6  4.05780666586659 -0.49628489638964 -0.83139570237024
 6  5.10165565686569  0.29308583658366 -1.26542941994199
 6  5.12572629822982  1.04354202950295 -2.52262639763976
 6  6.41146742544254  0.30761137713771 -0.47062758715872
 6  7.67518897149715 -0.18564711271127 -1.13446377507751
 6  8.90906861846185 -0.14544636073607 -0.20998710111011
 6  10.23104856545655 -0.62521418461846 -0.78566428642864
 6  10.15004828142814 -2.17072495239524 -1.13768073407341
 6  11.35921058485848 -0.33847873897390  0.04035607310731
 6  12.73037077257726 -0.64745477897790 -0.57160466556656
 6  14.01616288808881 -0.09165487978798  0.28531494309431
 6  15.41138712971297 -0.06521560516052 -0.39002465496550
 6  15.80295656665667 -1.48012640094009 -1.03433525982598
 6  16.41004799749975  0.47764428172817  0.56015074977498
 6  17.86091367906791  0.54775850545055  0.04531800480048
 6  18.78524894349435  1.38887696619662  0.91535479217922
 6  20.21040384478448  1.41674110661066  0.34476118211821
 6  20.33412625842584  2.29379668476848 -0.98313300920092
 6  21.30693576057606  1.86699839973997  1.33795773577358
 1 -3.88767913141314  3.38378162956296  1.36372246804680
 1 -10.07504962826283  4.09459173367337 -0.23540806700670
 1 -10.36572099619962 -2.46015155025503 -1.01089890929093
 1 -2.56939422662266 -0.93838404110411  2.07441393209321
 1 -2.31960542684268  1.63760582168217  1.16922057105711
 1 -1.91039412581258  0.73450255665567  3.40242057945795
 1 -3.13277038613861  2.25191441424142  3.45779380158016
 1 -3.62684548504850  0.60082523682368  3.70352203740374
 1 -2.07729284828483 -1.74729540034003 -0.22390039713971
 1 -2.16330269926993  0.11789940974097 -0.83387012161216
 1 -0.01973740244024  0.30136972427243  0.98928279127913
 1 -0.29646806710671 -1.19699046564656  1.39300275857586
 1 -5.74185836353635  6.74350186218622  0.41163099439944
 1 -5.85290676197620  6.27481036243624  2.36359837233723
 1 -4.45753059765977  5.78274254225422  1.35016574917492
 1 -9.22859311911191  5.91665504750475 -0.50325167786779
 1 -9.04733379707971  7.99312903390339  0.77841761746175
 1 -7.47126505860586  7.38649548594859  1.74808376867687
 1 -11.86225669866987  2.91353050015001 -2.29991582308231
 1 -13.08878617631763  1.88549729212921 -1.62871860006001
 1 -12.51840287298730  3.11914924902490 -0.47605804530453
 1 -12.25531749664967 -1.53070399319932 -1.13552705360536
 1 -13.30562286138614 -0.02701541204120 -1.80938669306931
 1 -12.92250744994500 -1.66635029712971 -3.67502846094609
 1 -12.26047645334533 -0.38553702500250 -3.93526250465046
 1 -11.05417025642564 -1.64325535273527 -3.27066534473447
 1 -9.32239685828583 -4.75326182698270 -1.55476153915392
 1 -8.33092747794779 -5.78491444474447 -0.76545650075008
 1 -9.66397057605761 -4.62569101750175  0.06180391169117
 1 -3.37761528002800 -3.67559416501650 -0.18434617271727
 1 -1.86995038263826 -4.50012222562256  3.53458517611761
 1 -3.06407284458446 -5.99296882178218  3.61345238293829
 1 -1.43532405290529 -5.97379816461646  2.74782814391439
 1  2.75261331613161 -1.51291791459146 -2.16351780048005
 1  2.30825726702670  0.37906599139914 -2.21492254975498
 1  4.21315180188019 -1.04556297009701  0.12593399359936
 1  4.18576388788879  1.10773631633163 -3.02014249995000
 1  5.58281521372137  1.90924134803480 -2.36535397379738
 1  5.92607217571757  0.55096628752875 -3.25625188208821
 1  6.66202438633863  1.30298027862786 -0.36574696079608
 1  6.34838271037104 -0.21144848154815  0.32536873237324
 1  7.40761288408841 -1.15550622362236 -1.30918567576758
 1  7.80041259975998  0.13399250225022 -2.10860168306831
 1  8.85176122042204  0.85540503800380  0.18719114721472
 1  8.58782190299030 -0.57402575527553  0.71036716011601
 1  10.39664429622962  0.00721686948695 -1.65953111111111
 1  9.28792840194019 -2.25948423192319 -1.92167054895490
 1  10.86074521512151 -2.53402680198020 -1.79199455755576
 1  10.25537773487349 -2.79499361406141 -0.31743913761376
 1  11.41131277287729  0.73529996339634  0.51459923072307
 1  11.23506110161016 -1.02662395999600  0.86892321242124
 1  12.73457140964097 -1.63189060836084 -0.69225149664967
 1  12.75387121702170 -0.19881494549455 -1.67113144684468
 1  13.75679710001000  0.85774113741374  0.63827865656566
 1  14.18932724332433 -0.70146652555256  1.20244261826183
 1  15.42214261566157  0.49972336933693 -1.13556482528253
 1  15.94054785158516 -2.24912425362536 -0.28569670517052
 1  15.06908855325532 -1.68181270127013 -1.57301867536754
 1  16.70768904850485 -1.25515641264126 -1.63472998629863
 1  16.00919419291929  1.54521285498550  0.69972588888889
 1  16.47146122392239 -0.12628891369137  1.41953044774477
 1  18.24863160086009 -0.44971148514851 -0.04232442804280
 1  17.94118142774277  0.90237913201320 -0.95349109270927
 1  18.43201225812581  2.44651591959196  1.07948989578958
 1  18.87184314681468  0.92990783028303  1.86408965446545
 1  20.42122195449545  0.39985098269827 -0.03735784358436
 1  20.13262008050805  3.30617139363936 -0.74078626332633
 1  21.19959376017602  2.30236137823782 -1.40974895609561
 1  19.62901129872987  1.89872016221622 -1.74795317971797
 1  21.42434628812881  1.20513615451545  2.18842251105111
 1  22.30425831863186  2.06158662936294  0.88258491209121
 1  21.00212029052905  2.98136425362536  1.64549168586859

