%nproc=4
%Mem=2GB
# td=(NStates=1) CAM-B3LYP/6-31G(d,p) 

TD

0 1
<<<<<<< HEAD
12 -7.12910348334833  0.63164191229123  0.08434612201220
 6 -4.90217483548355 -1.90702188058806  0.56498303100310
 6 -4.70842077097710  2.80242869016902  1.13739010391039
 6 -9.31056579207921  2.98502399789979 -0.38721158085809
 6 -9.54024433813381 -1.84767027802780 -0.89594602370237
 7 -5.16218964356436  0.45803562166217  0.74340475877588
 6 -4.40678038413841 -0.68694851685168  0.75659368256826
 6 -2.92075108050805 -0.38630805650565  1.13935428962896
 6 -3.05159859825983  1.09022169046905  1.70749147984798
 6 -4.33004999989999  1.48372912171217  1.03416044594459
 6 -3.07142222432243  1.19461174927493  3.27621903080308
 6 -1.87682114311431 -0.61618688008801  0.01298525682568
 6 -0.36493391599160 -0.43618796599660  0.39051318061806
 6  0.56831796899690 -0.59964347724772 -0.74698007850785
 8  0.18333957405741 -0.72334774237424 -1.83788011971197
 8  1.78287009750975 -0.49123652005201 -0.39772656155616
 7 -7.07547799569957  2.58394398419842  0.24790348584858
 6 -5.97506678567857  3.39855083088309  0.70309384298430
 6 -6.39478673177318  4.74033832323232  0.72666335353535
 6 -7.66548925592559  4.87461809330933  0.25878426972697
 6 -8.00154442604260  3.40702989828983  0.06360890719072
 6 -5.53514147084709  5.87723018891889  1.26874163466347
 6 -8.65778357595759  5.97706874057406  0.16068305370537
 6 -8.46898078937894  7.16095221382138  0.70333658345835
 7 -9.11096336893689  0.54348720982098 -0.61784581828183
 6 -9.85200145984598  1.74210416351635 -0.64438076217622
 6 -11.16627572417242  1.44820315941594 -1.08976069556956
 6 -11.20984338823882  0.00635599969997 -1.06098481248125
 6 -9.92561824252425 -0.48113008730873 -0.84745976207621
 6 -12.24715353905390  2.37096766776678 -1.23443021782178
 6 -12.43163771007101 -0.77634504460446 -1.70929173767377
 6 -12.30354784318432 -0.92010442164216 -3.14299941854185
 7 -7.28719818811881 -1.51302091569157 -0.17555223222322
 6 -8.26089632943294 -2.31172634473447 -0.57932288748875
 6 -7.75424156975698 -3.63815208270827 -0.50038731603160
 6 -6.41935581968197 -3.52351668866887 -0.20759249114911
 6 -6.21491408780878 -2.21756003730373  0.00079288348835
 6 -8.59160662806281 -4.84136697909791 -0.94159263766377
 6 -5.33479795009501 -4.30492437593759  0.20038291089109
 8 -5.09997883578358 -5.42216670007001  0.37648467916792
 6 -4.20470404980498 -3.27551334113411  0.56654651995200
 6 -3.60317094799480 -3.76561178247825  1.88673904680468
 8 -3.87157875847585 -3.11788852505251  2.89935261636164
 8 -2.76824801850185 -4.78359308170817  1.89406798769877
 6 -2.32429301720172 -5.08470269936994  3.18435337083708
 6  2.82973548524852 -0.72977077167717 -1.23784498489849
 6  4.09643173217322 -0.37195537183718 -0.55295544454445
 6  5.11945542994299  0.46966323172317 -1.00950072277228
 6  5.05627405040504  1.22301495079508 -2.28026219151915
 6  6.35303963676368  0.64998684888489 -0.17844432963296
 6  7.65876341424142 -0.15365571247125 -0.82812976347635
 6  9.01109298189819  0.07095196479648 -0.15213702650265
 6  10.21515213971397 -0.44876194789479 -0.90761173167317
 6  10.11936863706371 -2.02106304240424 -1.28199166416642
 6  11.46231910881088 -0.21913569436944  0.00238110671067
 6  12.68276318401840 -0.46458050915091 -0.64588461136114
 6  13.85579504790479 -0.14068527132713  0.25801286878688
 6  15.29911603650365 -0.28162189128913 -0.35437367716772
 6  15.53645531443144 -1.62806043984398 -0.95483510121012
 6  16.52567667356736  0.15675003500350  0.61937644484448
 6  17.79461405080508  0.55093649204921 -0.18208402300230
 6  18.84871524102410  1.22243046004600  0.76137657065707
 6  20.28299696889689  1.32746307980798  0.13221798499850
 6  20.20886224002400  2.14324262146215 -1.09332032473247
 6  21.33431436223622  1.84313725002500  1.24501986538654
 1 -3.98672015651565  3.60001552295230  1.57704229112911
 1 -10.16137653035304  3.76180701570157 -0.49864525602560
 1 -10.37933122252225 -2.59526886768677 -1.05029168136814
 1 -2.69556601350135 -0.86513482738274  2.04436512771277
 1 -2.14110771597160  1.60557414001400  1.44832548294829
 1 -2.15555001250125  0.74160461336134  3.65928964246425
 1 -3.15987104710471  2.33437749524952  3.30535270067007
 1 -4.01046448914891  0.67505218921892  3.61569398219822
 1 -1.91114359925993 -1.58554851525153 -0.43524743394339
 1 -2.22075374787479  0.16572382278228 -0.85257529712971
 1 -0.41299481688169  0.45279989388939  0.93110350945095
 1 -0.03934173617362 -1.11953646884689  1.17935189038904
 1 -5.58691746714671  6.56824546864686  0.44777048624863
 1 -5.79089607900790  6.09539290239024  2.21376767386739
 1 -4.36603055905591  5.39887105350535  1.01727490309031
 1 -9.64826687918792  5.76459260736074 -0.40585081328133
 1 -8.95304652055206  7.95456619551955  0.45483510531053
 1 -7.51891135693569  7.59703610311031  1.57369575507551
 1 -11.88681278637864  3.15859618561856 -1.93178618331833
 1 -13.13019268846885  1.92967685888589 -1.70420161166117
 1 -12.68365009610961  2.92558121282128 -0.30981222522252
 1 -12.60064484288429 -1.70427987308731 -1.11402635753575
 1 -13.30955967486749 -0.18504524132413 -1.40307583508351
 1 -13.01325767836784 -1.56908159435944 -3.51399128362836
 1 -12.33065662986299 -0.06584112171217 -3.62339583528353
 1 -11.34544082338234 -1.44660952805281 -3.50844946494649
 1 -8.86554615761576 -5.08540928382838 -2.12189545364536
 1 -8.08462782758276 -5.75498550275027 -0.18371798479848
 1 -9.66962684758476 -4.90118513981398 -0.45843766636664
 1 -3.13566426232623 -3.17525077577758 -0.18103337483748
 1 -1.78223639013901 -4.20001644134413  3.71181409670967
 1 -3.22877248584859 -5.38189980758076  3.73968680758076
 1 -1.69070718221822 -5.97774704790479  3.05654960786079
 1  2.93851315541554 -1.85373720962096 -1.54724868986899
 1  2.67678515611561 -0.12724844524452 -2.20717386958696
 1  4.49136004160416 -0.92921513671367  0.38774199019902
 1  4.12262122562256  1.38886759715972 -2.85458382808281
 1  5.49637504920492  2.24265452435244 -1.93787025522552
 1  5.82259956755676  0.87763887138714 -2.97032576357636
 1  6.56316837973797  1.72310631063106  0.05174781758176
 1  6.11629574897490  0.05140710331033  0.68820853755375
 1  7.31152853755376 -1.05478471367137 -0.83365468906891
 1  7.73142557845785  0.40024323242324 -1.81680460406041
 1  9.23649570117012  1.16402428742874 -0.02540490829083
 1  8.82272076077608 -0.35111061726173  0.92228009170917
 1  10.31762931433143  0.10157269496950 -1.93234812431243
 1  9.13175816131613 -2.12025000150015 -1.87559348414842
 1  10.91747430313031 -2.37496428032803 -1.92999724362436
 1  9.97542042804280 -2.61238318031803 -0.24257369706971
 1  11.47872555345535  0.75878810901090  0.47683917141714
 1  11.41530458385839 -1.01536749804981  0.86806742834283
 1  12.78599191809181 -1.58620678187819 -0.85958362596260
 1  12.70573432593259  0.00035072607261 -1.58241160246025
 1  13.56133757045705  0.96101865786579  0.34996233923392
 1  13.67754050715071 -0.61220082478248  1.24969148564856
 1  15.42198548704870  0.33372285728573 -1.14199855785579
 1  15.14176161906191 -2.47375766786679 -0.13758521242124
 1  14.86618966966697 -1.92234461006101 -1.88032544764476
 1  16.48599822922292 -1.75123064796480 -1.40950241974197
 1  16.16721192189219  1.02020985468547  1.13420996529653
 1  16.95699014621462 -0.62730190529053  1.40319308050805
 1  18.21942288098810 -0.43931047844784 -0.65229857025703
 1  17.67036410091009  1.21441876077608 -1.02861643744374
 1  18.45560635323532  2.09521367906791  1.10002800810081
 1  18.75919307960796  0.69422360336034  1.67959796009601
 1  20.78022293499350  0.27846399459946  0.23848091209121
 1  19.50848495509551  3.16854041594159 -1.09049264266427
 1  21.18671292339234  2.50560721352135 -1.46760812411241
 1  19.84587849224923  1.36830864166417 -1.83754072307231
 1  21.48648462366237  1.32014012311231  2.19795941314131
 1  22.21849355565556  1.82707393709371  0.76430139643964
 1  21.23168289818982  2.93108319161916  1.47499794029403
=======
12 -7.19059963296330  0.55510425852585  0.10587827522752
 6 -4.84316893489349 -1.95540671907191  0.51489802250225
 6 -4.79816974587459  2.90745919321932  1.16271263616362
 6 -9.40040477597760  3.09279477497750 -0.41328418811881
 6 -9.52026233993399 -1.73353886488649 -0.84241067016702
 7 -5.05979940454045  0.47471728982898  0.61269168746875
 6 -4.28671837793779 -0.71033085508551  0.75674369756976
 6 -2.87803680908091 -0.33488291399140  1.27476783098310
 6 -2.89403284168417  1.14918758705871  1.54428515921592
 6 -4.37463445834583  1.53038378717872  1.09047607750775
 6 -2.84215929802980  1.33902619071907  3.03021443034303
 6 -1.92178563956396 -0.60562582398240  0.04442840114011
 6 -0.37670509310931 -0.54154850205021  0.45738986828683
 6  0.57862900010001 -0.85667918081808 -0.68725410591059
 8  0.15553679377938 -1.21098650625063 -1.82683901560156
 8  1.80561237173717 -0.60384778117812 -0.35022181108111
 7 -7.10597104500450  2.61161675147515  0.21111980748075
 6 -6.04188346734673  3.37029800560056  0.68214174777478
 6 -6.42214946804680  4.82083637303730  0.71334202140214
 6 -7.70322302930293  4.88174880638064  0.27224561586159
 6 -8.14123839543955  3.47815701100110 -0.01010846454645
 6 -5.50083804050405  5.82269473537354  1.15153991449145
 6 -8.48746654425442  6.02598363206321  0.12780976637664
 6 -8.41039493079308  7.11345746434643  0.94551080088009
 7 -9.11630390299030  0.72743560466047 -0.59383341704170
 6 -9.88682494219422  1.83193314641464 -0.71077740184018
 6 -11.17221631823182  1.48454679377938 -1.19298101760176
 6 -11.27905030893089  0.12083744784478 -1.22511122512251
 6 -9.95250093079308 -0.38785075937594 -0.92167718381838
 6 -12.27156598029803  2.56857742874287 -1.33992076687669
 6 -12.50832537883788 -0.61786919701970 -1.59194000250025
 6 -12.39292678107811 -0.98090050125013 -3.05651076967697
 7 -7.25507497579758 -1.38625823942394 -0.07519219621962
 6 -8.27227746754675 -2.19468464056406 -0.42281723692369
 6 -7.89981612721272 -3.60603887138714 -0.42211948924892
 6 -6.53397728182818 -3.51067540454045 -0.01887361926193
 6 -6.21662425882588 -2.20274855615562  0.17703050725072
 6 -8.75057252465246 -4.74772761516152 -0.66394487288729
 6 -5.34674914521452 -4.40508439193919  0.20745361796180
 8 -5.20114895279528 -5.60780526392639  0.23115014571457
 6 -4.13769734913491 -3.36334212401240  0.56025589088909
 6 -3.53013364426443 -3.78077329862986  1.80746111901190
 8 -3.69683128372837 -3.22412914911491  2.90545322642264
 8 -2.61694288798880 -4.84187891029103  1.65825440634063
 6 -2.11647223512351 -5.26478070717072  2.95637057255726
 6  2.83812632433243 -0.80639843444344 -1.33953515391539
 6  4.10551264026403 -0.47374555085509 -0.66483663266327
 6  5.15708919331933  0.35503176857686 -1.03358313101310
 6  5.10595901890189  1.13100574987499 -2.31345551085109
 6  6.38702303510351  0.43487533773377 -0.20929741494149
 6  7.68881641954195 -0.12509285618562 -0.89859681018102
 6  8.92700457305731 -0.14019915031503 -0.05313712651265
 6  10.15519614411441 -0.53640071177118 -0.79419038953895
 6  10.06596329652965 -1.95499643574357 -1.17836130113011
 6  11.43357623452345 -0.20721450225023  0.07338820742074
 6  12.74912982068207 -0.59730378147815 -0.69045906880688
 6  13.84406387478748 -0.08962016481648  0.20858792629263
 6  15.32132825772577 -0.20430415951595 -0.47393563336334
 6  15.65816748564856 -1.68676631043104 -0.77775739343934
 6  16.47690179607961  0.49044340434043  0.33525803300330
 6  17.82911750115012  0.61398279667967 -0.23496931153115
 6  18.73622399189919  1.37834605160516  0.71880231323132
 6  20.17501617081708  1.44907524102410  0.26355111831183
 6  20.35499685348535  2.36437473467347 -0.91419241194119
 6  21.16693762456246  1.92556549284928  1.34115947934793
 1 -4.00474195869587  3.75664118551855  1.21935652255226
 1 -10.17269766246625  3.91654248924893 -0.50568596009601
 1 -10.33112640204020 -2.38063740454045 -1.13168982118212
 1 -2.74267072397240 -1.00248856275628  2.29646033723372
 1 -2.14838844404440  1.76797037963796  1.11313196359636
 1 -1.87861231873187  1.18768922182218  3.47211092459246
 1 -3.09299435943594  2.36268032553255  3.61685385078508
 1 -3.53264670737074  0.47230191419142  3.37811022382238
 1 -1.87930041494149 -1.67393735413541 -0.34740865006501
 1 -1.92988466096610  0.04029127952795 -0.94004404400440
 1 -0.08352186958696  0.34890950485049  0.98899929902990
 1 -0.08104590659066 -1.10500501570157  1.23602755795580
 1 -5.86627540294029  6.83817246134613  0.84338004720472
 1 -5.46811380078008  5.76217958105811  2.36351264836484
 1 -4.30755471147115  5.55455662206221  0.88169134473447
 1 -9.31334338683868  5.89412556065607 -0.50639086728673
 1 -9.15272648854885  8.01154189308931  0.75225484728473
 1 -7.75546501230123  7.13675007450745  1.86419480498050
 1 -11.91442554765477  3.28460878687869 -2.09028203290329
 1 -13.04661433063306  2.12707659885988 -1.47581877337734
 1 -12.40469220032003  3.33641229592959 -0.44481572557256
 1 -12.56275105350535 -1.70175962106211 -1.16766172107211
 1 -13.37879659855986 -0.08016475327533 -1.28509403690369
 1 -13.28041439403940 -1.49582426862686 -3.46076596109611
 1 -12.34099766396640 -0.18435297289729 -3.79028252395240
 1 -11.50130640994099 -1.60605547264726 -3.22883150315031
 1 -9.17928753175318 -5.01384212711271 -1.76925018911891
 1 -8.08996836163616 -5.72182218641864 -0.31504111711171
 1 -9.63327321222122 -4.75780080138014  0.11616979437944
 1 -3.39431012691269 -3.46595984668467 -0.21917718921892
 1 -1.67375554205421 -4.30806724642464  3.53165608090809
 1 -3.03277288588859 -5.69197081468147  3.59106194509451
 1 -1.42060017151715 -6.10390966416642  2.73501745464546
 1  2.92669197329733 -1.98637047294729 -1.52279624462446
 1  2.46338381598160 -0.32941866226623 -2.16682983518352
 1  4.33933483908391 -1.13458567376738  0.18314153015301
 1  4.06956592009201  1.22513122352235 -2.59376774647465
 1  5.38697410911091  2.29543980288029 -1.91108757695770
 1  5.78856616421642  0.92106321382138 -3.02967169816982
 1  6.42386444934493  1.45200920092009  0.12882552535254
 1  6.32122624202420 -0.07661569896990  0.86148586528653
 1  7.30675806050605 -1.20447968316832 -1.22053337693769
 1  7.61843427932793  0.57956116421642 -1.70473339693969
 1  9.21732378397840  0.87176506150615  0.00414804700470
 1  8.83696218491849 -0.63179868606861  1.01678954265427
 1  10.15476302770277  0.13985652335234 -1.67277216671667
 1  9.05865085058506 -2.47568554505451 -1.48301422622262
 1  10.73035559125913 -2.38239502340234 -2.07567181108111
 1  10.19421230723072 -2.55879782178218 -0.30250969066907
 1  11.21418909980998  0.74597682788279  0.55259674717472
 1  11.38931198459846 -0.99294525582558  0.93351397299730
 1  12.99997331623162 -1.64474263546355 -0.76605427302730
 1  12.81255500800080 -0.18306761576158 -1.72911627292729
 1  13.70945238193819  1.01608416441644  0.38660600360036
 1  13.97228998209821 -0.53885349004900  1.15984250075008
 1  15.28625191369137  0.28861834683468 -1.29062342034203
 1  15.64703214611461 -2.29669996209621  0.14625317141714
 1  14.76101915261526 -2.16933930953095 -1.30599801490149
 1  16.70859048844884 -1.83821934683468 -1.21407287678768
 1  16.12776797749775  1.46977481118112  0.67684422872287
 1  16.53279772697270 -0.07642681778178  1.22877563876388
 1  18.04553549224923 -0.36408295569557 -0.30908424882488
 1  17.49358642314232  0.98298561746175 -1.24405798159816
 1  18.18222901550155  2.24634879257926  0.99480748604860
 1  18.81995915621562  0.60764494549455  1.59915991629163
 1  20.44815972867287  0.34367051525153  0.01779884388439
 1  20.05988009460946  3.37276083798380 -0.84556815021502
 1  21.36391064316432  2.25908256105611 -1.41110247354735
 1  19.80393429782978  2.02994480528053 -1.85778274727473
 1  21.24370034523452  1.18933704280428  2.12320193739374
 1  22.17017872417242  1.79863109280928  0.85610057635764
 1  20.82626235613562  2.92657274057406  1.87038747924793
>>>>>>> 8e03b5b5abfc0030b3aa597dc0de36371bfbd096

