%nproc=4
%Mem=3GB
# td=(NStates=1) iop(3/107=0140000000,3/108=0140000000) CAM-B3LYP/6-31G(d,p) 

TD

0 1
12 -7.07620231193119  0.58434681818182 -0.05676930693069
 6 -4.81474029052905 -1.92141937253725  0.53066846924692
 6 -4.73759979057906  2.78937765566557  1.17623772897290
 6 -9.37418418291829  3.10616816981698 -0.53943641894189
 6 -9.55992209020902 -1.68254001970197 -0.82133893879388
 7 -5.06281331253125  0.49911600220022  0.56342416641664
 6 -4.41497374467447 -0.61678282148215  0.70923881858186
 6 -2.89532575317532 -0.39542794079408  1.14410007910791
 6 -3.00839406630663  1.00345904750475  1.64413069236924
 6 -4.41348158285829  1.50876552765277  1.08755314921492
 6 -2.90252643344334  1.18155097439744  3.19190450505051
 6 -1.93067879757976 -0.64503049224922  0.11477528782878
 6 -0.43445915511551 -0.57663091109111  0.52621600390039
 6  0.58291021422142 -0.78730535243524 -0.57836762686269
 8  0.28364858165817 -1.23039681738174 -1.72512990609061
 8  1.84106270467047 -0.62309224762476 -0.18431381898190
 7 -7.02626026942694  2.64278748864887  0.30878180228023
 6 -6.03419356315632  3.35838960636064  0.74437031313131
 6 -6.41181609000900  4.77628449204921  0.89834809350935
 6 -7.66684146944695  4.86497830303030  0.31910803720372
 6 -8.11460098759876  3.50937787658766  0.02565056365637
 6 -5.47404943884388  5.93033250695070  1.22968312351235
 6 -8.53913392139214  6.02360262986299  0.12938355085509
 6 -8.44035244524452  7.18694784448445  0.65221928122812
 7 -9.07161620272027  0.75600259465947 -0.57426400030003
 6 -9.80469795609561  1.83610693499350 -0.63153596709671
 6 -11.19633358605861  1.53097254175418 -1.03393825352535
 6 -11.21232071927193  0.25496304210421 -1.16961698999900
 6 -9.82567017061706 -0.40647084048405 -0.84805700700070
 6 -12.34377531523152  2.50344558595860 -1.18780823352335
 6 -12.43307710061006 -0.75127125092509 -1.62877220782078
 6 -12.34984689358936 -0.98105829812981 -3.18209886108611
 7 -7.20772373477348 -1.32037687338734 -0.09730240534053
 6 -8.18022234853485 -2.19622816831683 -0.51447302720272
 6 -7.72404444424442 -3.52126267766777 -0.47697799759976
 6 -6.59391718221822 -3.62947592969297 -0.06440852255226
 6 -6.16949068076808 -2.20043799959996  0.16724856025603
 6 -8.67775011451145 -4.71537763616362 -0.78727211031103
 6 -5.40530599349935 -4.42653621702170  0.25386036013601
 8 -5.25863685598560 -5.64280113711371  0.32195814441444
 6 -4.19282378497850 -3.31123857125713  0.47975629722972
 6 -3.49993417021702 -3.64214215691569  1.78671463996400
 8 -3.67002978637864 -3.09961731963196  2.86916027422742
 8 -2.69310466326633 -4.74127274577458  1.54449348684868
 6 -2.08964792179218 -5.32708791469147  2.78837623802380
 6  2.83218953935394 -0.83031132003200 -1.26476999419942
 6  4.14172505770577 -0.48951421932193 -0.55579814261426
 6  5.09837532883288  0.38891541954195 -0.96391926892689
 6  4.98277200280028  1.24453212851285 -2.24424855985599
 6  6.40666694539454  0.46152676867687 -0.19635015941594
 6  7.58315976857686 -0.05002355035504 -0.98032836153615
 6  8.85301301290129 -0.14498631473147 -0.11732783518352
 6  10.10327578817882 -0.47802946614661 -0.83645936593659
 6  10.15094837143714 -1.92743062296230 -1.34851181718172
 6  11.30597526132613 -0.22968785988599  0.08060009750975
 6  12.68705644114412 -0.48320835433543 -0.58931643674367
 6  13.89327059885989  0.03341762746275  0.19351576317632
 6  15.28387437843784 -0.16210529412941 -0.46222187468747
 6  15.65339161016102 -1.60213860216022 -0.66125795209521
 6  16.31766875957596  0.50751726902690  0.48139287398740
 6  17.73135072277228  0.45801953155316 -0.14510103710371
 6  18.73994441304130  1.29356743524352  0.66239949664966
 6  20.14813761816182  1.29742917541754  0.18352505850585
 6  20.40939378517852  2.16490379547955 -1.06489118501850
 6  21.07883295029503  1.77305900580058  1.21410535053505
 1 -4.11726208970897  3.55624887628763  1.64097019281928
 1 -9.96686881018102  3.97314958945895 -0.53237776397640
 1 -10.32684710881088 -2.16270180528053 -1.23118093749375
 1 -2.85836312351235 -1.15800600330033  2.11281777247725
 1 -2.18114158045805  1.72268432953295  1.36706035503550
 1 -1.95261834823482  0.81172027842784  3.61369170657066
 1 -2.99111622072207  2.35060428322832  3.53260128232823
 1 -3.62729553005301  0.50488564286429  3.69381106630663
 1 -1.95150026902690 -1.63414408520852 -0.41700970807081
 1 -2.25178154715472 -0.00910329052905 -0.79295603020302
 1 -0.19025445414541  0.48162775007501  1.07111097409741
 1 -0.48939736003600 -1.32422318891889  1.43040649894990
 1 -5.56833101080108  6.93909142114211  0.53594342564256
 1 -5.93282475377538  6.03793667506751  2.23602561506151
 1 -4.36970181478148  5.73617788578858  1.26236696929693
 1 -9.30952121192119  5.74791817381738 -0.57870922362236
 1 -9.33676273997400  7.94193391439144  0.37082685838584
 1 -7.75158309040904  7.46139297569757  1.40978993929393
 1 -11.82530300330033  3.39567871497150 -1.84014984648465
 1 -13.21136843454345  2.19202794519452 -2.04900062826283
 1 -12.50066109880988  2.69387672177218 -0.20500093959396
 1 -12.22639460436043 -1.68745966876688 -0.88593209410941
 1 -13.53402570167017 -0.47840055055506 -1.26827258165817
 1 -13.11591679087909 -1.69211287338734 -3.51796275437544
 1 -12.27719812551255 -0.04336280758076 -3.73303228162816
 1 -11.31295613501350 -1.83795482268227 -3.33315159335934
 1 -9.07410202880288 -4.83438993979398 -1.62991905490549
 1 -7.94791917711771 -5.59393534683468 -0.72200215531553
 1 -9.49314349334934 -4.85569401780178 -0.04596686538654
 1 -3.51600911941194 -3.41513811941194 -0.43187092519252
 1 -1.61045443304331 -4.52685489888989  3.24428614621462
 1 -2.93568000530053 -5.66096562146215  3.58467950565056
 1 -1.37699822032203 -6.13851463626363  2.53411677277728
 1  2.98720677547755 -1.88814543734373 -1.37238868756876
 1  2.89236567786779 -0.20727264246425 -2.06254731223122
 1  4.26788727542754 -1.20536895069507  0.25231663186319
 1  3.92420773227323  1.49620516321632 -2.69039952565257
 1  5.72389932213221  2.14850527442744 -1.94597203560356
 1  5.75655522402240  0.87989918081808 -3.16146240314031
 1  6.48701688558856  1.34962494309431  0.46627624152415
 1  6.59363723582358 -0.37802513921392  0.66579277477748
 1  7.28395051785179 -1.01280195319532 -1.41156591379138
 1  7.92674523302330  0.51464056705671 -1.79130995389539
 1  8.80491653595359  0.75456495399540  0.55592802090209
 1  8.64988810961096 -0.80488884158416  0.81589771317132
 1  10.26731136293630  0.25443159095910 -1.63109826782678
 1  9.29114872397240 -2.25275355885589 -1.92810119201920
 1  11.07123626422642 -2.27165056435644 -2.15072043014301
 1  10.23248544564457 -2.39927404210421 -0.32134952865287
 1  11.33479512111211  0.66688312171217  0.60251802260226
 1  11.62611020652065 -1.13712501010101  0.81993831393139
 1  13.12382033453345 -1.56634405370537 -0.57036930843084
 1  12.73183901380138 -0.32341740574057 -1.75297963166317
 1  13.83603502380238  1.14056942024202  0.32190701940194
 1  13.93114142474247 -0.42206858575858  1.20115248924892
 1  15.44110451185119  0.22531592859286 -1.61880314911491
 1  15.56196999379938 -2.27267660886089  0.45642750725072
 1  14.90692233663366 -2.08998351835184 -1.53031440494049
 1  16.51422970257026 -1.69186008300830 -1.18112462576258
 1  15.89215248874887  1.38050638433843  0.55917183348335
 1  16.36818089588959 -0.07412369716972  1.41726022072207
 1  18.07364410211021 -0.51104761876188 -0.46706690229023
 1  17.70116742634263  0.94036293039304 -1.08299404300430
 1  18.46134519141914  2.24269553755376  0.89770171697170
 1  18.73693965646565  0.61064590409041  1.60946419191919
 1  20.47732756505651  0.24298529612961  0.03123901610161
 1  20.04952177067707  3.28070884738474 -0.97988017271727
 1  21.54788858965897  2.14521566366637 -1.27692567376738
 1  19.82159055665566  1.90355064526453 -1.96225460986099
 1  20.89253310681068  1.03909955085509  2.05058872767277
 1  22.15161305410541  1.71613208390839  0.95611226482648
 1  21.01666174467447  2.55347146434643  1.74955209190919

