%nproc=4
%Mem=2GB
# td=(NStates=1) CAM-B3LYP/6-31G(d,p) 

TD

0 1
12 -7.18845941894189  0.54532328042804  0.14534222162216
 6 -4.86398101610161 -1.93258443684368  0.52085861856186
 6 -4.77081701060106  2.77053550085008  1.18230459535954
 6 -9.36832156765677  3.11326682218222 -0.49296215591559
 6 -9.60015032873287 -1.73900941194119 -0.72445887498750
 7 -5.11168459305931  0.42199201730173  0.72931334963496
 6 -4.35073477957796 -0.68204802680268  0.78694671787179
 6 -2.94857386278628 -0.44148357405741  1.24478483268327
 6 -3.01438487688769  1.05962863116312  1.73689442014201
 6 -4.39292628752875  1.47582833163316  1.22967999789979
 6 -2.99362444454445  1.23664595269527  3.34602601150115
 6 -1.94933839483948 -0.57552281368137  0.17245120342034
 6 -0.50594801740174 -0.49089343654365  0.58238236753675
 6  0.46169730693069 -0.68871238413841 -0.58219359985999
 8  0.16685792589259 -1.18976438403840 -1.60197652935294
 8  1.77711952245225 -0.22357975437544 -0.19107589648965
 7 -7.01879232713271  2.59755534533453  0.28753744924492
 6 -5.95720499949995  3.28561953775378  0.80951448504850
 6 -6.33490074317432  4.73886817621762  0.72024271147115
 6 -7.63487619461946  4.73216384788479  0.24500289158916
 6 -8.15621989358936  3.44820401570157  0.03090563686369
 6 -5.45249320602060  5.92203466936694  1.12400716121612
 6 -8.36013381098110  5.98230926462646  0.04748173357336
 6 -8.40363425472547  7.10276639523952  0.80821707150715
 7 -9.15445771837184  0.71631449254925 -0.44483851755176
 6 -9.91181744144414  1.78946889999000 -0.67245356945695
 6 -11.25551464806481  1.51761010011001 -1.16462818231823
 6 -11.25498790269027  0.12934829892989 -1.26414512851285
 6 -9.95579125982598 -0.39856183048305 -0.83330834693469
 6 -12.25201402510251  2.45614618561856 -1.47929470427043
 6 -12.38930347664767 -0.65673308340834 -1.74514532303230
 6 -12.39796728512851 -1.05418782998300 -3.26659177777778
 7 -7.32991245954596 -1.40281989558956  0.01514683768377
 6 -8.33152339213921 -2.28231340344034 -0.43689864506451
 6 -7.81465761136114 -3.71486975447545 -0.47938521582158
 6 -6.49083296739674 -3.59053339033903 -0.09831156305631
 6 -6.27159975637564 -2.15806408770877  0.16521932613261
 6 -8.72763023042304 -4.91367420982098 -0.81467994639464
 6 -5.34083855415542 -4.43465734923492  0.16472934553455
 8 -5.20888972687269 -5.60710519391939  0.16478350905090
 6 -4.17427100650065 -3.34215000480048  0.47966783208321
 6 -3.46780741164116 -3.58301352265227  1.80827120002000
 8 -3.76577817841784 -3.08343507970797  2.86022870397040
 8 -2.59892108580858 -4.63828855125513  1.69954853575358
 6 -2.04019460736074 -5.08003223232323  2.99975491099110
 6  2.75566807850785 -0.66861465606561 -1.17758895929593
 6  4.07956004500450 -0.40592876917692 -0.54707485648565
 6  5.07849133353335  0.34637090249025 -1.06754652735274
 6  5.08860728372837  1.30471312061206 -2.19227339263926
 6  6.40954528732873  0.42821467166717 -0.30177666286629
 6  7.63103064096410 -0.30006035293529 -1.10801775227523
 6  9.02597447004701 -0.14208933933393 -0.30259207200720
 6  10.27092771727173 -0.56895396709671 -1.04089506000600
 6  10.21619832003200 -1.98781971807181 -1.40413387838784
 6  11.41309418631863 -0.23528730953095 -0.10034916631663
 6  12.79607451515152 -0.46242029312931 -0.80385040794079
 6  14.02068153655365 -0.12480368316832  0.11239830733073
 6  15.36635276017602 -0.31042477157716 -0.46665490529053
 6  15.69769143804380 -1.73768140194019 -0.76588620632063
 6  16.45070917681768  0.38384274427443  0.39093360056006
 6  17.76854144354435  0.63871526992699 -0.17328314291429
 6  18.72480284978498  1.31129934693469  0.90164059705971
 6  20.15147381658166  1.46143647714771  0.33422818601860
 6  20.41524287808781  2.21473977117712 -0.97003799649965
 6  21.11732266306631  1.94555749204920  1.44576994039404
 1 -4.00961244574457  3.40451597299730  1.70362494939494
 1 -10.10872126482648  4.00840167516752 -0.94334972647265
 1 -10.43312660206021 -2.35830517131713 -0.71981863406341
 1 -2.67815427232723 -1.18197651155116  1.97735842704270
 1 -2.25351895709571  1.79771335393539  1.48287893829383
 1 -1.94589904740474  0.72087254015401  3.88323203670367
 1 -2.81020608060806  2.29872392989299  3.38285045044505
 1 -3.87097053975398  0.78177286128613  3.63896630943094
 1 -1.97735021992199 -1.51264122452245 -0.51664557375738
 1 -2.00323199569957  0.10489774017402 -0.66487652725273
 1 -0.17926144354435  0.33690830473047  1.20431083018302
 1 -0.39125692769277 -1.26451096629663  1.37340129532953
 1 -5.90938971437144  6.77882652675267  0.75012072127213
 1 -5.43890087948795  6.05160852395240  2.35101139823982
 1 -4.43604756075608  5.77727889428943  0.71289446504651
 1 -9.14114616711671  6.10923707180718 -0.78564879307931
 1 -9.05926714261426  7.92316305520552  0.24271389318932
 1 -7.66165563136314  7.36789318881888  1.53329171467147
 1 -12.02246635173517  3.19564989098910 -2.30251325602560
 1 -13.18465813501350  2.08752264346435 -1.67570876237624
 1 -12.39256098719872  3.12625127982798 -0.60038128212821
 1 -12.72355713411341 -1.57268671377138 -0.96025097999800
 1 -13.20506922582258 -0.01155789258926 -1.63096862436244
 1 -13.15996234883488 -1.80893557975798 -3.47620750525053
 1 -12.40383394759476 -0.11360589818982 -3.94835833153315
 1 -11.48398467776778 -1.40911577867787 -3.51251987198720
 1 -8.88341794479448 -5.10038078097810 -2.07657092119212
 1 -8.26075544034403 -5.69622962716272 -0.39376898989899
 1 -9.90335021992199 -4.64378940024002 -0.31619344194419
 1 -3.47254795069507 -3.57493074377438 -0.46611188268827
 1 -1.32025019151915 -4.25847228692869  3.71393430873087
 1 -2.92181178977898 -5.11298291589159  3.64029686858686
 1 -1.45207331883188 -5.96839611281128  2.89194314721472
 1  2.64063336743674 -1.71234307020702 -1.46325029002900
 1  2.57095457305731 -0.07089280968097 -2.28842199439944
 1  4.23060396599660 -1.34415663086309  0.22844606060606
 1  4.17740670417042  0.97175588598860 -2.83478184788479
 1  5.38046345804580  2.39827008590859 -2.19424589278928
 1  6.08327563516352  0.96891799929993 -2.87689642064206
 1  6.62754481738174  1.54734873487349 -0.10759811701170
 1  6.17210132953295  0.00115207780778  0.50988070477048
 1  7.44719210391039 -1.25659489468947 -1.50457178077808
 1  7.74970740664066  0.33614682278228 -2.03799672327233
 1  8.79777182878288  0.77922580758076 -0.06122849064906
 1  8.91633012171217 -0.65910141634163  0.78147601130113
 1  10.48633618501850 -0.15396285858586 -2.09968485798580
 1  9.25956094159416 -2.41540951745175 -2.08499442424242
 1  11.21832438813881 -2.26776356025603 -2.10249449334933
 1  10.03250613661366 -2.62908485048505 -0.48404784448445
 1  11.42786046694670  0.92193442364236  0.14791627912791
 1  11.28978203160316 -1.09239520082008  0.62229285088509
 1  12.83546686558656 -1.58614677587759 -1.08575624322432
 1  12.57886163866386  0.26546723772377 -1.82678603990399
 1  14.14985642234223  0.88946150215022  0.54724206720672
 1  13.99763251635164 -0.83875348004800  0.79683620012001
 1  15.38591187968797  0.28249773477348 -1.56451080908091
 1  15.71551899479948 -2.33270356245625  0.21708025412541
 1  14.80510356105611 -2.14150652625263 -1.29070648574858
 1  16.56069569896990 -2.08179370427043 -1.53188465796580
 1  15.94883008370837  1.32987082078208  0.76809335363536
 1  16.62812725992599 -0.19729890499050  1.42801556275628
 1  18.27483842254225 -0.29980652805280 -0.66351969236924
 1  17.56618368286829  1.26997431633163 -0.90420399619962
 1  18.36152694529453  2.23255741344134  1.03939194449445
 1  18.85378253855386  0.34207838883888  1.64106410671067
 1  20.65591050375037  0.49269541774177  0.15960302430243
 1  19.87080118671867  3.14790835273527 -1.01182477587759
 1  21.66941119321932  2.49558621142114 -0.87216858015802
 1  20.14035794019402  1.81570338113811 -1.89983695269527
 1  20.83704968016802  1.49085719481948  2.35289490669067
 1  22.14502620892089  2.04826605630563  0.96034100040004
 1  20.89020875077508  3.16292637593759  1.55520596109611

