%nproc=4
%Mem=2GB
# td=(NStates=1) CAM-B3LYP/6-31G(d,p) 

TD

0 1
12 -7.15261583458346  0.62329107720772  0.08303599099910
 6 -4.92105672367237 -1.93680485888589  0.61273780648065
 6 -4.87455738463846  2.82897134443444  1.35357172207221
 6 -9.41237597309731  3.02177767326733 -0.35326818651865
 6 -9.58394870857086 -1.75033054405441 -0.85474190329033
 7 -5.12518594319432  0.47915773387339  0.65905632393239
 6 -4.35835554165417 -0.70903072507251  0.81910993419342
 6 -2.95167417281728 -0.40707013271327  1.28993934813481
 6 -3.06031947034703  1.06058872717272  1.63921465216522
 6 -4.35881287618762  1.46397714651465  1.03803083298330
 6 -2.98473355545555  1.24625691379138  3.19688109700970
 6 -1.88716217721772 -0.76641190259026  0.15945990429043
 6 -0.41420884348435 -0.46075042224222  0.52157628692869
 6  0.49897103430343 -0.67714122702270 -0.70357573807381
 8  0.23805504560456 -1.06397180478048 -1.72707903960396
 8  1.72583439393939 -0.40506790319032 -0.24853164206421
 7 -7.08552900080008  2.65144073387339  0.40788948444844
 6 -6.05227450645065  3.40251122692269  0.86163969756976
 6 -6.33623087618762  4.70528481788179  0.85608629582958
 6 -7.66538924592459  4.82812344384438  0.33493188448845
 6 -8.12575684728473  3.43741293659366  0.01819436573657
 6 -5.49541749844984  5.84631709760976  1.20159491999200
 6 -8.46706450405040  6.05724675837584  0.10159714511451
 6 -8.38568245954595  7.15854197279728  0.70201645144514
 7 -9.12880515311531  0.67619048014801 -0.46138017171717
 6 -9.87611387108711  1.79325927902790 -0.65615193929393
 6 -11.19261835843584  1.42589092819282 -1.09937165666567
 6 -11.14097650155015  0.02606797089709 -1.25057377137714
 6 -9.86801248194819 -0.39050102440244 -0.84283930003000
 6 -12.22766158985899  2.40357092809281 -1.48331510631063
 6 -12.36083062936294 -0.74373178327833 -1.79793060156016
 6 -12.15314280268027 -1.21663407460746 -3.24833995259526
 7 -7.32404187248725 -1.35798541214121 -0.17027170417042
 6 -8.30219045884589 -2.32023719581958 -0.55900085528553
 6 -7.82244839043904 -3.60903917141714 -0.50495777307731
 6 -6.50291417551755 -3.52413675067507 -0.05091682358236
 6 -6.23432602900290 -2.15770405170517  0.12206501070107
 6 -8.70721818921892 -4.78140098249825 -0.71796027442744
 6 -5.33914838513851 -4.35155903940394  0.17202007460746
 8 -5.13702254015402 -5.58378286168617  0.18575560626063
 6 -4.20989456885689 -3.25989177897790  0.67350721602160
 6 -3.62407303820382 -3.62222744404440  1.88682905580558
 8 -3.77550915151515 -3.04654139033903  2.92865554665467
 8 -2.70311150485049 -4.73476819921992  1.74156273717372
 6 -2.16589717761776 -5.21730595969597  2.95663059855986
 6  2.74685719741974 -0.64817261186119 -1.32283348374837
 6  4.04179626862686 -0.32214039033903 -0.64540468946895
 6  5.10579406380638  0.35437170257026 -1.14722449514951
 6  4.92361078407841  1.15798844814481 -2.43998816411641
 6  6.37440177297730  0.44180603080308 -0.28363484868487
 6  7.73777131503150 -0.00496084298430 -0.95437238773877
 6  8.93996586918692  0.00048491809181 -0.06913872667267
 6  10.18260888538854 -0.51758883058306 -0.89439040954095
 6  10.06288298849885 -2.07437837393739 -1.23837730273027
 6  11.50215309220922 -0.17520130093009  0.03498436703670
 6  12.75795070277028 -0.42915696679668 -0.62007203010301
 6  13.94266373477348 -0.10236143894389  0.10992806030603
 6  15.33880000490049 -0.27908163726373 -0.51901014081408
 6  15.67165883478348 -1.68096573037304 -1.02018163586359
 6  16.51806591249125  0.32412677267727  0.39048355555556
 6  17.98927351675167  0.29971136953695 -0.07692350695070
 6  18.78109847934794  1.26659487648765  0.77134756775678
 6  20.29929859905991  1.42499283278328  0.27337210041004
 6  20.38149950375038  2.07852614981498 -1.02647364006401
 6  21.10652158295830  2.09181211751175  1.41623698709871
 1 -3.97327881238124  3.59701522292229  1.63416800370037
 1 -10.13660405310531  4.00869170417042 -0.38722411391139
 1 -10.32363565296530 -2.39651899269927 -1.13310996319632
 1 -2.67171362826283 -1.02789110301030  2.16439713091309
 1 -2.24466807200720  1.71657524012401  1.39916056645665
 1 -2.01889634713471  1.19085953885389  3.31339505300530
 1 -3.19414447444744  2.24154821232123  3.74440660606061
 1 -3.63653709640964  0.32979766376638  3.61761417421742
 1 -2.11439392429243 -1.80813077347735 -0.48508241744174
 1 -2.31681335383538  0.11642889328933 -0.65396543614361
 1 -0.55923944134413  0.50734534843484  1.03277367646765
 1  0.06282848084809 -1.39301381658166  1.07704165936594
 1 -5.76889566496650  6.94407305140514  0.64806051525152
 1 -5.32743973337334  6.00520388348835  2.21524782188219
 1 -4.38825278127813  5.72980414681468  0.77296047164716
 1 -9.10736278877888  6.03556970507051 -0.54677490569057
 1 -9.07500871677168  8.08436917581758  0.34518414021402
 1 -7.70430989678968  7.23750014951495  1.47124551005101
 1 -12.00236434153415  2.83635396139614 -2.55189819451945
 1 -13.21225089428943  2.05457934913491 -1.54653584508451
 1 -12.37409914101410  3.24450310501050 -0.78705994999500
 1 -12.43936871527153 -1.64008345344534 -1.21183613851385
 1 -13.28088680758076 -0.13163990079008 -1.62919844734473
 1 -13.08920527312731 -1.46900158635864 -3.65887577207721
 1 -12.05766933113311 -0.43490802840284 -3.89307280298030
 1 -11.22296857615762 -1.88168303540354 -3.31962058205821
 1 -9.17999760276028 -4.48692943584359 -1.63552681678168
 1 -7.90906027082708 -5.67440744494449 -1.12161177417742
 1 -9.45023490839084 -5.26545156645665  0.06464464186419
 1 -3.46040673657366 -3.33843709440944 -0.01606687818782
 1 -1.76386455295530 -4.28010445014502  3.45826874217422
 1 -2.97241685028503 -5.65937755535554  3.76292913181318
 1 -1.25838394989499 -5.85360463366337  2.60249420232023
 1  2.68273757785779 -1.74492632853285 -1.71267523252325
 1  2.43758123572357 -0.05208092849285 -2.21254440664066
 1  4.19809071467147 -0.90307252245224  0.27020023602360
 1  3.85180414391439  1.44698340874087 -2.96658502820282
 1  5.50502591429143  2.15680593949395 -2.28181464966497
 1  5.64711201880188  0.76832794029403 -3.36484521552155
 1  6.48867092999300  1.58948294829483  0.16167881068107
 1  6.08343246264627 -0.28316635403540  0.65434515121512
 1  7.50015740044004 -0.98421765696570 -1.40896221982198
 1  7.93161559745975  0.68503171127113 -1.61426435003500
 1  9.16975902750275  1.17125501050105  0.22541017321732
 1  8.96384487318732 -0.50991649784979  0.87972583628363
 1  9.93609116051605  0.16351888958896 -1.75650053955396
 1  9.25142012751275 -2.21136911341134 -1.98311423622362
 1  11.11791434713471 -2.46852363626363 -1.65883012691269
 1  9.73021590759076 -2.65010695269527 -0.30799023872387
 1  11.39345702660266  1.00529275947595  0.37216870437044
 1  11.33964701810181 -0.84088004930493  0.93125374697470
 1  13.01623494239424 -1.47808596979698 -0.92730039763976
 1  12.83417717021702  0.05087577857786 -1.71188454975498
 1  13.78963039973997  1.00088264426443  0.40563790679068
 1  14.13393614671467 -0.58443804850485  1.11791830833083
 1  15.27474076257626  0.25986547154715 -1.40281463946395
 1  15.53764120702070 -2.43288358045805 -0.30721217511751
 1  15.03040609130913 -1.80607298289829 -1.93321073617362
 1  16.72059168856886 -1.88220374527453 -1.45055652515251
 1  16.39073427412741  1.29559739343934  0.46554309860986
 1  16.33757820502050 -0.15568474357436  1.42190495169517
 1  18.59683062176218 -0.69264581198120 -0.24176751715172
 1  17.62374943944394  0.74880219911991 -1.23661723752375
 1  18.53824461706171  2.27905206290629  1.01058906420642
 1  18.97860502080208  0.72865704670467  1.63237323762376
 1  20.67363227592760  0.41164731293129  0.37224428842884
 1  19.69590369696969  2.91546510841084 -0.88880247364737
 1  21.48787303940394  2.21851850465047 -1.31670303360336
 1  19.78398230263026  1.63197500830083 -1.71610857985799
 1  20.88129410461046  1.30283839293929  2.13151276847685
 1  22.23357506380638  2.06315754545454  1.33721868816882
 1  20.67514724462447  3.09479956325633  1.59893033353335

