%nproc=4
%Mem=2GB
# td=(NStates=1) CAM-B3LYP/6-31G(d,p) 

TD

0 1
12 -7.07548812181218  0.56028477657766  0.11336902430243
 6 -4.75822044004400 -1.95449662806281  0.46320285298530
 6 -4.79985991489149  2.90566901420142  1.18274463936394
 6 -9.41776651215121  3.13665916141614 -0.40737359705971
 6 -9.49439975367537 -1.72955846684668 -0.81931836093609
 7 -5.09304272887289  0.42562238033803  0.80354077237724
 6 -4.24055376147615 -0.72122194419442  0.89954797799780
 6 -2.85341434683468 -0.38338776447645  1.28916927112711
 6 -2.94604804320432  1.02598526682668  1.74805553625363
 6 -4.36807380228023  1.48351910071007  1.26046307620762
 6 -2.88679376147615  1.24744703280328  3.25596700560056
 6 -1.87383084408441 -0.65496075747575  0.13675763406341
 6 -0.48745616821682 -0.54076842404240  0.50071420072007
 6  0.44915605280528 -0.60315382828283 -0.65295067556756
 8  0.18454969506951 -0.98601400900090 -1.77667399909991
 8  1.70843265376538 -0.38754615101510 -0.25741253015302
 7 -7.16329677757776  2.64053964376438  0.37665636113611
 6 -6.05154443344335  3.35316629242924  0.68087162076208
 6 -6.41084833793379  4.72580687008701  0.70417110431043
 6 -7.69293200020002  4.84627525902590  0.24238262956296
 6 -8.19016328792879  3.52512170747075  0.04675722202220
 6 -5.46669462616262  5.91730419631963  1.05782054255426
 6 -8.47300509810981  6.03971500520052  0.02924991039104
 6 -8.34208810011001  7.27610372897290  0.59708595839584
 7 -9.12454472707271  0.69614247534753 -0.61414544824482
 6 -9.85677193689369  1.75691564466447 -0.71982830693069
 6 -11.27799689628963  1.40866920602060 -1.05178689818982
 6 -11.23400580448045  0.03763912801280 -1.12988170217022
 6 -9.80129581028103 -0.36222819711971 -0.87867288338834
 6 -12.41980080378038  2.37828839983998 -1.35791256605661
 6 -12.38507305360536 -0.77731514161416 -1.62726353485349
 6 -12.40937842624263 -1.11833424462446 -3.19509462806281
 7 -7.15497496579658 -1.37652726632663 -0.18295297229723
 6 -8.16147638743874 -2.23197836993699 -0.48772372757276
 6 -7.76046219181918 -3.59562783028303 -0.45350262756276
 6 -6.38451233533353 -3.56526086308631 -0.17369910181018
 6 -6.12450504690469 -2.22039032033203  0.09522232643264
 6 -8.44849231663166 -4.85944878727873 -1.00524900330033
 6 -5.28254272457246 -4.39850373387339  0.15493836643664
 8 -5.14446328422842 -5.58391287468747  0.07793482418242
 6 -4.11049462886289 -3.31503729352935  0.56533639893989
 6 -3.58718934983498 -3.60329555085509  1.88630900380038
 8 -3.92290389098910 -3.06910364656466  2.95978865996600
 8 -2.79105029872987 -4.79365408780878  1.82876145704570
 6 -2.29615020292029 -5.29349357845785  3.12048698419842
 6  2.80927343904390 -0.69869766436644 -1.25152635303530
 6  4.14164625362536 -0.44224240054005 -0.65901605060506
 6  5.04915840024002  0.45995226062606 -0.92735250795080
 6  5.01943036603660  1.26679932923292 -2.21514567986799
 6  6.36027035983598  0.55281713191319 -0.19756624182418
 6  7.59566710461046 -0.12687303420342 -0.90649760026003
 6  8.87454932753275 -0.11828695909591 -0.05002681548155
 6  10.11337196169617 -0.56019309100910 -0.91022199269927
 6  10.05368206840684 -1.97315825192519 -1.26666013101310
 6  11.41266414331433 -0.25085886668667 -0.03037216861686
 6  12.72860776847685 -0.59751380248025 -0.75223524642464
 6  13.91837130553055 -0.07943914671467  0.14880194769477
 6  15.35204132903290 -0.10602433153315 -0.49349758955896
 6  15.61219288818882 -1.57993562736274 -0.91418103580358
 6  16.35967007290729  0.40669502950295  0.49190369756976
 6  17.67829241864186  0.63923532193219 -0.20697651225123
 6  18.73892426192619  1.29611782878288  0.79452988598860
 6  20.18781745094509  1.23103343684368  0.17431219441944
 6  20.39983133693369  2.30054835203520 -1.02802379507951
 6  21.24064499529953  1.59273220952095  1.28886424982498
 1 -4.24747623212321  3.47655317671767  1.46028061496150
 1 -9.88532892559256  4.17180801580158 -0.69854524602460
 1 -10.22512580198020 -2.60855019581958 -1.04811146334633
 1 -2.70034649154915 -1.14001231513151  2.16393708490849
 1 -2.05855946114611  1.74467805040504  1.50661131153115
 1 -1.90278473597360  0.93565401830183  3.47065077857786
 1 -2.94190925092509  2.31800585808581  3.46843900930093
 1 -3.70809425212521  0.78401308530853  3.74997741054105
 1 -2.13277576247625 -1.62239219961996 -0.32427633683368
 1 -1.89790146264626  0.07369461986199 -0.67735777537754
 1 -0.14665818321832  0.47221183508351  1.05281568066807
 1 -0.16146394839484 -1.13454796999700  1.44567852305231
 1 -5.84017279267927  6.89412805690569  0.69089479867987
 1 -5.62398938833883  5.89271263436344  2.21930822792279
 1 -4.48373232923292  5.59026019241924  1.20886406200620
 1 -9.25737779027903  5.89953610171017 -0.66075630383038
 1 -8.92922413831383  8.10403114201420  0.09253887568757
 1 -7.67106657245725  7.37266366586659  1.51526991249125
 1 -12.15145925102510  2.83478380438044 -2.24222722742274
 1 -13.36943661286129  1.77586147734773 -1.21408259975998
 1 -12.32879461056106  3.12048070277028 -0.49896114011401
 1 -12.35612039043904 -1.68408785388539 -0.97305226012601
 1 -13.34585330423042 -0.44640137693769 -1.42162769026903
 1 -13.12869922252225 -2.13467815401540 -3.17606749124913
 1 -12.71645520972097 -0.24589912751275 -3.82722621832183
 1 -11.40723700300030 -1.53939880698070 -3.47458607860786
 1 -8.36588619161916 -5.10200094299430 -2.18653191729173
 1 -7.59989935473547 -5.59136914111411 -0.57520713371337
 1 -9.59063894879488 -4.82646766806681 -0.65668749134914
 1 -3.38982967886789 -3.42381563226323 -0.12348762026203
 1 -1.68432659915992 -4.65155159485949  3.63505642094209
 1 -2.90942055065507 -6.00801241884188  3.67994083298330
 1 -1.49151726322632 -5.99767904110411  2.59392334523452
 1  2.68351765586559 -1.83843567946795 -1.56848081308131
 1  2.75656313391339 -0.02899862026203 -2.12462561476148
 1  4.24388529412941 -1.09626184138414  0.29530274627463
 1  4.04569353285329  1.34161287168717 -2.66686505620562
 1  5.48315372707271  2.27706796569657 -1.95104157235724
 1  5.76468377597760  0.80749185668567 -2.99909864086409
 1  6.70431249414941  1.52159615961596  0.09803244604460
 1  6.19247336673667 -0.05596363376338  0.56832654935494
 1  7.33768115281528 -1.00387962316232 -1.30753207680768
 1  7.86106854275427  0.55651885998600 -1.67556047964796
 1  9.14406645824582  0.89288717371737  0.27359499169917
 1  8.76319480818082 -0.70847635383538  0.83661152485249
 1  10.31063861526153 -0.15736319861986 -1.83216810631063
 1  9.17143212871287 -2.29825780228023 -1.90806673147315
 1  10.94401695739574 -2.33729051295130 -1.75496974087409
 1  9.88036092209221 -2.89525146714671 -0.50715015471547
 1  11.43861154205421  0.81650388058806  0.26596808430843
 1  11.28985203860386 -0.84943090439044  0.95834645624562
 1  12.98042136103610 -1.59357751895190 -0.96641430903090
 1  12.69725347784778 -0.02687199619962 -1.82379574087409
 1  13.61472290899090  0.98623117911791  0.43731107410741
 1  14.00397315041504 -0.84386399109911  1.13621013751375
 1  15.33358664716472  0.46338582358236 -1.51418577657766
 1  15.68704614751475 -2.40611090319032 -0.09342079597960
 1  14.72397544824482 -1.96110848644864 -1.57042445754576
 1  16.63964359375938 -1.62161768666867 -1.44882635213521
 1  15.88742394309431  1.40910874457446  0.90515706000600
 1  16.39086353355335 -0.32445162026203  1.37346010721072
 1  18.08282922162216 -0.28183473087309 -0.51178451885189
 1  17.39499656415641  1.30397771667167 -1.06833040884088
 1  18.41616240884088  2.52865702340234  0.94025203050305
 1  18.71184834513451  0.82800698169817  1.73668366866687
 1  20.39024393709371  0.07734388258826 -0.33103603960396
 1  20.28507261386138  3.32483604550455 -0.47118071147115
 1  21.35617987008701  2.02420907370737 -1.50087145044504
 1  19.75556946134614  1.98609041984198 -1.75791276027603
 1  21.29338531373137  1.02283039213921  2.32998261546155
 1  22.16263797009701  1.61507273697370  0.92290725702570
 1  21.08591832173218  2.61416149944994  1.48313875437544

