%nproc=4
%Mem=3GB
# td=(NStates=1) iop(3/107=0140000000,3/108=0140000000) CAM-B3LYP/6-31G(d,p) 

TD

0 1
12 -7.05585027672767  0.62306068956896 -0.00214384438444
 6 -4.86506532303230 -1.98600583118312  0.44790019241924
 6 -4.73274930553055  2.79505822372237  1.08301840704070
 6 -9.40738750325032  3.25186273927393 -0.41758423372337
 6 -9.53554965296530 -1.68453021872187 -0.83639044394439
 7 -5.19258628982898  0.37538362896290  0.77335515951595
 6 -4.43664591189119 -0.70541168436844  0.72120001470147
 6 -2.94357057765777 -0.49908830683068  1.14214988408841
 6 -3.01706493339334  0.90647934953495  1.70961724102410
 6 -4.39831006570657  1.44207885898590  1.13273766766677
 6 -2.96973315411541  1.04799761906191  3.28093340794079
 6 -1.94655038473847 -0.67388337753775  0.10863467376738
 6 -0.44333004220422 -0.51666491449145  0.51930531283128
 6  0.51557348054805 -0.76587320922092 -0.55895568566857
 8  0.25623584038404 -1.09558333603360 -1.74415180828083
 8  1.76794539293929 -0.52510244864486 -0.18149353695370
 7 -7.06138378177818  2.65963917381738  0.23632455655566
 6 -5.97688783258326  3.27495126252625  0.71324720082008
 6 -6.36099100750075  4.75310217381738  0.86696495519552
 6 -7.66669145444544  4.88903070827083  0.45412153855386
 6 -8.05561508900890  3.49705664446445 -0.03698569997000
 6 -5.42849488338834  5.83306277997800  1.31684183938394
 6 -8.40955096309631  6.12428269786979  0.07973858635864
 6 -8.16438484848485  7.30188933863386  0.60778483778378
 7 -9.07474651575158  0.83983097749775 -0.49146572047205
 6 -9.80438792509251  1.97070039433943 -0.70967378087809
 6 -11.16320027272727  1.59064850935093 -1.14887974767477
 6 -11.27188667586759  0.21998954475448 -1.23319334763476
 6 -9.90765836943694 -0.24542473587359 -0.85819802110211
 6 -12.18422936063607  2.66622186358636 -1.29903935663566
 6 -12.41565535843584 -0.69189531333133 -1.63225255585559
 6 -12.38363027192719 -1.15630582288229 -3.04930558175818
 7 -7.18767172957296 -1.37379221492149 -0.26732940804080
 6 -8.28740306660666 -2.14719326482648 -0.55818739863986
 6 -7.92624466426643 -3.54762531393139 -0.60747104690469
 6 -6.55424321482148 -3.48805178727873 -0.14217629932993
 6 -6.20215394709471 -2.17260521632163  0.08996083148315
 6 -8.75682802230223 -4.74811090949095 -0.86642002510251
 6 -5.42240770367037 -4.41035459885989  0.23146812091209
 8 -5.30750174247425 -5.60063692069207  0.23162911151115
 6 -4.24990949354935 -3.37147459485949  0.55612393399340
 6 -3.71273545034503 -3.72968091079108  1.89074504300430
 8 -3.97770055345535 -3.28723608150815  3.01551490969097
 8 -2.71936728952895 -4.66863548204820  1.76009504700470
 6 -2.28119707670767 -5.20622582848285  3.00200760116012
 6  2.79438575897590 -0.84263255215522 -1.17154067126713
 6  4.12376326152615 -0.50617588548855 -0.49974253705371
 6  5.17485297659766  0.21396792479248 -0.97514039103910
 6  5.08817254285429  0.88699637493749 -2.26730086508651
 6  6.38703498219822  0.25727634363436 -0.17424794919492
 6  7.62820427302730 -0.28032658065807 -0.95550587928793
 6  9.00948866046605 -0.28714053015302 -0.13792989538954
 6  10.20624608520852 -0.64093575677568 -0.81924764476448
 6  10.13910718731873 -2.03798167806781 -1.45617258325833
 6  11.50330499429943 -0.40716560766077  0.01317335483548
 6  12.85772350785079 -0.49288932243224 -0.77519502460246
 6  14.02020329212921 -0.14530024432443  0.22713912551255
 6  15.38586457745775 -0.15864494809481 -0.39981563406341
 6  15.76362263326333 -1.44970335863586 -0.93057488378838
 6  16.45859285198520  0.41099761706171  0.51940667536754
 6  17.81645923362336  0.56220995059506 -0.19988651565156
 6  18.74742516111611  1.40907898639864  0.69020227692769
 6  20.13540634503450  1.53498293079308  0.18699540554055
 6  20.27556040184018  2.39495680078008 -1.06219091499150
 6  20.94934000100010  2.20557225712571  1.33974791479148
 1 -4.00890125362536  3.43271652305231  1.70934703050305
 1 -10.18553067636764  4.09468174267427 -0.63262778897890
 1 -10.60083450755076 -2.26498203330333 -0.82268008740874
 1 -2.66775406260626 -1.12419262196220  2.07523401410141
 1 -2.09980344664467  1.56424848594860  1.50719436843684
 1 -1.82104519091909  0.75396450285028  3.54476481388139
 1 -3.17648475757576  2.17408663146315  3.69483750595059
 1 -3.68035083558356  0.28967412171217  3.78787047224722
 1 -1.93516863586359 -1.62798346914691 -0.57595560266027
 1 -2.03451982098210  0.05016263606361 -0.71213794839484
 1 -0.28012344104410  0.51568115541554  0.85641950495049
 1 -0.29282770307031 -1.18517928452845  1.41551500980098
 1 -5.40652483018302  6.74274178617862  0.66422625392539
 1 -5.58955042634263  5.97546042744275  2.39445145764576
 1 -4.39224406900690  5.45707997599760  1.47160789338934
 1 -9.14362462226222  5.85659904190419 -0.62605395809581
 1 -8.61455051875187  8.22157187818782  0.21909168486849
 1 -7.36895482758276  7.23773060946095  1.22354131443144
 1 -12.05549602260226  3.05697484458446 -2.35958178967897
 1 -13.04873217091709  2.25930467286729 -1.49763549174917
 1 -12.24946597929793  3.45734306840684 -0.50990142964296
 1 -12.33518548344834 -1.68791971477148 -0.93452695359536
 1 -13.61594389348935 -0.20251296179618 -1.37157291169117
 1 -13.10456565576558 -1.98933259535954 -3.40170112821282
 1 -12.57308771447145 -0.26551502280228 -3.84410338873887
 1 -11.23616845624562 -1.66484751195120 -3.23905218341834
 1 -9.38727334593459 -4.55268176897690 -1.84584064706471
 1 -8.33784817001700 -5.46025197849785 -1.05392534763476
 1 -9.28238241724173 -4.83189163756376  0.05916364766477
 1 -3.51278879737974 -3.63040964656466 -0.10970870897090
 1 -1.66814020162016 -4.60723293669367  3.41771348894889
 1 -3.11755819311931 -5.52154167906791  3.73662470017002
 1 -1.67901842234223 -6.08659944474447  2.69411277237724
 1  2.77907596239624 -1.70316693949395 -1.46423787248725
 1  2.69243568486849 -0.31276319151915 -2.27838889638964
 1  4.31436192289229 -0.62750116391639  0.60438183838384
 1  3.90085539703970  0.95448099079908 -2.86118660436044
 1  5.50614754695470  1.68922934683468 -2.14287172557256
 1  5.62246181468147  0.42020321122112 -3.22389864676468
 1  6.83800198409841  1.38851883248325 -0.01013139923992
 1  6.33001087318732 -0.29037637433743  0.69212540804080
 1  7.59906202900290 -1.44787546054605 -1.25397015421542
 1  7.68545110361036  0.44160326332633 -1.85387621052105
 1  9.03126917121712  0.75819531703170  0.27931035913591
 1  8.71459458025803 -0.85842419511951  0.73867999139914
 1  10.28815344714472 -0.05131898409841 -1.74726988498850
 1  9.14307391649165 -2.30902918641864 -2.09708809070907
 1  10.99164830543054 -2.19813321262126 -2.20528588668867
 1  10.11092328942894 -2.68859297399740 -0.60591798549855
 1  11.73928557015702  0.46937337073707  0.56063383418342
 1  11.68282587808781 -1.06181747934793  1.06500282038204
 1  13.05257320982098 -1.34219163846385 -1.31191346284628
 1  12.99904573447345  0.24302923892389 -1.61761609530953
 1  13.82713413371337  0.91136649995000  0.85045987468747
 1  14.07164547514751 -0.92771915081508  1.22138451245125
 1  15.33510391179118  0.44717811481148 -1.28437970677068
 1  15.85615941274127 -2.18361770297030 -0.28871700720072
 1  14.97951959635964 -1.93550807080708 -1.48692006550655
 1  16.76888516811681 -1.40553145014501 -1.54645115841584
 1  16.31380465396539  1.38942727642764  0.73256917321732
 1  16.64213829162916 -0.25512179697970  1.29994848954895
 1  18.12677941564156 -0.35810232423242 -0.24300449604961
 1  17.63184049364936  0.97790668476848 -1.19869561316132
 1  18.45096415331533  2.47201846984698  0.89079102590259
 1  18.68898486098610  1.09431427092709  1.76352959845985
 1  20.60178001030103  0.53669466706671  0.05308120032003
 1  19.90586740524052  3.37634841134113 -0.74362654735474
 1  21.35775957675768  2.66277741984198 -1.35528350955096
 1  19.67413581118112  2.00080037023702 -2.01713009740974
 1  21.24810866436644  1.48294393529353  2.05176884568457
 1  21.94540243304330  2.48964943564356  1.09596625022502
 1  20.52557263576358  3.11751786898690  1.75347248394840

