%nproc=4
%Mem=2GB
# td=(NStates=1) CAM-B3LYP/6-31G(d,p) 

TD

0 1
<<<<<<< HEAD
12 -7.12175274827483  0.59282803090309  0.14016170357036
 6 -4.89789440744074 -1.97564874327433  0.51654818751875
 6 -4.76190611951195  2.82197064436444  1.20659702460246
 6 -9.34968970447045  3.04400989648965 -0.53785664536454
 6 -9.50584089778978 -1.81545705670567 -0.94943137223722
 7 -5.11067449204921  0.40672049014902  0.95607602590259
 6 -4.37702740884088 -0.72763258525853  0.88020604380438
 6 -2.96219522492249 -0.38901832753275  1.25920627482748
 6 -3.02539597799780  1.02907557585759  1.73784451515151
 6 -4.35703269816982  1.48091884068407  1.22155918581858
 6 -2.87674275637564  1.11514380248025  3.28184959385939
 6 -2.03701716271627 -0.59839510091009  0.04712867116712
 6 -0.58664608720872 -0.43454780198020  0.34884901420142
 6  0.48601973917392 -0.67147065996600 -0.77830321082108
 8  0.19570081018102 -0.87472287988799 -1.88278461016102
 8  1.82058386888689 -0.49251664806481 -0.25331212011201
 7 -7.08019846774677  2.64700028982898  0.32416111161116
 6 -6.01722100110011  3.39560053585359  0.81001453505351
 6 -6.27920517361736  4.73683797319732  0.78391907910791
 6 -7.63569627662766  4.89223985548555  0.34609300060006
 6 -8.07851212281228  3.48487768306831 -0.05386283998400
 6 -5.43342129882988  5.92851531743174  1.20748550905091
 6 -8.52418021562156  6.01491252495250 -0.00452346694669
 6 -8.55034892619262  7.17610372897290  0.69782603240324
 7 -9.11744401700170  0.60690355145515 -0.60270430413041
 6 -9.83584984468447  1.78547850095009 -0.68139446354635
 6 -11.25107420402040  1.50032837193719 -1.11201292079208
 6 -11.23022542644264  0.12851821592159 -1.25232394639464
 6 -9.99304498519852 -0.39956193049305 -0.82741775787579
 6 -12.25287411111111  2.50060063106311 -1.41581835663566
 6 -12.43333788008801 -0.75220263036304 -1.70367117561756
 6 -12.34535202360236 -1.14625703690369 -3.14448956755676
 7 -7.32480194849485 -1.42146175977598 -0.08505318231823
 6 -8.31441168096810 -2.32364753685369 -0.40171512671267
 6 -7.82596874247425 -3.66079434693469 -0.37155443274327
 6 -6.42037592169217 -3.57469180618062 -0.05322705460546
 6 -6.20858345474547 -2.22694097539754  0.13719652385239
 6 -8.56906437383738 -4.94809765216522 -0.87881636003600
 6 -5.34845931623162 -4.34839872337234  0.33438631123112
 8 -5.08211704960496 -5.54572905630563  0.42359939063906
 6 -4.16141972137214 -3.31566735653565  0.51635150045005
 6 -3.44278490939094 -3.66555177647765  1.87322769566957
 8 -3.62759436003600 -3.12748948514851  2.98711139223922
 8 -2.65610680438044 -4.61694641704170  1.61731031193119
 6 -1.92765335323532 -5.10011424052405  2.81703663916392
 6  2.82528504020402 -0.64828262286229 -1.26616781718172
 6  4.14671676067607 -0.29969814611461 -0.62635278427843
 6  5.19613309770977  0.47005327072707 -1.02728250095009
 6  5.09447787078708  1.15047769706971 -2.30844500980098
 6  6.47516184898490  0.53233508370837 -0.23158964416442
 6  7.61226876477648 -0.05695604250425 -0.95511246174617
 6  8.85451732433243 -0.01442657305731 -0.20258207100710
 6  10.10962158665867 -0.36456352805281 -0.88807977847785
 6  10.02504920512051 -1.86964790089009 -1.54799826482648
 6  11.40696357325733 -0.24563834463446 -0.02998212961296
 6  12.70988589628963 -0.44201825292529 -0.68567859075908
 6  13.88596806520652 -0.11777298009801  0.18768583608361
 6  15.33298942384238 -0.33753748284828 -0.32245048484848
 6  15.69910157905790 -1.75081271507151 -0.77112673037304
 6  16.32673677957796  0.33905826582658  0.59652415961596
 6  17.76719130853085  0.34670606900690 -0.05734154875488
 6  18.66463683318332  1.18948716571657  0.78615904890489
 6  20.10491916111611  1.31474180768077  0.15017978117812
 6  20.28628998279828  2.10036833403340 -1.06259725242524
 6  21.08775970677068  1.82873580988099  1.36491185458546
 1 -3.94090557505751  3.46327184858486  1.48818340524052
 1 -10.08332872557256  3.83711454645465 -0.68781417291729
 1 -10.24241753115312 -2.56141548234823 -1.32431908410841
 1 -2.67224368126813 -0.94711302520252  2.13083377457746
 1 -2.25353895909591  1.76646022862286  1.40397104750475
 1 -1.76307076457646  0.77261771467147  3.40917463096310
 1 -3.00135519551955  2.08464252175218  3.65790795619562
 1 -3.60220366306631  0.51369605360536  3.75143755655566
 1 -2.06324880978098 -1.51140110051005 -0.56931084028403
 1 -2.19787145964596  0.16296354675468 -0.70265030463046
 1 -0.11823534093409  0.54903951785179  0.90433083218322
 1 -0.49555735773577 -1.09030354555456  1.32591654685469
 1 -5.67776655205520  6.78421706580658  0.67925363456346
 1 -5.68690567996800  6.12869623272327  2.30443674077408
 1 -4.33266722272227  5.63881504790479  0.94643781938194
 1 -9.18835088758876  5.80490663876388 -0.83035326352635
 1 -9.06850806670667  8.21161190009001  0.27840746254626
 1 -7.95897536333633  7.15603200270027  1.48322670817082
 1 -12.02162626772677  3.50473079907991 -2.13306631133113
 1 -13.10007967716772  1.85179907110711 -1.86892808430843
 1 -12.66742847394740  2.99168782348235 -0.35618686268627
 1 -12.38724350275027 -1.64336378147815 -0.81304625952595
 1 -13.44628334723472 -0.05561229802980 -1.59529505700570
 1 -13.08356470907091 -1.85442012821282 -3.34212409690969
 1 -12.46972053625363 -0.31980651825183 -3.87606110181018
 1 -11.43296957625763 -1.60717558465847 -3.70106872687269
 1 -8.94373397639764 -4.93822456535654 -1.88849211331133
 1 -7.93621298609861 -5.92700270447045 -0.62109172217222
 1 -9.55083496839684 -4.94493951525153 -0.38600042264226
 1 -3.44964566046605 -3.20676392709271 -0.27084235573557
 1 -1.19018718521852 -4.43730016971697  3.12507542284228
 1 -2.87429703830383 -5.24663628122812  3.66268910781078
 1 -1.42119023052305 -6.13125239843984  2.63589754265427
 1  2.89506881098110 -1.80733256915692 -1.52020598559856
 1  2.40671814941494 -0.21962768316832 -2.29842299449945
 1  4.14364527012701 -1.00766298149815  0.16369958595860
 1  4.07405636913691  1.46371508190819 -2.70620899059906
 1  5.64414982668267  2.15822608150815 -2.08045451365137
 1  5.56110341794179  0.67783889138914 -3.09125785678568
 1  6.77637970087009  1.72945694569457 -0.10856821402140
 1  6.27269138853885  0.08073003560356  0.83511322802280
 1  7.33453083778378 -1.16429566476648 -1.25253657725773
 1  7.82604504040404  0.55422863096310 -1.89360228382838
 1  9.03718577017702  1.09416730173017  0.20574820702070
 1  8.84640312901290 -0.55951145734573  0.82220008370837
 1  10.45426297769777  0.35440797849785 -1.84042893239324
 1  9.42983796929693 -2.20651862836284 -2.32494841964196
 1  11.01408396409641 -2.13617040094009 -1.83412765666567
 1  9.79135202120212 -2.46082802480248 -0.67718715841584
 1  11.40647832873287  0.87584981518152  0.38487997549755
 1  11.26693974737474 -0.99272523382338  0.74570519211921
 1  12.71963528242824 -1.41313947514752 -1.04927259485949
 1  12.84196794929493  0.26876756775678 -1.52176553785379
 1  13.85217665436544  0.97045960196020  0.41241858485849
 1  13.84768752185219 -0.51888149284928  1.22597911441144
 1  15.43363665216522  0.19737922292229 -1.24534889288929
 1  15.87833527642764 -2.30071036313631  0.12704125022502
 1  14.71710476117612 -2.29297167276728 -1.31255867096710
 1  16.63427305670567 -1.92836836173617 -1.49226069556956
 1  15.98846404710471  1.39817765146515  0.83693023732373
 1  16.58746319351935 -0.09161833693369  1.64254701590159
 1  18.35974691339134 -0.42571911931193 -0.29178251865187
 1  17.43037010151015  0.96790410931093 -1.01411498729873
 1  18.31478227082708  2.34993915161516  0.94123212851285
 1  18.66958411871187  0.58522270327033  1.69536953725373
 1  20.61963687638764  0.27015316351635 -0.16797973397340
 1  19.97608171477147  3.20807436933693 -0.95440903430343
 1  21.26826107820782  2.07302395519552 -1.49087045034503
 1  19.76192009640964  1.81180299109911 -1.80535750475048
 1  21.07704367956796  1.08369647874787  2.29996961416142
 1  22.02291399769977  1.97102833253325  0.90136510281028
 1  20.75899562946295  2.85852593589359  1.77580802130213
=======
12 -7.07732830583058  0.59910865896590 -0.00861317391739
 6 -4.77379199719972 -1.96456763516352  0.51139767246725
 6 -4.82649257815782  2.78723717101710  1.22979934483448
 6 -9.42640737623762  3.00920641614161 -0.28310116981698
 6 -9.49636995069507 -1.73150866186619 -0.93430986008601
 7 -5.09007243184318  0.45923574167417  0.66651707000700
 6 -4.31949165526553 -0.74117393939394  0.85033305650565
 6 -2.96944594999500 -0.31556098179818  1.20952130633063
 6 -3.12767620602060  1.05569823812381  1.64249498019802
 6 -4.32999999489949  1.50447119591959  1.08566559645965
 6 -2.99713479557956  1.22670495859586  3.20804221312131
 6 -1.89818327932793 -0.58144340574057  0.11966592489249
 6 -0.36220364296430 -0.42651699889989  0.50652478177818
 6  0.58571970917092 -0.52294580748075 -0.57178255875588
 8  0.23016425652565 -0.90680608820882 -1.67557388908891
 8  1.73785559605961 -0.19027642404240 -0.19420620952095
 7 -7.12547299519952  2.62859844964496  0.37789648514851
 6 -6.06483576257626  3.39656063186319  0.84219775337534
 6 -6.50123737683768  4.77867215661566  0.89087977517752
 6 -7.69709241624162  4.86565719721972  0.32543093439344
 6 -8.14216848844885  3.46037523282328  0.10277282358236
 6 -5.45473343004300  5.81309377527753  1.03232799329933
 6 -8.55433323092309  5.99746077977798  0.20862784818482
 6 -8.43270716201620  7.14429054765476  0.89443569336934
 7 -9.11895416801680  0.55022788388839 -0.66016004970497
 6 -9.83655991569157  1.75460541364136 -0.69390571467147
 6 -11.15353445004500  1.39245758485849 -1.11601332083208
 6 -11.23019542344234  0.01859722382238 -1.31926064006401
 6 -10.01893757445744 -0.40801277557756 -0.86135115121512
 6 -12.32178100180018  2.37860843184318 -1.41345812061206
 6 -12.39594414071407 -0.83355076517652 -1.74893570207021
 6 -12.35289277767777 -1.11452386358636 -3.23352847144714
 7 -7.12220168846885 -1.42115172877288 -0.11385606260626
 6 -8.23081332113211 -2.25884105620562 -0.48857381258126
 6 -7.80532667826783 -3.65274354185419 -0.50294757205721
 6 -6.44647853195320 -3.63249758675868 -0.09323105500550
 6 -6.12581517791779 -2.24710299159916  0.10262306650665
 6 -8.54166163356336 -4.84501734413441 -0.89837831623162
 6 -5.26587105740574 -4.35066895039504  0.18223109570957
 8 -5.18109694759476 -5.54138862226223  0.15501253195320
 6 -4.13319689908991 -3.25093088288829  0.60837070237024
 6 -3.57813844474447 -3.56203142444244  2.03619399229923
 8 -3.83595519611961 -3.00605734193419  3.03824650575057
 8 -2.66068726242624 -4.59793451585158  1.94792337323732
 6 -2.20293088098810 -5.20485471457146  3.18532346784678
 6  2.80111262296230 -0.42413020762076 -1.29256045644564
 6  4.10345243424342 -0.19407758405841 -0.56997714671467
 6  5.12870635503550  0.44544080948095 -0.99520929362936
 6  5.02590101310131  1.39282193149315 -2.22040620592059
 6  6.41855618841884  0.40595244544454 -0.39751623682368
 6  7.72392993089309 -0.08617896479648 -1.12928987948795
 6  8.92090396299630 -0.22694782518252 -0.31365317811781
 6  10.22148277277728 -0.65007207890789 -1.10913188368837
 6  10.00266696689669 -2.22486342244224 -1.46029949494949
 6  11.42416529342934 -0.47540132093209 -0.14034316571657
 6  12.80254516221622 -0.73821787288729 -0.82005202810281
 6  13.89456892529253 -0.35006620942094  0.22149921742174
 6  15.30112623752375 -0.29418314741474 -0.46586482628263
 6  15.80540220912091 -1.75121275507551 -0.72987260496050
 6  16.32924703060306  0.42253661366137  0.39700420762076
 6  17.77563215261526  0.51004240264026 -0.12158797339734
 6  18.72886325582558  1.33571178817882  0.74988542154215
 6  20.21900056925692  1.50492082558256  0.35199996319632
 6  20.36624797859786  2.13450174737474 -1.03002399509951
 6  21.10651158195820  2.01319425572557  1.49243460686069
 1 -4.09472095659566  3.49594511591159  1.30475506240624
 1 -10.22233262596260  3.71286212121212 -0.32284767626763
 1 -10.42886617601760 -2.30989032983298 -1.22051870407041
 1 -2.76105256215622 -0.85747406130613  2.11688237943794
 1 -2.22531613681368  1.81000458305831  1.26657730813081
 1 -2.09218367586759  0.76116656955696  3.63397711121112
 1 -3.07571263126313  2.36374043154315  3.52427459285929
 1 -3.66050949364937  0.50138482248225  3.86169858265827
 1 -2.13711619651965 -1.64413437383738 -0.23747765696570
 1 -2.29576124862486  0.05436268666867 -0.45105514511451
 1 -0.28617213461346  0.52629724362436  0.95841624072407
 1 -0.01588939093909 -1.08120263546355  1.37264121932193
 1 -5.53996277167717  6.88040668476848  0.55524123332333
 1 -5.10590758015802  6.06449981308131  2.11815811291129
 1 -4.57140109610961  5.40160132653265  0.68582175777578
 1 -9.25090714321432  5.94448059615962 -0.67255748394840
 1 -8.83877509340934  8.11698243714372  0.62794241604160
 1 -7.70701016681668  7.13957035653565  1.77478586408641
 1 -12.10790489558956  2.96204653065307 -2.11893489818982
 1 -13.07638730793079  1.68737262846285 -1.81656284778478
 1 -12.77435916701670  2.88894754945495 -0.48309955395540
 1 -12.48456323472347 -1.76599604470447 -1.09065402030203
 1 -13.34371309020902 -0.43213995079508 -1.50785631313131
 1 -13.17653400600060 -1.74004869106911 -3.39694957945795
 1 -12.69843340754075 -0.26935147274728 -3.94463795949595
 1 -11.42189846914692 -1.51086595369537 -3.71493011301130
 1 -9.14274387738774 -4.75745648854886 -1.90940420452045
 1 -7.85772513731373 -5.82091209540954 -0.90238985198520
 1 -9.32183206810681 -4.95290031133113 -0.03224504710471
 1 -3.19900059595960 -3.17876112681268 -0.17458272977298
 1 -1.80705887238724 -4.38867530723072  3.57970088538854
 1 -2.94932454105411 -5.42862448004801  3.70178301720172
 1 -1.53409152065207 -5.88771804500450  2.72725667856786
 1  2.60258956305631 -1.40866270217022 -1.55261922692269
 1  2.56124360196020  0.11077535713571 -2.10068322052205
 1  4.42912381798180 -1.00497271247125  0.17468068406841
 1  3.85297426092609  1.74953366376638 -2.46769513921392
 1  5.57331274297430  2.34873513241324 -1.92016848504851
 1  5.42125943354335  0.78887999549955 -3.04476320732073
 1  6.67084914781478  1.44511851185119 -0.17153451065106
 1  6.46978109750975 -0.27516555395540  0.51097081378138
 1  7.49048643334333 -0.98189742494249 -1.57993931753175
 1  7.79056149204921  0.56017922602260 -2.04483740734073
 1  9.16597864946495  0.73155104010401  0.25433306550655
 1  8.66691518021802 -1.17415292149215  0.38137600130013
 1  10.49221677307731 -0.07898536083608 -2.01206609610961
 1  9.05222020752075 -2.26434441094109 -2.17095302010201
 1  10.86126868256826 -2.65006179007901 -2.04642888678868
 1  9.92629551555155 -2.92732467446745 -0.69578901860186
 1  11.31929961086109  0.63306553675368  0.32118360586059
 1  11.20480353375338 -1.09833579487949  0.83549417101710
 1  12.96279959885989 -1.65916407760776 -1.16088375597560
 1  12.81792554505450 -0.24821413041304 -1.77278063936394
 1  13.77756919361936  0.70930348634863  0.60045738873887
 1  13.76042879597960 -1.10937054175418  1.07553406990699
 1  15.24838812731273  0.20544002900290 -1.39019337733773
 1  15.90875831873187 -2.10787107920792  0.22367091319132
 1  15.23644669536954 -2.41700407600760 -1.51112852795280
 1  16.89779940934093 -1.77095262016202 -1.05386685618562
 1  15.83579878057806  1.38961679537954  0.59284582888289
 1  16.18217266446645  0.03089391429143  1.59634239543954
 1  17.93262420112011 -0.62804935233523 -0.49951329172917
 1  17.72068913341334  1.03998131703170 -1.26395997179718
 1  18.24785557815781  2.29401355905591  0.87603560886089
 1  18.89638679897990  0.86083026402640  1.70371037133713
 1  20.56612152485249  0.52934908310831  0.09243630763076
 1  19.81275538213821  3.19127268916892 -0.93220681408141
 1  21.42872712481248  2.38912556535654 -1.25458682198220
 1  19.93374727912791  1.63861567236724 -1.89329629862986
 1  20.98219419461946  1.59583769286929  2.44743436063606
 1  22.07285899219922  1.76086731643164  1.17392235853585
 1  21.09166889678968  3.02357244054405  1.82352279277928
>>>>>>> 8e03b5b5abfc0030b3aa597dc0de36371bfbd096

