%nproc=4
%Mem=3GB
# td=(NStates=1) iop(3/107=0140000000,3/108=0140000000) CAM-B3LYP/6-31G(d,p) 

TD

0 1
12 -7.12279697139714  0.61295967946795  0.09327569756976
 6 -4.84554337083708 -1.95197242784278  0.53791919431943
 6 -4.81121715231523  2.77480619851985  1.18136824202420
 6 -9.44606137063706  3.21476902990299 -0.38525100040004
 6 -9.55231132913291 -1.76529829552955 -0.89297610251025
 7 -5.07648467966797  0.33403949454945  0.74176200020002
 6 -4.31018326562656 -0.74139528272827  0.73833172787279
 6 -2.82660888148815 -0.50588898689869  1.08490415951595
 6 -2.92594582148215  1.10158886048605  1.54093037233723
 6 -4.35528576327633  1.47594224532453  1.13443783768377
 6 -2.82811899269927  1.18402122142214  3.11685700030003
 6 -1.82234796449645 -0.67540352955296 -0.03245943564356
 6 -0.45517122632263 -0.38390163816382  0.49128251055106
 6  0.60660258345835 -0.60040666256626 -0.63330312041204
 8  0.31319153595360 -1.15707948564856 -1.78592598569857
 8  1.79792839123912 -0.47262720112011 -0.19194458205821
 7 -7.15298294169417  2.63133634353435  0.37634855895590
 6 -6.05821596539654  3.37348111551155  0.89841571767177
 6 -6.43722863126313  4.73664052765277  0.90137839653965
 6 -7.63727851315131  4.85086689188919  0.40664679107911
 6 -8.04257378487849  3.59316625542554  0.09601760036004
 6 -5.48736076997700  5.81984145784578  1.29317947314731
 6 -8.48066807480748  6.00365063466347  0.00345095759576
 6 -8.29009741974197  7.23903305300530  0.59748380768077
 7 -9.12708174927493  0.71425842024202 -0.60475704960496
 6 -9.84384187048705  1.85221854615462 -0.72967578107811
 6 -11.24317827052705  1.50504994949495 -1.06575143484348
 6 -11.25012449964997  0.15230277607761 -1.26553658195820
 6 -9.92230983458346 -0.36178637203720 -0.94625682698270
 6 -12.41791272897290  2.45624086548655 -1.34041349404941
 6 -12.39984377727773 -0.75462158595860 -1.71903123372337
 6 -12.29565147404741 -1.21673186548655 -3.20974162536254
 7 -7.29997295969597 -1.40015485118512 -0.07097977307731
 6 -8.29241356765677 -2.23300184568457 -0.44758633853385
 6 -7.91476351615162 -3.55474602600260 -0.48298859865987
 6 -6.57577536803680 -3.51845482758276 -0.07838992069207
 6 -6.19039277097710 -2.17911586738674  0.10713254865487
 6 -8.68587092659266 -4.78391448984898 -0.76196958005801
 6 -5.46268173107311 -4.33938750215022  0.16995196929693
 8 -5.33070406270627 -5.51120797779778  0.28422437103710
 6 -4.22815731833183 -3.33830127752775  0.63720204180418
 6 -3.56902107890789 -3.68773671637164  1.92490845934593
 8 -3.76083886728673 -3.25625298319832  2.98382174037404
 8 -2.87262261506151 -4.88967758625863  1.75184422192219
 6 -2.37062601960196 -5.40241544744474  2.96098349874988
 6  2.82296861726173 -0.59236752565257 -1.22499601680168
 6  4.17122800800080 -0.33293856175618 -0.59125168796880
 6  5.12658815011501  0.45736226422642 -1.05939881688169
 6  5.02149587518752  1.32755043034303 -2.25408954395440
 6  6.45062134083408  0.46950756675668 -0.28328885328533
 6  7.62577403000300 -0.15500404840484 -1.01878220692069
 6  8.88642635423542 -0.12333414951495 -0.19015511791179
 6  10.26086154675468 -0.44701636483648 -0.80438615861586
 6  10.14037731433143 -2.00088796869687 -1.19661662766277
 6  11.49432409620962 -0.23837872897290  0.07316935443544
 6  12.76663439893989 -0.46437647114711 -0.70624812991299
 6  14.00856212801280  0.10028431413141  0.15487189878988
 6  15.30301629262926 -0.14778386198620 -0.50002565506551
 6  15.57387365836584 -1.56467485578558 -0.80854268056806
 6  16.54502149484949  0.34819133643364  0.41132586728673
 6  17.85845343304331  0.53673740334033 -0.40985751275128
 6  18.81953237183718  1.18145622412241  0.76694995169517
 6  20.26081888628863  1.29642907540754  0.30626733273327
 6  20.38567141294130  2.19146645174517 -0.94828952485249
 6  21.19102416941694  1.71219291919192  1.39726366636664
 1 -4.23683404690469  3.62067531893189  1.49862595839584
 1 -10.11249337263726  3.99648192269227 -0.39511403760376
 1 -10.26429085318532 -2.47676321142114 -1.32066988638864
 1 -2.55443273047305 -1.06271647434744  1.88180467116712
 1 -2.16443991029103  1.82276433753375  1.02895654465447
 1 -1.77112019841984  0.84084319071907  3.28710904830483
 1 -2.77902501160116  2.10187941074107  3.65222324452445
 1 -3.57945074557456  0.55952110641064  3.72394407960796
 1 -1.81143626262626 -1.64648531933193 -0.31177918501850
 1 -1.89831620062006 -0.02994537473747 -0.86500323492349
 1 -0.13888931763176  0.57962755005501  0.76916077907791
 1 -0.11906032633263 -1.28212897949795  1.14691815011501
 1 -5.69947412511251  6.78475598759876  0.89629946124613
 1 -5.49688115941594  6.20959384078408  2.39106111861186
 1 -4.52462730733073  5.66197046504650  1.00754148674868
 1 -9.44279453925392  5.98607198919892 -0.68618997169717
 1 -9.00615967966797  7.96112583358336  0.44953472917292
 1 -7.40162809490949  7.45250208660866  1.08886784708471
 1 -12.18856932993299  3.29307845494550 -2.34842067356736
 1 -13.56859415711571  1.96176491889189 -1.57196292449245
 1 -12.59592062476248  3.11655898999900 -0.62675311481148
 1 -12.43887585248525 -1.56460738353835 -1.09049255015502
 1 -13.26690898999900 -0.19893260376038 -1.60007576197620
 1 -13.23877907710771 -1.84672833493349 -3.47995895399540
 1 -12.16058646434643 -0.46137460876088 -3.87058603700370
 1 -11.59145398479848 -1.81090211741174 -3.30483876207621
 1 -9.29750436903690 -4.41873837463746 -1.63711977497750
 1 -7.99683406860686 -5.34288024132413 -0.86933688878888
 1 -9.47324150315032 -4.95119356775678 -0.10959322802280
 1 -3.46212373087309 -3.54324092969297 -0.18611634973497
 1 -1.54517790539054 -4.87332954635464  3.35727744534454
 1 -3.23758019531953 -5.44161368626863  3.76569760746075
 1 -1.80723124362436 -6.27810859565957  2.67125048614861
 1  2.77572562736274 -1.41303792659266 -1.70961240994099
 1  2.53434987628763 -0.08005992119212 -2.00832188968897
 1  4.49676016271627 -1.01829024282428  0.22322372257226
 1  3.93893920542054  1.40815635833583 -2.38175866156616
 1  5.37756468866887  2.41265168906891 -2.10962840124012
 1  5.63578314681468  0.98835002590259 -3.14802105900590
 1  6.84189237313731  1.46947692829283 -0.29517990409041
 1  6.41232910501050  0.05095775907591  0.78654484998500
 1  7.49840196299630 -1.27620829382938 -1.15785054225423
 1  7.75101766026603  0.25328443144314 -2.05038586148615
 1  8.86743278757876  0.78469796729673  0.35859828792879
 1  8.69134225502550 -0.80299865256526  0.67909403280328
 1  10.17589222102210  0.16291243904390 -1.86587174517452
 1  9.13342295139514 -2.05082336583658 -1.84887326922692
 1  10.81245038563856 -2.50983438273827 -1.73888924702470
 1  10.04753695079508 -2.69637375207521 -0.29726712041204
 1  11.40089173077308  0.80297673107311  0.33496126692669
 1  11.26479407490749 -0.90224152175218  0.88785510561056
 1  12.79820777327733 -1.42318973827383 -1.03830610211021
 1  12.68714454435444  0.04522945894589 -1.69361369506951
 1  13.93950537083708  1.24673003630363  0.12819764846485
 1  14.15074338493849 -0.48365474437444  1.31462383638364
 1  15.44189459085909  0.37572096909691 -1.37466873567357
 1  15.46539033583358 -2.39600894209421 -0.08315645114511
 1  14.87059870427043 -1.90250477047705 -1.73237461096110
 1  16.50220850045005 -1.55754665166517 -1.30415692899290
 1  16.11366463996400  1.40438877257726  0.67976389268927
 1  16.73841791959196 -0.33169945474547  1.24138263296330
 1  18.21338807650765 -0.40633714771477 -0.85643583918392
 1  17.83360066966697  1.10342923702370 -1.28781452505250
 1  18.46820587748775  2.24070533853385  1.38324027082708
 1  18.65531149364936  0.47171201070107  1.57544078957896
 1  20.60346017831783  0.34124512211221  0.06029192139214
 1  19.71967878637864  3.13616439293929 -0.83456564126413
 1  21.46013981478148  2.34583572567257 -1.06907488868887
 1  19.84785318291829  1.65842613281328 -1.83320170457046
 1  20.87846169966997  1.18405404630463  2.42525619441944
 1  22.36611450425042  1.66478694939494  1.25959261286129
 1  20.81150122862286  2.82590870807081  1.60953809050905

