%nproc=4
%Mem=2GB
# td=(NStates=1) CAM-B3LYP/6-31G(d,p) 

TD

0 1
<<<<<<< HEAD
12 -7.11415198819882  0.60366911501150  0.09144683208321
 6 -4.84763938193819 -2.01114229262926  0.48227476017602
 6 -4.83526345524553  2.74999344664466  1.15289165406541
 6 -9.38672340784078  3.16071156665667 -0.49817267696770
 6 -9.52463277697770 -1.71430694169417 -0.92856928602860
 7 -5.04176760136014  0.41982180028003  0.76968738703870
 6 -4.30240994709471 -0.72979280128013  0.82570059325933
 6 -2.88832783818382 -0.49530895659566  1.28304865906591
 6 -2.99936337473747  1.07817048534853  1.77267799849985
 6 -4.36510350525052  1.49966071487149  1.15288231813181
 6 -2.88262334443444  1.28317060516052  3.20057146604660
 6 -1.89149261026103 -0.50688594999500  0.10569452775278
 6 -0.42847026962696 -0.35409975717572  0.53703783308331
 6  0.51244238143814 -0.68793230613061 -0.56401178167817
 8  0.24149538963896 -1.06954236183618 -1.68899523122312
 8  1.75645745624562 -0.40430782718272 -0.19097588648865
 7 -7.09502995089509  2.60022561236124  0.34010270577058
 6 -6.12293157215722  3.34829580538054  0.83357689128913
 6 -6.42038929202920  4.76358064746475  0.67213790099010
 6 -7.65847855485549  4.82320295179518  0.21454984628463
 6 -8.15711998359836  3.48981817711771  0.02466501280128
 6 -5.48933689038904  5.77995046094609  1.12748750925093
 6 -8.53253105070507  6.09573060676068 -0.07291030563056
 6 -8.47777166846685  7.17750386898690  0.78491474127413
 7 -9.12118439103910  0.69663252435244 -0.51806584028403
 6 -9.82717897759776  1.82369232233223 -0.70122644674467
 6 -11.18498759535954  1.51546988608861 -1.14174589408941
 6 -11.22551495539554  0.14621998609861 -1.27583629762976
 6 -9.86534221492149 -0.36618859315932 -0.95303031913191
 6 -12.34455327902790  2.47647821882188 -1.35667244204420
 6 -12.49188373467347 -0.67536494659466 -1.56290709920992
 6 -12.58291577997800 -1.20546295749575 -3.01234635323532
 7 -7.17716718501850 -1.40472008560856 -0.31793647064706
 6 -8.22366260606061 -2.20381555365537 -0.52188714391439
 6 -7.88549469506951 -3.59651791929193 -0.46591386868687
 6 -6.57464134823482 -3.60301463846385 -0.22833456535654
 6 -6.14866746314631 -2.17845612691269  0.05180798499850
 6 -8.69033650105010 -4.80262310471047 -0.87045552395240
 6 -5.38283275357536 -4.38092197569757  0.17098997159716
 8 -5.31307014491449 -5.62871735513551  0.23920095079508
 6 -4.12186576597660 -3.33935972577258  0.50687055235524
 6 -3.51228185908591 -3.70312553385339  1.82665303820382
 8 -3.83951555215522 -3.08625536173617  2.85968864996500
 8 -2.64383557725773 -4.77272199459946  1.75446402730273
 6 -2.35695628352835 -5.30082431153115  3.07907284278428
 6  2.85063757545755 -0.71818961356136 -1.10972217261726
 6  4.13281537053705 -0.50705888218822 -0.46085623462346
 6  5.18254173857386  0.34826109150915 -0.90268004070407
 6  5.12954137713771  1.02497514681468 -2.25744991029103
 6  6.48270260306031  0.40853270347035 -0.09208569376938
 6  7.63321085898590 -0.20721106800680 -0.89864681518152
 6  8.93476534913491 -0.09281441184118 -0.11378319111911
 6  10.15686631113111 -0.59139621132113 -0.93589455995600
 6  10.00627732793279 -2.01931286738674 -1.33142660766077
 6  11.47418029492949 -0.35350913171317 -0.05054418581858
 6  12.82176708440844 -0.41079513061306 -0.78126814971497
 6  13.97235670407041 -0.11025222802280  0.13505057255726
 6  15.39408553345335 -0.06600032913291 -0.45566380618062
 6  15.63529519841984 -1.51973960776078 -0.99356897459746
 6  16.41533563946395  0.53875823582358  0.42051655885589
 6  17.80582517191719  0.58541994039404 -0.21543735833583
 6  18.81065143464346  1.17337555455546  0.77044747774777
 6  20.32907157635763  1.41176150965097  0.23112787598760
 6  20.44163551735173  2.20123842104210 -1.03891488418842
 6  21.14552548334834  1.91020395669567  1.38885424882488
 1 -4.05658714321432  3.40441596299630  1.14814940184018
 1 -10.18984937763776  3.89026986198620 -0.49566495799580
 1 -10.41199448884888 -2.50114945574557 -1.11780843304330
 1 -2.39142559945995 -1.17752606650665  1.97331802300230
 1 -2.13827743294329  1.48679226182618  1.30280093049305
 1 -1.93288774627463  1.10013046594659  3.69445315881588
 1 -3.23465852585259  2.28396245374537  3.48028019341934
 1 -3.64719816251625  0.62875755975598  3.93787620042004
 1 -1.85362784768477 -1.64583454385439 -0.17876178537854
 1 -2.30509218171817  0.23145039543954 -0.64224426402640
 1 -0.02921643904390  0.65277989188919  0.97999839893989
 1 -0.27973577557756 -0.95645016021602  1.41954590979098
 1 -5.68885766116612  6.76922556665667  0.77331304050405
 1 -5.45132212161216  6.16029939303930  2.03023932103210
 1 -4.50505446144614  5.63292445884588  0.73906708230823
 1 -9.18765081758176  6.09514566266627 -0.90933116131613
 1 -9.24822603850385  8.08053879277928  0.70485010681068
 1 -8.10316978277828  7.34880127962796  1.76320470597060
 1 -12.23380748584859  2.98842916891689 -2.23707671237124
 1 -13.28581825102510  1.90669456065607 -1.67308850035003
 1 -12.53708543964397  3.20932958765877 -0.41554279827983
 1 -12.45253003140314 -1.61650109520952 -0.94953990889089
 1 -13.19451817071707 -0.11492822962296 -1.40622615011501
 1 -13.49081543414341 -1.88410309650965 -3.23993387788779
 1 -12.58467203140314 -0.38777331493149 -3.67537103280328
 1 -11.61705798509851 -1.63508837593759 -3.07646626662666
 1 -9.33475307830783 -4.60020076297630 -1.79608287238724
 1 -8.00312967776778 -5.63864386858686 -1.02274188718872
 1 -9.31700158505851 -5.05453047434744  0.11957013441344
 1 -3.35260595649565 -3.46566981768177 -0.31077634913491
 1 -1.75151331783178 -4.61931837153715  3.66232914821482
 1 -3.12770237883788 -5.74777639523952  3.63195603450345
 1 -1.63602171367137 -6.05547482068207  2.76586053895390
 1  2.66446575067507 -1.82890472637264 -1.67337130213021
 1  2.72844032163216 -0.07127284768477 -1.88117126932693
 1  4.31456236183618 -1.10502271747175  0.27508072407241
 1  4.26032499599960  0.97815652605260 -2.62535090479048
 1  5.31210662236224  2.17473773267327 -1.85667213541354
 1  5.72248955655566  0.64598570607061 -2.80456918791879
 1  6.74137620052005  1.40104410441044  0.28682132493249
 1  6.22168628802880 -0.18625666306631  0.81967168386839
 1  7.39482686738674 -1.35656489168917 -0.90444176777678
 1  7.70580301620162  0.27645085318532 -1.91048397199720
 1  9.06444849644964  0.96636452145214  0.05660329252925
 1  8.82203069176918 -0.43232873907391  0.81995985968597
 1  9.91641919331933  0.21043358105811 -1.77365225472547
 1  9.14239922542254 -2.41077905440544 -1.87604352915292
 1  10.92144470017002 -2.27965474937494 -1.97523176707671
 1  9.90845373137314 -2.81524346634663 -0.60063950365037
 1  11.34728240914091  0.65165739593959  0.20243173067307
 1  11.63371642504251 -1.21051701300130  0.54582520412041
 1  13.00494381328133 -1.32745090629063 -1.26209387698770
 1  12.95763951645164  0.26728741974197 -1.55372873417342
 1  13.48400983768377  0.95360791679168  0.37862520552055
 1  14.13358611171117 -0.73290289498950  1.05137165366537
 1  15.55290857935794  0.46786627162716 -1.46579093709371
 1  15.80477792069207 -2.14111440354035 -0.03762521642164
 1  14.68586163686369 -1.85948832443244 -1.74150156525653
 1  16.52198182758276 -1.42823834873487 -1.85265673517352
 1  16.15309050975097  1.53812164586459  0.61599814411441
 1  16.65314976217622  0.10977180208021  1.40680344154415
 1  18.24994593329333 -0.31815836323632 -0.46058939933993
 1  17.87934499899990  1.17384470337034 -1.19515309110911
 1  18.39999079167917  2.21567572527253  1.08414641994199
 1  18.84904206450645  0.72110629162916  1.84964496479648
 1  20.74610952365236  0.38707485568557  0.04774183818382
 1  19.94821892849285  3.18592215411541 -1.11552514591459
 1  21.58518277037704  2.46317297009701 -1.20218158145815
 1  20.25926983138314  1.39173098389839 -1.90949791879188
 1  21.10612658785879  1.38423653275328  2.33570318751875
 1  22.12747445374537  1.95297652735274  1.10112507880788
 1  20.91024075397540  2.81780186348635  1.64044448494849
=======
12 -7.12177275027503  0.58643739183918  0.13454114151415
 6 -4.91375599359936 -1.95589676807681  0.57028356105611
 6 -4.81423135203520  2.94922336963696  1.02533889878988
 6 -9.47523225872587  3.08994448994899 -0.50467332703270
 6 -9.51921223492349 -1.75508101910191 -0.90445687478748
 7 -5.10005342994299  0.52741255935594  0.69867028532853
 6 -4.32755246134614 -0.70877069906991  0.74081210441044
 6 -2.93709271467147 -0.31501092679268  1.13540389458946
 6 -3.02563600200020  1.11773444174417  1.64912564326433
 6 -4.44800179507951  1.55908665746575  1.03162019191919
 6 -2.82525760786079  1.34796708480848  3.05439684858486
 6 -1.84278773977398 -0.54002926432643  0.05798975727573
 6 -0.49515693829383 -0.40835518271827  0.58369249854986
 6  0.56432756995700 -0.65842935583558 -0.55009038953895
 8  0.25516675677568 -0.81848725632563 -1.75377170887089
 8  1.78734054455446 -0.58561595799580 -0.16688347724772
 7 -7.13787423532353  2.62949853965397  0.28358705420542
 6 -6.01791107010701  3.39875085088509  0.64296783038304
 6 -6.51840909400940  4.82665695509551  0.73510419761976
 6 -7.77991069806981  4.86144677617762  0.28745713701370
 6 -8.15769004060406  3.38272746804680 -0.00717817151715
 6 -5.65816377307731  5.93598606450645  1.28889364986499
 6 -8.69408720632063  6.00012104580458  0.23053003840384
 6 -8.78158204950495  7.16652277087709  0.96624287408741
 7 -9.09155142774277  0.62257511861186 -0.54391842554255
 6 -9.89617587728773  1.78407836093609 -0.69902622672267
 6 -11.23272236883688  1.44357269636964 -1.02397411691169
 6 -11.28511091499150  0.08452381648165 -1.15614432843284
 6 -9.96257193789379 -0.43103507780778 -0.90950596669667
 6 -12.32043086678668  2.37698826982698 -1.36350312511251
 6 -12.47486203250325 -0.83902131223122 -1.63011381988199
 6 -12.41709919831983 -1.17258967016702 -3.14593971257126
 7 -7.31215068336834 -1.41797141074107 -0.08233291029103
 6 -8.27748798859886 -2.29392456455646 -0.51757671287129
 6 -7.92057820342034 -3.65579384688469 -0.59044632193219
 6 -6.53191707580758 -3.56243058005801 -0.21986371827183
 6 -6.20409300570057 -2.18501678297830 -0.01461865766577
 6 -8.71898936633663 -4.92608545094509 -0.93597207560756
 6 -5.31914638493849 -4.32699658315832  0.13538641124112
 8 -5.09334817271727 -5.58107259065907  0.06400343104310
 6 -4.16843042244224 -3.26792258205821  0.53056292159216
 6 -3.60814144504450 -3.63036825812581  1.98264863776378
 8 -3.72814441504150 -3.00047678387839  3.07473015411541
 8 -2.80974216791679 -4.60184490689069  1.82079065996600
 6 -2.14707529542954 -5.03452768186819  3.04591952745275
 6  2.84779729142914 -0.82170996559656 -1.19606080648065
 6  4.17032912191219 -0.54667284358436 -0.64821497049705
 6  5.18122160656066  0.33788005340534 -0.96164593729373
 6  5.02936135913591  1.18721137043704 -2.21278544384438
 6  6.47168150095009  0.31854370457046 -0.19110559575958
 6  7.66162370027003 -0.03397374427443 -0.96991394189419
 6  9.00897276987699 -0.07418254865487 -0.17551936473647
 6  10.24816544104410 -0.49364643634363 -0.83595456595660
 6  10.22000870107011 -2.06881781788179 -1.19582304730473
 6  11.50119299619962 -0.12585636643664  0.07178804740474
 6  12.79575448314831 -0.48059211031103 -0.57625764866487
 6  14.11227069546955 -0.10683188598860  0.07709477697770
 6  15.42812893779378 -0.28326205530553 -0.54061230103010
 6  15.76931860076008 -1.71337897169717 -0.88435805350535
 6  16.51359546544655  0.19720408040804  0.34393890109011
 6  17.93473806320632  0.37027842624262 -0.24456027062706
 6  18.90741111061106  1.08750696769677  0.72304273727373
 6  20.36930559975998  1.31395172867287  0.20104486768677
 6  20.40423177697770  2.28600689788979 -0.97512850555055
 6  21.16330726152615  2.00416335263526  1.32535789918992
 1 -4.16445793029303  3.71341686308631  1.31869645654565
 1 -10.17134752745275  3.99096993199320 -0.46010140164016
 1 -10.28832212161216 -2.43968330913091 -1.19017566976698
 1 -2.50542699959996 -0.90902921682168  1.99508019921992
 1 -2.12223582878288  1.58621220382038  0.77076772717272
 1 -1.75954041154115  0.84706515941594  3.50646435993599
 1 -2.85972103210321  2.39170322782278  3.40260242564257
 1 -3.50741418411841  0.92474715871587  3.58641105390539
 1 -1.82725521042104 -1.62364232463246 -0.37681159035904
 1 -2.06622829532953  0.07858510891089 -0.88671871147115
 1 -0.06429994739474  0.59786440034003  1.00215061416142
 1 -0.20257805980598 -1.13987850305031  1.30644459965997
 1 -6.07814659005901  6.92097074117412  1.03472918211821
 1 -5.85620260966097  5.83865722882288  2.39303560066007
 1 -4.60975493149315  5.70092125852585  1.09954312991299
 1 -9.70551260376038  6.01418756685668 -0.56374660286029
 1 -9.29945116101610  7.95026576547655  0.84378400020002
 1 -8.10932039783978  7.20132653215322  1.79180756625663
 1 -12.06761086618662  2.86681700770077 -2.28822182688269
 1 -12.99736940614061  1.59825371657166 -1.68869006050605
 1 -12.73096482758276  2.97257591229123 -0.71001224522452
 1 -12.61302608100810 -1.71318076317632 -0.94213916881688
 1 -13.39054777367737 -0.21176791359136 -1.29979550705071
 1 -13.55327167976798 -1.80041472767277 -3.21253113761376
 1 -12.24150771497150 -0.13448798639864 -3.74802829852985
 1 -11.49669594889489 -1.79014388148815 -3.45073369336934
 1 -8.94497410041004 -4.71534227712771 -1.91645490959096
 1 -8.08784814961496 -5.72019202340234 -0.78523813681368
 1 -9.55011489638964 -5.04200922222222 -0.20696251885189
 1 -3.15292598849885 -3.29736298699870 -0.17043231473147
 1 -1.60601876837684 -4.23716015571557  3.48831174647465
 1 -2.70569017761776 -5.45006662426243  4.02433527242724
 1 -1.43597170867087 -5.87902717591759  2.88268222112211
 1  2.33288259235924 -1.75626746264626 -1.42785675067507
 1  2.66227370497050 -0.19983570397040 -2.10809396159616
 1  4.32497340294029 -1.30346256145615  0.41530474647465
 1  3.98494745824582  1.20327903830383 -2.60031840154015
 1  5.14191960366037  2.12960321922192 -1.90043651185118
 1  5.66449375697570  1.08553966146615 -3.13190192119212
 1  6.71564362726273  1.27228122812281  0.12742538533853
 1  6.38951307070707 -0.20442848024803  0.68548826552655
 1  7.39302668736874 -1.06275551075108 -1.53360468406841
 1  7.82128456435643  0.57666087418742 -1.83930685428543
 1  9.26662871447145  0.88907679267927  0.18334596679668
 1  8.83206169486949 -0.84013952015201  0.64118198189819
 1  10.34416196759676  0.16325886358636 -1.64484937443744
 1  9.33654864036404 -2.25617359385939 -1.91086701150115
 1  11.26762931863186 -2.32762954685469 -1.61098534243424
 1  9.98330121612161 -2.48889083108311 -0.08880832053205
 1  11.47329501040104  0.95690792099210  0.32792427992799
 1  11.42844589798980 -0.73296925822582  1.04442506410641
 1  12.76848016691669 -1.66962512371237 -0.74340200780078
 1  12.58909266176618  0.02628331933193 -1.52035539683968
 1  13.97286872357236  0.97470002600260  0.42636997999800
 1  14.14645739883989 -0.65544514921492  0.87821433793379
 1  15.43414670317032  0.30673015801580 -1.44580893889389
 1  15.88541598449845 -2.30921121322132 -0.04173562746275
 1  14.83437648834884 -2.05947832343234 -1.29238665376538
 1  16.71342097149715 -1.94415994089409 -1.39627109660966
 1  16.35032023272327  1.21790962466247  0.92510905520552
 1  16.50978542574257 -0.62603177827783  1.27551031223122
 1  18.28988992769277 -0.57954450185018 -0.65935927632763
 1  17.81750881538154  1.13905122402240 -1.16944051985198
 1  18.39378017061706  2.04776893459346  1.03331133643364
 1  18.88553571387139  0.36391057205721  1.53383338363836
 1  20.86099101180118  0.38912506070607  0.10437750175018
 1  19.98998310491049  3.19849341124112 -0.53312690609061
 1  21.50910516261626  2.44249090189019 -1.08146951025102
 1  19.81934583898390  1.99025083588359 -1.79605657465747
 1  21.17764373957396  1.32348045714571  2.03437305450545
 1  22.24283598989899  2.01678290799080  1.15183014931493
 1  20.76158588848885  2.96294637793779  1.42725316581658
>>>>>>> 8e03b5b5abfc0030b3aa597dc0de36371bfbd096

