%nproc=4
%Mem=2GB
# td=(NStates=1) CAM-B3LYP/6-31G(d,p) 

TD

0 1
12 -7.09976054905490  0.62738148624862  0.06521420882088
 6 -4.78740335833583 -1.93386456485649  0.39567610031003
 6 -4.87485741464146  2.82096054335434  1.07057342224222
 6 -9.43022775827583  3.10059555505551 -0.37731059075908
 6 -9.54441475517552 -1.78341385238524 -0.89922635173517
 7 -5.12466589118912  0.35719553765377  0.71540195849585
 6 -4.36859656575658 -0.63598342034203  0.82046006920692
 6 -2.91286029142914 -0.27856728242824  1.17570792499250
 6 -2.96118955735574  1.16273894219422  1.58759949064906
 6 -4.39757675257526  1.49433018181818  1.08065509540954
 6 -2.90166524862486  1.36736902500250  3.11800320922092
 6 -1.85556901790179 -0.70120538193819  0.00164412271227
 6 -0.47268469106911 -0.53806815401540  0.47050117941794
 6  0.56637777497750 -0.67503101600160 -0.62553793429343
 8  0.20808204830483 -0.99209461706171 -1.80349668136814
 8  1.86153796429643 -0.57614501090109 -0.30136692559256
 7 -7.08741918981898  2.72491808160816  0.11246994249425
 6 -6.07402668166817  3.43411438723872  0.62474600820082
 6 -6.40766801990199  4.80308459785979  0.76092677987799
 6 -7.72095480248025  4.97226785828583  0.36678506980698
 6 -8.13630790239024  3.50459965526553 -0.07298475217522
 6 -5.50412836953695  5.88939140504050  1.13112787328733
 6 -8.66745454305430  5.97624865856586  0.44669165456546
 6 -8.34823871517152  7.16390250885089  1.14129037883788
 7 -9.11585385798580  0.60026288738874 -0.55855988968897
 6 -9.89530579027903  1.81405135823582 -0.60701702580258
 6 -11.19998909550955  1.47330566966697 -1.11680339983998
 6 -11.25431783568357  0.08196356045605 -1.18810752475247
 6 -9.93025870657066 -0.38908088238824 -0.87007202330233
 6 -12.26006483018302  2.44757532853285 -1.33157993279328
 6 -12.40960550685068 -0.84213162326233 -1.54138494699470
 6 -12.22430991939194 -1.25480789198920 -3.04030914951495
 7 -7.25681514981498 -1.39464907850785 -0.15773045004500
 6 -8.27322756255626 -2.18964413651365 -0.46512146734673
 6 -7.86905305090509 -3.67987625512551 -0.47332460976098
 6 -6.45230911501150 -3.55818015501550 -0.05338707060706
 6 -6.14737733413341 -2.19901818311831  0.06611941614161
 6 -8.55581304870487 -4.89333217561756 -0.81933041144114
 6 -5.22166663696370 -4.36536041954195  0.20419329192919
 8 -5.12020085798580 -5.56361084448445  0.20617764846485
 6 -4.10709428882888 -3.30649643944394  0.52445231053105
 6 -3.55870650155016 -3.55907112841284  1.97209758265827
 8 -3.76618821942194 -3.06297303350335  3.01271395249525
 8 -2.76936813051305 -4.64668939133913  1.82760134103410
 6 -2.22607319521952 -5.24040826992699  3.08983391889189
 6  2.90835334703470 -0.75388318291829 -1.32733393379338
 6  4.16592868186819 -0.28692686898690 -0.73334348334833
 6  5.13730721512151  0.42285855125513 -1.14884465716572
 6  4.91189961296130  1.11408405770577 -2.48130229552955
 6  6.56825115791579  0.60355220542054 -0.42639912511251
 6  7.64902244014401 -0.14022436933693 -1.20892784328433
 6  8.94218609120912 -0.10374550495049 -0.33102491529153
 6  10.24338496299630 -0.58348542024202 -0.87406837733773
 6  10.19107580778078 -2.04681561766177 -1.23792725772577
 6  11.32418529542954 -0.21266504730473  0.01732260086009
 6  12.72147705540554 -0.46342039313931 -0.67359738263826
 6  13.88943841224122 -0.04535573837384  0.26667373487349
 6  15.29253537843784 -0.19117284638464 -0.42972121192119
 6  15.68034970387039 -1.65748338213821 -0.71835145284528
 6  16.43534764066407  0.27890225022502  0.62544705190519
 6  17.80158474787479  0.50879227762776 -0.07847366196620
 6  18.75525589508951  1.21658987598760  0.81336176917692
 6  20.14641331053105  1.29671000450045  0.27860262346235
 6  20.22035338913891  2.10508880608061 -1.02582357505751
 6  21.01962289308931  1.94240717701770  1.36776213961396
 1 -4.28042952745275  3.62116763816382  1.36689127602760
 1 -10.13830422312231  3.82437327232723 -0.55508089958996
 1 -10.32454574397440 -2.69069841064107 -0.97809446164616
 1 -2.68172462936294 -0.99250756465647  1.86736742794279
 1 -2.26794039923992  1.90931451405140  1.21166181658166
 1 -2.01988644614462  1.08670912381238  3.64464817831783
 1 -3.01847690769077  2.35335939343934  3.61763392879288
 1 -3.54126756945695  0.60841552555256  3.67270968376838
 1 -2.07903038793879 -1.76866682708271 -0.46787069626963
 1 -2.10139181168117  0.15567281768177 -0.83126316591659
 1 -0.13748726612661  0.33707832173217  1.14772517161716
 1 -0.34183198519852 -1.34190870607061  1.23639759495950
 1 -5.54814358975898  6.81685032913291  0.56463217241724
 1 -5.82767975737574  6.35199856295630  2.10971726882688
 1 -4.64551850785078  5.50857202360236  1.04957813341334
 1 -9.55845789828983  5.83146929502950 -0.20381060926093
 1 -9.15940715661566  7.97951869076908  1.36487610941094
 1 -7.36699616541654  7.11937833733373  1.91336972247225
 1 -11.91556566166617  3.16208653465347 -2.15992899759976
 1 -13.11132080128013  1.93050694189419 -1.75528672017202
 1 -12.47812954405441  3.05601425612561 -0.40623186718672
 1 -12.49331410981098 -1.66382582768277 -0.91545650055005
 1 -13.38697741664166 -0.15776251305130 -1.50324585208521
 1 -12.99216556915692 -1.81387607380738 -3.33274315881588
 1 -11.99008257245725 -0.41130566816682 -3.61613510921092
 1 -11.28039431873187 -1.71739660676068 -3.37286590659066
 1 -9.14891449444945 -4.70484122702270 -1.72446571067107
 1 -7.97786715151515 -5.74756476067607 -0.80334994799480
 1 -9.38511839673967 -5.20779580088009 -0.06182800540054
 1 -3.34844554045404 -3.45458870957096 -0.20579585108511
 1 -2.00699886638664 -4.43070951065107  3.84609752505251
 1 -3.12647225582558 -5.83973559115912  3.34702754165417
 1 -1.35803391489149 -5.88293756695670  2.64308826172617
 1  2.94589389348935 -1.82313414931493 -1.52888685368537
 1  2.68030550815082 -0.31896761716172 -2.26285943814381
 1  4.36058696429643 -1.06340855605561  0.14431764776478
 1  3.84143310681068  1.26837554795480 -2.72133050275027
 1  5.24470988268827  2.12029228812881 -2.40196666486649
 1  5.63166047364736  0.72533364086409 -3.33597232823282
 1  6.87967002990299  1.72229622962296 -0.42419977717772
 1  6.47339145854585  0.19450141274127  0.74236395309531
 1  7.43313069776978 -1.00837007220722 -1.65678700230023
 1  7.92733516941694  0.40045325342534 -2.12583550715072
 1  8.98655070667067  1.13943182818282 -0.04642701050105
 1  8.76460494919492 -0.44237974417442  0.47915577927793
 1  10.33064061546155 -0.03384084638464 -1.87349223872387
 1  9.52561754725473 -2.14853282978298 -2.21852777757776
 1  11.22657521322132 -2.29469625352535 -1.43756800070007
 1  9.71598448444845 -2.64357629962996 -0.26684612431243
 1  11.16111379227923  0.87400963116312  0.15372686018602
 1  11.20370342374237 -0.77885384668467  0.97066768836884
 1  12.87901122002200 -1.50082824402440 -0.77369503710371
 1  12.60025377787779  0.05160585158516 -1.76507986928693
 1  13.70838227492749  0.98396095209521  0.59681702470247
 1  14.09761251435144 -0.70213981868187  0.99865638213821
 1  15.49838312681268  0.43906339133913 -1.55797015501550
 1  15.76877432033203 -2.24885517761776  0.06049459555956
 1  14.94785783648365 -2.14677705330533 -1.38823623872387
 1  16.65886551595160 -1.89684520942094 -1.13704517401740
 1  16.22621782248225  1.31517935163516  0.98050459475948
 1  16.61227567476747 -0.53872304740474  1.35353811501150
 1  18.32586352505250 -0.61748829622962 -0.30808414881488
 1  17.51797886238624  1.16028334723472 -1.08216179197920
 1  18.35462625522552  2.18656281398140  1.02261026632663
 1  18.77021418171817  0.92149633063306  1.89051905220522
 1  20.57470238293829  0.20559670787079  0.09911697569757
 1  20.03115722232223  3.12134569646965 -0.86460005340534
 1  21.26476072817282  2.31689834263426 -1.27502886618662
 1  19.58510241464147  1.52597440824082 -1.67686465546555
 1  21.07190316551655  1.44354246334633  2.51691130833083
 1  22.10459216551655  1.89549077877788  1.18765373167317
 1  20.59530926082608  3.06609669296930  1.66154659515952

