%nproc=4
%Mem=3GB
# td=(NStates=1) iop(3/107=0140000000,3/108=0140000000) CAM-B3LYP/6-31G(d,p) 

TD

0 1
12 -7.17457214891489  0.60708909240924  0.14078044804480
 6 -4.77690650715072 -1.96380361096110  0.60648605100510
 6 -4.72296832743274  2.80338905680568  1.14287439263926
 6 -9.35288205270527  3.05485303830383 -0.33522599789979
 6 -9.50054615261526 -1.73649541524152 -0.86884368926893
 7 -5.04973200440044  0.41195728632863  0.69273709770977
 6 -4.27728997629763 -0.78605974917492  0.78019591429143
 6 -2.83390961156116 -0.50786918491849  1.25115078417842
 6 -2.96835006190619  1.02840154175418  1.70912719201920
 6 -4.32986322102210  1.47815246634663  1.20085447934793
 6 -2.89077525832583  1.21768458775878  3.16714202880288
 6 -1.89102483218322 -0.64737072627263  0.06784059435944
 6 -0.37597330653065 -0.25310855885589  0.48623200550055
 6  0.54437636083608 -0.45630225212521 -0.66757654775478
 8  0.14969518631863 -0.99756353405341 -1.71036842994299
 8  1.81360995939594 -0.11365130353035 -0.32635802340234
 7 -7.04574221762176  2.57415062496250  0.45067599169917
 6 -6.03595373917392  3.32338610601060  0.74337021312131
 6 -6.35460036843684  4.70215707930793  0.85063332203220
 6 -7.68159294459446  4.78381018621862  0.33458958535854
 6 -8.05519504700470  3.42249918871887  0.06573457205721
 6 -5.36698873277328  5.75143461716172  1.05380553575358
 6 -8.37378738673867  5.93906417601760  0.00484109660966
 6 -8.44497290729073  7.24899404910491  0.60219427872787
 7 -9.14533357445745  0.65857285168517 -0.52917949184918
 6 -9.87142462876288  1.81523484778478 -0.61399421292129
 6 -11.21301525422542  1.46143558805881 -1.17607246694669
 6 -11.21861134833483  0.12389993579358 -1.33955398369837
 6 -9.96846445004500 -0.30402059545955 -0.81925412671267
 6 -12.29517045474548  2.41514675607561 -1.34780423312331
 6 -12.32493628652865 -0.76752287608761 -1.76841617221722
 6 -12.09491140004000 -1.03382357465747 -3.27675832703270
 7 -7.17027999039904 -1.35327016271627 -0.26659933503350
 6 -8.23861818811881 -2.20030857635764 -0.52622420232023
 6 -7.83214525432543 -3.64374492589259 -0.53820412021202
 6 -6.47080487098710 -3.55714869696970 -0.06280836253625
 6 -6.25682941464146 -2.15427338313831  0.19264109950995
 6 -8.72822516201620 -4.78021411981198 -0.69536291939194
 6 -5.42387785068507 -4.45251881528153  0.26815178927893
 8 -5.38879987228723 -5.68328518551855  0.40381633023302
 6 -4.29107360996100 -3.42987043444344  0.55670399199920
 6 -3.62599677647765 -3.78766670937094  1.90154612311231
 8 -3.76032881628163 -3.31682904080408  3.00322368056806
 8 -2.82440779357936 -4.90636925542554  1.77957699519952
 6 -2.35283424042404 -5.42863806970697  3.02930033043304
 6  2.82219854025403 -0.48898718761876 -1.32960647784778
 6  4.18829971517152 -0.24769003690369 -0.68156071887189
 6  5.05331082238224  0.61271779977998 -1.06588946594659
 6  4.97317104270427  1.44416209150915 -2.24289842484248
 6  6.38996527522752  0.62145276127613 -0.16701722612261
 6  7.57697915051505 -0.18045659365937 -0.97879820852085
 6  8.85919363096310 -0.08351016711671 -0.17073317571757
 6  10.17708316891689 -0.47800946414641 -0.87382310231023
 6  10.06147942454245 -1.95445332523252 -1.42941990799080
 6  11.39734439823982 -0.23658854995500 -0.03300126262626
 6  12.74262199769977 -0.34660469396940 -0.81391889698970
 6  13.94229550135013 -0.00008572287229  0.09799621122112
 6  15.25053104410441 -0.15471455505551 -0.42846849934993
 6  15.59857612861286 -1.47210559885989 -1.07307913421342
 6  16.43652064476448  0.18990550785079  0.49858459315932
 6  17.71918950665066  0.52388611821182 -0.20032655965597
 6  18.82789320792079  1.05829390789079  0.85079833653365
 6  20.17958076247625  1.13949338183818  0.36968367436744
 6  20.48807165296530  1.96106341144114 -0.95379007490749
 6  21.06510157715772  1.75890759065907  1.35085902590259
 1 -3.97445780928093  3.53596684808481  1.56730282608261
 1 -10.03815593889389  3.85669794429443 -0.51352587878788
 1 -10.19294371847185 -2.56364189928993 -1.29893771317132
 1 -2.60345763296330 -1.16502670537054  1.93666015671567
 1 -2.22608607490749  1.62005406650665  1.08735238423842
 1 -1.89960304670467  1.08646775317532  3.68536887428743
 1 -3.23473058215822  2.20173939673967  3.51439946214621
 1 -3.28503130363036  0.61490664496450  3.78725041024102
 1 -1.91456657565757 -1.58043871467147 -0.18245625272527
 1 -2.36751312031203  0.01242886268627 -0.95688242284228
 1 -0.36933236193619  0.77704729202920  1.01220508350835
 1 -0.01980040034003 -0.82595336193619  1.33709716801680
 1 -5.43227740544054  6.76415392739274  0.29862969426943
 1 -5.67014848614861  6.36872975437544  2.05311732423242
 1 -4.24381922652265  5.56293056105611  1.10354108670867
 1 -9.12561282108211  5.79156253825383 -0.83855520822082
 1 -9.24193325702570  7.96017573857386  0.20038981468147
 1 -7.79467739983998  7.50582741914191  1.41503046334633
 1 -12.06216668966897  3.12832197929793 -2.17791362286229
 1 -13.31285858355836  2.01197994039404 -1.66102183038304
 1 -12.32678371107111  3.04785211931193 -0.47296773627363
 1 -12.51725369026903 -1.64294521732173 -1.33618711961196
 1 -13.30545284438444 -0.05341805230523 -1.51000675507551
 1 -12.71666686588659 -1.93349701180118 -3.67668862696270
 1 -11.86331673737374 -0.11741021232123 -3.77458643704370
 1 -11.11225606500650 -1.55764679187919 -3.32428070627063
 1 -8.95768038663866 -4.97052355315532 -1.85700176317632
 1 -8.23978836403640 -5.66110206350635 -0.43953390849085
 1 -9.75377955695570 -4.64601304970497 -0.12103437213721
 1 -3.35341285978598 -3.37135374097410 -0.17987572567257
 1 -1.62952634023402 -4.62129434283428  3.70390210781078
 1 -3.12045848314832 -5.84823434833483  3.67957899559956
 1 -1.78897941844184 -6.23706449124912  2.93098645974597
 1  2.84041209600960 -1.50058668146815 -1.79931137983798
 1  2.69375581688169  0.14978306310631 -2.22249330683068
 1  4.53253374007401 -0.70265867966797  0.26964836503650
 1  4.12528784028403  1.46941248394840 -2.74994548024802
 1  5.47075400760076  2.37933835773577 -2.11998943734373
 1  5.92555212371237  1.28556974787479 -2.85678193509351
 1  6.68038622252225  1.59965994659466  0.14432404630463
 1  6.19327719981998 -0.17282461916192  0.71513770927093
 1  7.26920904370437 -1.16639731273127 -0.99696445364536
 1  7.76482904140414  0.26756585958596 -2.14033485638564
 1  8.88399444374437  1.06440593809381  0.24757718581858
 1  8.92154527532753 -0.56548490119012  0.77107323072307
 1  10.03825845764577  0.09676582438244 -1.88043320132013
 1  9.11074068316832 -2.04006228972897 -2.26250463236324
 1  11.14011315191519 -2.29465286458646 -1.63585894399440
 1  9.85637783488349 -2.60682479717972 -0.59279667336734
 1  11.25472711431143  0.84889132253225  0.29411718251825
 1  11.56822441794179 -0.97311860946095  0.76345266536654
 1  12.88021597409741 -1.33868128742874 -1.17925019651965
 1  12.68588441834183  0.47471240724072 -1.62141647534753
 1  13.76226764706471  0.99820518381838  0.48215304400440
 1  13.88711702230223 -0.73338971787179  0.89617199119912
 1  15.46121652305231  0.57728112511251 -1.35751702050205
 1  15.39503330013001 -2.21688102930293 -0.20085822132213
 1  15.27624926932693 -1.93251777177718 -2.04375574907491
 1  16.74242252185218 -1.51940283728373 -1.22653916721672
 1  15.99906317981798  1.28619695339534  1.14935085138514
 1  16.50226430423042 -0.50217650245024  1.34912340704070
 1  18.10905764346435 -0.36931344534453 -0.61569176477648
 1  17.71152846244624  1.27729662376238 -1.02424816841684
 1  18.37773683058306  2.22264353235323  1.11017296409641
 1  18.76478244074407  0.42787762726273  1.95565881138114
 1  20.72596242854286  0.12061305890589  0.08299419161916
 1  19.94331114961496  2.89642041854185 -0.89832201690169
 1  21.43971777257726  2.03453459555956 -1.13288126932693
 1  19.92883128072807  1.38359865006501 -1.67876626102610
 1  21.36358021152115  1.25511115201520  2.25039870867087
 1  22.21664955775577  1.80850132083208  1.08135478907891
 1  20.68164824332433  2.84127024422442  1.85324246094609

