%nproc=4
%Mem=2GB
# td=(NStates=1) CAM-B3LYP/6-31G(d,p) 

TD

0 1
<<<<<<< HEAD
12 -7.13548412141214  0.59699844794479  0.08237592499250
 6 -4.85761037903790 -1.88514969336934  0.50167670037004
 6 -4.92756268516852  2.81061950925092  1.21983834873487
 6 -9.44573930943094  3.09798529402940 -0.36852971267127
 6 -9.49947026072607 -1.77319283028303 -0.91680810991099
 7 -5.23786721132113  0.35650546864686  0.79518993729373
 6 -4.36865657175718 -0.68519834183418  0.81925994919492
 6 -2.97648665406541 -0.31025045074507  1.19572992719272
 6 -3.04595803420342  1.16870953925393  1.66763749444944
 6 -4.48774576947695  1.55344609340934  1.19000603050305
 6 -2.92884796689669  1.29264155225523  3.22516392529253
 6 -1.95825928692869 -0.57780304170417  0.09011296959696
 6 -0.52411983458346 -0.42121646884688  0.49896402570257
 6  0.50610174737474 -0.72309582248225 -0.55574095459546
 8  0.19779101920192 -1.18313372097210 -1.65097142884288
 8  1.74735654615462 -0.58546594299430 -0.14882167106711
 7 -7.15304575247525  2.60740633043304  0.20802949844985
 6 -6.11439071807181  3.33447442324232  0.72001553515352
 6 -6.47294454755476  4.69996428582858  0.81710239743974
 6 -7.66619932693269  4.81125175667567  0.30895928722872
 6 -8.13751802340234  3.47453664896490 -0.04917237093709
 6 -5.55105306200620  5.73357582348235  1.34123888438844
 6 -8.51700949854985  6.05660669436944  0.08688567396740
 6 -8.48474236553655  7.25021113971397  0.74862111191119
 7 -9.08978125072507  0.57838069916992 -0.55157919161916
 6 -9.89866612631263  1.78186813991399 -0.66843316741674
 6 -11.16353545014501  1.44625296439644 -1.16639835933593
 6 -11.19515191909191  0.09842520662066 -1.31109982398240
 6 -9.89096477717772 -0.49237121142114 -0.92001701780178
 6 -12.25059388308831  2.43714428542854 -1.41837861266127
 6 -12.29583412971297 -0.66245365546555 -1.80443125162516
 6 -12.29947743614361 -1.23077548874887 -3.17205232383238
 7 -7.22740220852085 -1.40335994959496 -0.24210888788879
 6 -8.20478071787179 -2.22896806890689 -0.60982593779378
 6 -7.80398654425443 -3.59764803230323 -0.56360363766377
 6 -6.47313119721972 -3.55490982798280 -0.08578030993099
 6 -6.14707730413041 -2.21421970327033  0.02927573177318
 6 -8.55259272667267 -4.84185702810281 -0.82221069946995
 6 -5.26240071037104 -4.37467135063506  0.16458933153315
 8 -4.99510834873487 -5.54501898529853  0.17380441114111
 6 -4.17565114451445 -3.19879566936694  0.58805867116712
 6 -3.49257988888889 -3.62425764706471  1.92504287718772
 8 -3.71351295189519 -3.02874961116112  2.93781646274627
 8 -2.63634482818282 -4.58831355375538  1.76446502740274
 6 -2.02387297519752 -5.06683091219122  3.04194913041304
 6  2.83877638933893 -0.69260705530553 -1.18545974637464
 6  4.11140322932293 -0.40581875817582 -0.43086323532353
 6  5.07278076247625  0.43708997439744 -0.84780455315532
 6  4.93201162416242  1.24709735903590 -2.19533369866987
 6  6.39260359315932  0.51881373157316 -0.07292377757776
 6  7.61441897979798 -0.03722406930693 -0.88132508300830
 6  8.94523639623962  0.03093796339634 -0.11915372817282
 6  10.12500312481248 -0.44217128882888 -0.85869684018402
 6  9.94273097329733 -1.95597653375338 -1.36436990199020
 6  11.39930280718072 -0.35844962576258 -0.05812494389439
 6  12.81299620732073 -0.56808085918592 -0.73250327322732
 6  13.96929639803980 -0.17993919671967  0.21209827732773
 6  15.29327545244525 -0.20433416251625 -0.51548978877888
 6  15.72191386028603 -1.67754538833883 -0.88861847954796
 6  16.40651475737574  0.43535789578958  0.38169267646765
 6  17.69663425282528  0.54587598599860 -0.28208402300230
 6  18.87940831033103  1.12093031003100  0.70163059605961
 6  20.24322299149915  1.23950428392839  0.09382414561456
 6  20.39675102890289  2.23419171637164 -1.07251824452445
 6  21.17800873167317  1.68308124442444  1.27925328872887
 1 -4.33377486198620  3.78987450885089  1.52733732063206
 1 -10.25821621432143  3.79933076807681 -0.36163155465547
 1 -10.08491178057806 -2.72698203900390 -1.29682633483348
 1 -2.70834729162916 -0.92181049494949  2.06496718791879
 1 -2.26326993219322  1.78315189778978  1.17399805020502
 1 -1.91748620612061  0.92946339923992  3.49818353185318
 1 -3.09560462046205  2.32898695619562  3.52915508090809
 1 -3.78860230293029  0.73814849884988  3.76898931173117
 1 -2.07541002590259 -1.58025798619862 -0.45778968816882
 1 -2.13806547904790  0.17880513091309 -0.73120315991599
 1 -0.40677419481948  0.55078969286929  0.89100950005000
 1 -0.45678348034803 -1.11931644684468  1.35094905010501
 1 -5.72950172557256  6.59736838093809  0.77129283848385
 1 -5.81020801020102  5.90170353345334  2.42688898599860
 1 -4.52249620562056  5.59436060246025  1.31018419401940
 1 -9.24943699619962  6.02950909900990 -0.71909213741374
 1 -9.15379659555956  7.96997773667367  0.50468008980898
 1 -7.37149661546155  7.59838623812381  1.37664605010501
 1 -12.15323942904290  3.21275160116012 -2.10324332903290
 1 -13.10730039923992  1.95838973017302 -1.51557274877488
 1 -12.61714344544455  3.02956161086109 -0.44372561656166
 1 -12.38583336173617 -1.53001244634463 -1.02718767366737
 1 -13.10415913481348 -0.17017375417542 -1.66043157065707
 1 -13.19087544014402 -1.98389307550755 -3.31482136663666
 1 -12.57435099929993 -0.38489302690269 -3.93910740644064
 1 -11.39255553485349 -1.55774064116412 -3.60378899889989
 1 -9.10516011901190 -4.76332707560756 -1.73989725382538
 1 -7.66657602240224 -5.51751175537554 -1.02892250525053
 1 -9.28788867376738 -5.40099512081208  0.05884406180618
 1 -3.47278797469747 -3.61626487718772 -0.16188145964596
 1 -1.62749091559156 -4.16537297699770  3.52406532183218
 1 -2.67988759735974 -5.48736035363536  3.68539137803780
 1 -1.23879199069907 -5.84432370557056  2.78432238513851
 1  2.75479478357836 -1.72790462636264 -1.71473543854385
 1  2.66690416801680  0.10115439503950 -1.99430258245825
 1  4.46633753935394 -0.90424263946395  0.68872208820882
 1  4.02462142564256  1.27748645904590 -2.56914528422842
 1  5.34078949064907  2.24413467236724 -1.98901536973697
 1  5.58345565316532  1.20262136963696 -2.99982871387139
 1  6.69832189508951  1.51191519151915  0.14796743954395
 1  6.50661478087809  0.09707166976698  1.01752146884688
 1  7.58825621032103 -1.21706094129413 -1.22439376297630
 1  7.82159459535954  0.50532374047405 -2.04099702330233
 1  8.98937098869887  1.12266015101510  0.16424405660566
 1  8.66187467616762 -0.48983448964896  0.79182704640464
 1  10.29819737113711 -0.07191465376538 -1.77072196169617
 1  9.15872085758576 -2.13862183868387 -2.00007593239324
 1  10.91187374307431 -2.18710549444944 -1.94295853975398
 1  10.07767065306531 -2.62194413641364 -0.49226866656666
 1  11.47055473637364  0.53379560976098  0.54766625412541
 1  11.32128518191819 -0.93972993429343  0.92528314991499
 1  12.90496381528153 -1.68177633883388 -1.08965663326333
 1  12.91050480298030 -0.16775608460846 -1.71681504280428
 1  13.74002543924392  0.93703625962596  0.45750309330933
 1  14.11856460956096 -0.78134773947395  1.04252076857686
 1  15.35358864736474  0.27637712271227 -1.53495785378538
 1  15.50894833773377 -2.28554884698470  0.10633918001800
 1  14.94000705140514 -2.16111848744875 -1.43103051815182
 1  16.78653828322832 -1.91707723262326 -1.12920438993899
 1  15.94544974567457  1.36152398609861  0.80325686998700
 1  16.61399584678468 -0.13316249134913  1.32612537373737
 1  18.03605454415441 -0.42104865226523 -0.43813715411541
 1  17.64129119361936  1.45286260516052 -1.06834040984098
 1  18.63042383498350  2.14292845054505  1.11479948524852
 1  18.90993815411541  0.46314049504951  1.72127212751275
 1  20.59647456015601  0.22649879807981 -0.08266120212021
 1  20.06316042264226  3.18733229512951 -0.64553814721472
 1  21.51591584368437  2.42678933173317 -1.42207357065707
 1  19.76437034143414  2.03655546634663 -1.83440040904090
 1  21.47015299049905  1.08469657875788  2.12293191039104
 1  22.16157786408641  2.00598182788279  0.59222418871887
 1  20.85272500240024  2.76340642394239  1.57410785128513
=======
12 -7.16504707770777  0.61399014711471  0.11597928532853
 6 -4.77005162316232 -1.93780495889589  0.47344387708771
 6 -4.83689361826183  2.93504195149515  1.15709207410741
 6 -9.42123685918592  3.08378387388739 -0.55030789048905
 6 -9.50811112481248 -1.70244575557556 -0.88651508060806
 7 -5.11023444804480  0.50381019911991  0.75611602990299
 6 -4.29798950505051 -0.64720454245425  0.82019004220422
 6 -2.89708871427143 -0.35378480418042  1.33404375857586
 6 -3.01504494289429  1.09883255155516  1.83637436813681
 6 -4.35431242614261  1.59503025182518  1.18265529542954
 6 -3.03197827992799  1.20207249534953  3.44221563046305
 6 -1.93190665166517 -0.62566782818282  0.14342830113011
 6 -0.45040246284628 -0.50386473367337  0.54503863316332
 6  0.51774291149115 -0.66582009490949 -0.57081246174617
 8  0.27092833293329 -1.00194560216022 -1.72826915861586
 8  1.73635544604460 -0.32028942534253 -0.13103989288929
 7 -7.07907835573557  2.59078466826683  0.18524722022202
 6 -6.07242652165217  3.34419539533953  0.73375690929093
 6 -6.48605585868587  4.73344763416342  0.65738642584258
 6 -7.72961566856686  4.90750138163816  0.33083147444744
 6 -8.22051632323232  3.49027822312231  0.02061460776078
 6 -5.62978093479348  5.88079054495450  1.24045880638064
 6 -8.61667946554655  6.04299533323332  0.16238322372237
 6 -8.64718861016102  7.11715783438344  1.00233648344835
 7 -9.12035430803080  0.66044890599060 -0.51273530723072
 6 -9.90204646434643  1.73242319541954 -0.63612993709371
 6 -11.21667076367637  1.48510684978498 -1.20628234773477
 6 -11.15833823772377  0.05465082918292 -1.33545225922592
 6 -9.90561624232423 -0.37317929222922 -0.91746676277628
 6 -12.31945076877688  2.42630320132013 -1.49934670947095
 6 -12.33878842514251 -0.76069347944794 -1.84446525502550
 6 -12.11837932633263 -1.27075948714871 -3.36007112571257
 7 -7.27117658595860 -1.41224083768377 -0.11527620462046
 6 -8.26521676147615 -2.21747691979198 -0.53222817801780
 6 -7.80937708330833 -3.55582384988499 -0.63487076437644
 6 -6.51872575667567 -3.58085242224222 -0.13279501140114
 6 -6.14639723612361 -2.23378165946595  0.06373917811781
 6 -8.59707717511751 -4.76389923232323 -0.93333181158116
 6 -5.34023849414941 -4.33972785628563  0.27884075667567
 8 -5.09543838173817 -5.58830331373137  0.25918294899490
 6 -4.17283086248625 -3.32636842664266  0.57227709300930
 6 -3.47433806470647 -3.66868208950895  1.89092946584658
 8 -3.79444104470447 -3.22270900710071  3.02274495559556
 8 -2.62485367906791 -4.67354207660766  1.85987456835684
 6 -2.06917750565056 -4.96372060116012  3.07071200670067
 6  2.89173168486849 -0.61191898649865 -1.11545274567457
 6  4.23362545154515 -0.37137531383138 -0.49663981298130
 6  5.13225671007101  0.37722398779878 -0.89306907960796
 6  5.14471289428943  1.17646029532953 -2.23764793009301
 6  6.50750508330833  0.44219606980698 -0.16983346854685
 6  7.59701723962396 -0.09967031393139 -0.97995494599460
 6  8.93127500010001 -0.17014214461446 -0.13530534333433
 6  10.16455708020802 -0.63806087778778 -1.06791776227623
 6  10.03187988818882 -2.14910584668467 -1.33623708870887
 6  11.41028390529053 -0.32564634543454 -0.17442657405741
 6  12.79838474617462 -0.50719477057706 -0.75706572947295
 6  13.87274674307431 -0.13057426022602  0.15587265476548
 6  15.39351547644764 -0.22238596769677 -0.54504274407441
 6  15.70700236913691 -1.73003063686369 -0.74857447514751
 6  16.30635474137414  0.53397775777578  0.26767127432743
 6  17.65678026742674  0.58792019041904 -0.24857067166717
 6  18.69364973447345  1.34972318931893  0.68762919591959
 6  20.23169183838384  1.30345067856786  0.24097886108611
 6  20.39629098289829  2.08266656385639 -1.10755174787479
 6  21.16108703950395  1.73177611391139  1.38424378777878
 1 -3.93599508400840  3.39927544894489  1.52556714361436
 1 -9.95948634133413  3.96853768876888 -0.54154954645465
 1 -10.11509479887989 -2.55835517631763 -1.32588924112411
 1 -2.57561401830183 -1.10697901180118  2.01317200840084
 1 -2.07837144234424  1.68231181378138  1.43519416981698
 1 -1.95558001550155  1.04837529042904  3.75727944144414
 1 -3.31872693269327  2.15145920342034  3.66937910331033
 1 -3.65520896359636  0.30267495149515  3.88523093589359
 1 -2.09319180408041 -1.61851181158116 -0.48294220342034
 1 -1.97086875937594  0.34702195259526 -0.58053809340934
 1 -0.26628014541454  0.51820643454345  0.73263366246625
 1 -0.26409421142114 -1.23674819001900  1.21346530173017
 1 -6.09625840124012  6.87850649474947  0.69458516771677
 1 -5.78968595799580  5.95773913701370  2.27982427952795
 1 -4.54473842984298  5.81901306770677  1.09302247784779
 1 -9.42650470297030  5.99320546864686 -0.60932116031603
 1 -9.39494070997100  7.95564630353035  0.96633625542554
 1 -8.00204967076708  7.20209660916092  1.96936532203220
 1 -12.10751485658566  3.30087041304130 -2.11581458615862
 1 -13.17404707390739  1.85534942614261 -2.03244443594359
 1 -12.74375610671067  2.72242089678968 -0.38753999799980
 1 -12.61619639803980 -1.61280072517252 -1.10495545044504
 1 -13.23775249414942 -0.07090382718272 -1.92990851835184
 1 -13.26197254985498 -1.85951063726373 -3.47169705420542
 1 -11.96694025822582 -0.35985052265227 -3.95172866856686
 1 -11.29137541684169 -1.94455932303230 -3.43067168716872
 1 -9.04035363836384 -4.99741048394840 -1.90163342744274
 1 -7.85118448324832 -5.57566757095710 -0.82568218121812
 1 -9.28477836273627 -4.80848586988699 -0.05875769836984
 1 -3.50985168106811 -3.61923517421742 -0.17439271077108
 1 -1.74670283678368 -4.12762920262026  3.67951086638664
 1 -2.92009161776178 -5.80214183178318  3.63010584948495
 1 -1.20370848234823 -5.45028430163016  2.80561451435144
 1  2.81201050515051 -1.79575141104110 -1.31598556355636
 1  2.86399387698770  0.07346162576258 -1.95172832503250
 1  4.32749365496550 -1.11737395259526  0.15877909390939
 1  4.00524948844884  1.33329203960396 -2.55743411311131
 1  5.44247965966597  2.25388564746475 -2.11081754995500
 1  5.60670797839784  0.72602370987099 -3.02160089108911
 1  6.57413947684768  1.60984498449845 -0.10480783798380
 1  6.51731585098510  0.28470043264326  0.87085680238024
 1  7.39791717641764 -1.03930316551655 -1.31668299189919
 1  7.86537897379738  0.64269747784778 -1.85277820142014
 1  9.17869992159216  0.96858474347435  0.34816244844484
 1  8.78221671037104 -0.94112961916192  0.63364122782278
 1  10.30351790319032  0.07269980768077 -1.98529341884188
 1  8.99994497999800 -2.48119609610961 -1.77776370117012
 1  10.82652520822082 -2.41258804270427 -2.15180942484248
 1  10.35864875087509 -2.80945288728873 -0.41282072177218
 1  11.50933861476148  0.62078430863086  0.29654114161416
 1  11.28019107250725 -1.05147110841084  0.69584020562056
 1  12.89271259015902 -1.38487664886489 -1.02415008260826
 1  13.03430718321832  0.05195588658866 -1.69215257655766
 1  13.60621205790579  0.93478603460346  0.42220956395640
 1  14.06578933203320 -0.69986959165917  1.18336485298530
 1  15.26531982048205  0.30140962596260 -1.57060141814181
 1  15.72066950985099 -2.21758205030503  0.11397994409441
 1  14.88563161386139 -2.30138251385139 -1.20976839193919
 1  16.69610924032403 -1.71671719661966 -1.31217268676868
 1  15.78610381108111  1.60786862056206  0.22553909820982
 1  16.05875032223222  0.05377620252025  1.21127388858886
 1  18.04761570027003 -0.35202174957496 -0.40823416381638
 1  17.84813187768777  0.97551487038704 -1.32220579637964
 1  18.41476226882688  2.43720787848785  0.76821482678268
 1  18.52050921122112  0.84521870287029  1.77762776307631
 1  20.52348726142614  0.17726387458746 -0.13669660566057
 1  20.13430753735373  3.17564112601260 -0.98573216661666
 1  21.59862411451145  1.72219887268727 -1.48816017931793
 1  19.92484638903890  1.68352016281628 -1.85990295929593
 1  21.12770874607461  1.21287939703970  2.34289390659066
 1  22.20281198749875  1.76756798649865  1.08139310561056
 1  21.06561629152915  2.85246532983298  1.50476091659166
>>>>>>> 8e03b5b5abfc0030b3aa597dc0de36371bfbd096

