%nproc=4
%Mem=2GB
# td=(NStates=1) CAM-B3LYP/6-31G(d,p) 

TD

0 1
12 -7.20339091209121  0.61236998509851  0.05629331673167
 6 -4.84711932993299 -1.94412559095910  0.54139067176718
 6 -4.86001593049305  2.83092153945395  1.20703706860686
 6 -9.48040277577758  3.10545604110411 -0.36685954565457
 6 -9.57407772147215 -1.72375788678868 -0.78118454755476
 7 -5.17694111871187  0.41716153425343  0.75078549684968
 6 -4.37956766286629 -0.66808663066307  0.77473549674968
 6 -2.90958996439644 -0.30063948964896  1.27650800500050
 6 -3.05764920332033  1.18007067536754  1.63038376907691
 6 -4.45021201610161  1.48312906170617  1.16372340224022
 6 -2.85170025212521  1.37210949904990  3.27440884978498
 6 -1.92084554555456 -0.52477773917392  0.09484344264426
 6 -0.42722014461446 -0.21691603880388  0.52457658695870
 6  0.49984112131213 -0.54143765666567 -0.58259363986399
 8  0.19670091019102 -0.88352375997600 -1.72241857355736
 8  1.77714952545255 -0.55857325372537 -0.18406519541954
 7 -7.10907135503550  2.61936752655266  0.30171886738674
 6 -6.14014329332933  3.38735971177118  0.80780431403140
 6 -6.49739699279928  4.72167645704570  0.77088777597760
 6 -7.71265397239724  4.86854748624862  0.23258164946495
 6 -8.17451172277228  3.49156835213521 -0.01982943664366
 6 -5.58566652335234  5.83208567446745  1.14970973147315
 6 -8.63212100970097  5.95744677837784  0.17736472187219
 6 -8.42987687898790  7.09628574717472  0.88786503630363
 7 -9.20284255685569  0.68883174427443 -0.54486852055206
 6 -9.92591885158516  1.82860281338134 -0.64983130723072
 6 -11.17222631923192  1.40646898599860 -1.15678739823982
 6 -11.13087549144914 -0.01497613351335 -1.34698341234123
 6 -9.87060274097410 -0.35850782508251 -0.92009702580258
 6 -12.26513533723372  2.30099067006701 -1.40580735553555
 6 -12.32308685498550 -0.78226563666367 -1.74308511701170
 6 -12.31428891729173 -1.21905431663166 -3.08815393399340
 7 -7.22969243754376 -1.45081469506951 -0.16728140514051
 6 -8.22649288908891 -2.20947611971197 -0.57198215341534
 6 -7.80798694429443 -3.61345961346135 -0.54315159245925
 6 -6.48770265436544 -3.56524086108611 -0.03357508940894
 6 -6.21110370677068 -2.22684096539654  0.21459426362636
 6 -8.57852531993199 -4.85003784618462 -0.94154263266327
 6 -5.26080055035504 -4.33775765926593  0.15306817941794
 8 -5.15151398929893 -5.56632111551155  0.13720075077508
 6 -4.04591817121712 -3.29060485028503  0.56422628792879
 6 -3.38168879977998 -3.65187040834083  1.81451182408241
 8 -3.67826942754275 -3.14152088828883  2.88906158725873
 8 -2.40886207990799 -4.60878560096010  1.71674025492549
 6 -1.84326491439144 -4.97752198129813  2.90718565406541
 6  2.71782429412941 -0.67921571617162 -1.23330453085309
 6  4.07201929092909 -0.38793696999700 -0.51167131613161
 6  5.14082756715672  0.40133639903990 -1.01917168986899
 6  5.02965138813881  1.08370101940194 -2.37339150445044
 6  6.42404673747375  0.51802365256526 -0.26905339053905
 6  7.55467300520052 -0.23882422932293 -0.88476542704270
 6  8.83380525312531  0.10178504810481 -0.13485529832983
 6  10.07188781328133 -0.56784385608561 -0.84319529002900
 6  9.91154785498550 -2.05484642074207 -1.24255772077208
 6  11.37549042594259 -0.28353213401340  0.01901276987699
 6  12.81737664536454 -0.44982903400340 -0.71633165606561
 6  14.00552002040204 -0.10870207300730  0.17236430393039
 6  15.37049317421742 -0.26416014511451 -0.48053629342934
 6  15.61849351825182 -1.76186382018202 -0.93496311401140
 6  16.52212631853185  0.21845620562056  0.37970247744774
 6  17.80152474187419  0.31758315671567 -0.16377219181918
 6  18.71398176767677  1.18309652665267  0.67576800980098
 6  20.29443811301130  1.32313264676468  0.28097286048605
 6  20.45257661146115  2.11906020322032 -1.01965295799580
 6  21.09412034283428  1.98678161446145  1.33271863526353
 1 -4.13619510401040  3.71504702610261  1.48675326222622
 1 -10.17883827652765  3.96685752075207 -0.56467185868587
 1 -10.25248853825383 -2.49408874967497 -0.91181783398340
 1 -2.49253571047105 -0.92886120002000  2.04203489468947
 1 -2.19971357655766  1.81344492709271  1.24999564996500
 1 -1.97023148064806  0.95864631753175  3.74933864736474
 1 -2.94042910291029  2.49632368986899  3.46360852625263
 1 -3.78703214591459  1.00321500550055  3.87701011381138
 1 -1.92469495439544 -1.67395735613561  0.07145323612361
 1 -2.18464013651365  0.06942419281928 -0.74220426002600
 1 -0.19049256665667  0.72712732663266  0.96121652075208
 1 -0.19259706170617 -0.76108062326233  1.37798175337534
 1 -5.81841061646165  6.74370301440144  0.69956566576658
 1 -5.84169115851585  6.26935029812981  2.12846914401440
 1 -4.58552250825083  5.41395256165617  0.98870204580458
 1 -9.47283933643364  5.93190933903390 -0.43773400160016
 1 -9.18897011291129  7.78233897279728  1.00007962976298
 1 -7.72251171697170  7.32680908040804  1.75476386188619
 1 -11.93463756885689  3.00741106710671 -2.23402640734073
 1 -13.23679334853485  1.79747363856386 -1.59288047954795
 1 -12.44638636973697  3.02420107480748 -0.70411165516552
 1 -12.23048782718272 -1.96568601370137 -1.39924487938794
 1 -13.18490720962096 -0.30229696649665 -1.46526205370537
 1 -13.26384273687369 -1.85531021722172 -3.11191107560756
 1 -12.43394695889589 -0.35328986658666 -3.89056255195520
 1 -11.61628790809081 -1.84432930003000 -3.67523614361436
 1 -8.84201380438044 -5.10092083498350 -1.83299656375638
 1 -8.07938730353035 -5.75784578877888 -0.69524913791379
 1 -9.47474735963596 -5.14722974427443 -0.28799062166217
 1 -3.12535323122312 -3.11995524622462 -0.24136940844084
 1 -1.49353752025203 -4.04898133783378  3.68684159945995
 1 -2.61089069766977 -5.60503212081208  3.67757059595960
 1 -0.91498961046104 -5.58291756495650  2.47865181808181
 1  2.87128643274327 -1.79989182508251 -1.78766273127313
 1  2.55371284888489  0.13925820542054 -1.98349150135014
 1  4.13531443704370 -0.71438365356536  0.53300651665167
 1  3.92052101560156  0.91807051745175 -2.71509987968797
 1  5.21928734043404  2.15870612951295 -2.32532900110011
 1  5.61391869946995  0.73332443994399 -3.09288801980198
 1  6.70885294819482  1.57246124612461 -0.04101145834583
 1  6.40457457685769  0.03803576617662  0.63742345904590
 1  7.29214659935994 -1.29888912411241 -0.87158848244824
 1  7.89854229012901  0.18762197029703 -1.88008093169317
 1  9.17552960456046  1.08679656465647  0.00559819201920
 1  8.92825131383138 -0.27495300150015  0.94722258595860
 1  10.14889244064406 -0.00230769306931 -1.80665555505551
 1  9.25896088158816 -2.32775075157516 -1.97424334913491
 1  10.91781433713371 -2.36210299419942 -1.57309155305531
 1  9.89782266826683 -2.84525646764676 -0.34844428412841
 1  11.37942562346235  0.49301153135313  0.48856034353435
 1  11.17691074447445 -0.86990295159516  0.92125274687469
 1  12.87344066296630 -1.52141030223022 -0.98060572817282
 1  12.64647840034003  0.22692338333833 -1.65815917721772
 1  13.81133256995700  0.95784834083408  0.54129147214721
 1  13.76809956305631 -0.64200380508051  0.96420293679368
 1  15.22249553805380  0.41317080208021 -1.31280563856386
 1  15.44493193609361 -2.25403569566957  0.21737028312831
 1  14.80430348104811 -2.30708308390839 -1.65728314341434
 1  16.75978560796080 -1.72476800170017 -1.10311178067807
 1  16.14236943764377  1.09476731043104  0.70828737303730
 1  16.51167561476148 -0.24699387448745  1.32715547674767
 1  18.19899083778378 -0.78804535193519 -0.31077441784178
 1  17.65607267176718  0.70236755565557 -1.28038161396140
 1  18.27547834043404  2.12366652435243  0.84308231353135
 1  18.71035819611961  0.84312849384938  1.75415541584158
 1  20.81453636633663  0.39816596479648  0.09563662766277
 1  20.06212031863186  3.10377393929393 -1.21817541094109
 1  21.62336658875888  2.09062571537154 -1.34891625492549
 1  19.75259916431643  1.57415922672267 -1.75112208120812
 1  20.83891986718672  1.27862597169717  2.14426404360436
 1  22.10970267656765  1.85306653635363  1.20777574387439
 1  20.75038476837684  2.95397548084808  1.91907234773477

