%nproc=4
%Mem=3GB
# td=(NStates=1) iop(3/107=0140000000,3/108=0140000000) CAM-B3LYP/6-31G(d,p) 

TD

0 1
12 -7.09701439313931  0.69547793129313  0.06483285328533
 6 -4.77752656915692 -1.89584681528153  0.46912231463146
 6 -4.80516654725473  2.92099081698170  1.12963306850685
 6 -9.45019178367837  3.09226677967797 -0.20316279157916
 6 -9.56187228522852 -1.78199996569657 -0.80049685458546
 7 -5.11966899809981  0.52717880848085  0.66087391139114
 6 -4.42262450975098 -0.70976211941194  0.84742263696370
 6 -2.92389861046105 -0.34569296729673  1.18238390749075
 6 -3.01015424232423  1.17439614121412  1.67789406870687
 6 -4.43944417911791  1.59763441454145  1.07341173507351
 6 -2.98449463026303  1.20559337863786  3.18572388698870
 6 -1.88677440714071 -0.53069905910591  0.11941575187519
 6 -0.37858356755676 -0.31893514151415  0.52206558885889
 6  0.49422134533453 -0.66699332123212 -0.68858864896490
 8  0.16917713451345 -0.95583936163616 -1.79606699979998
 8  1.82122072047205 -0.31728166656666 -0.21942733033303
 7 -7.21789943334333  2.64321753165317  0.42066299039904
 6 -6.13527367116712  3.38487225462546  0.74143001910191
 6 -6.40694560296030  4.81494835843584  0.68203646234623
 6 -7.78166295159516  4.83575538073807  0.34262038843884
 6 -8.13145267276728  3.53127006580658  0.04691268986899
 6 -5.50578261216122  5.97171664536454  1.09851000620062
 6 -8.53857386538654  6.03103337293729  0.02797340984098
 6 -8.40618902890289  7.29768891859186  0.61642570187019
 7 -9.17248628972897  0.67578457285729 -0.40681725562556
 6 -9.96255374167417  1.76947027132713 -0.42248506200620
 6 -11.28291224392439  1.42277172167217 -1.00230509020902
 6 -11.21501098829883  0.01957950375038 -1.21244127242724
 6 -9.94326192979298 -0.44553474687469 -0.76137833913391
 6 -12.43128406610661  2.30033527492749 -1.15813526622662
 6 -12.33805759865987 -0.84927105090509 -1.74982431303130
 6 -12.12613452235224 -1.31529172147215 -3.18024867606761
 7 -7.14528749114911 -1.34040887658766 -0.10566324142414
 6 -8.22637696399640 -2.26667521302130 -0.46743832373237
 6 -7.79623166296630 -3.62394294569457 -0.53751405120512
 6 -6.41053884438444 -3.51700468256826 -0.14327640934093
 6 -6.10011374307431 -2.16731468726873  0.09687152255226
 6 -8.70836317581758 -4.79503560196020 -0.83136651975198
 6 -5.27279274217422 -4.29122268566857  0.14000897499750
 8 -5.15564655695570 -5.52190904790479  0.21625757435744
 6 -4.10282478507851 -3.27665511291129  0.48004632623262
 6 -3.45226940374037 -3.70631857455746  1.87847381588159
 8 -3.76731951535154 -3.17291464936494  2.94205756395640
 8 -2.68948430123012 -4.82419103760376  1.71304034153415
 6 -2.18570752775278 -5.37364257015702  2.95782318271827
 6  2.83877019741974 -0.48440672957296 -1.33234675187519
 6  4.12083296849685 -0.41243651155116 -0.63780634343434
 6  5.19678516981698  0.42022855085509 -1.08173105010501
 6  5.17375110071007  1.23220089538954 -2.36500063506351
 6  6.37730400910091  0.53449406540654 -0.24164468886889
 6  7.63706515911591  0.08001945394539 -1.01487181588159
 6  8.90058777037704 -0.03391520762076 -0.12410851325133
 6  10.12368782938294 -0.57847951115111 -0.89137485748575
 6  10.01856513311331 -1.99230711061106 -1.41066803280328
 6  11.46707137093709 -0.27950284138414 -0.05444340684068
 6  12.68179591509151 -0.70805083858386 -0.77129463456346
 6  14.04431570337034 -0.33740945524552  0.17115352695270
 6  15.33953994499450 -0.27030611421142 -0.55929158165817
 6  15.84868113911391 -1.74503289158916 -0.91200302660266
 6  16.32830982368237  0.26623314061406  0.44202893759376
 6  17.77386497419742  0.43608733833383 -0.15674220122012
 6  18.72749316791679  1.17679575807581  0.82606586328633
 6  20.24224702910291  1.33003243574357  0.37420412641264
 6  20.42772561836184  2.23635094019402 -0.83206790269027
 6  21.04863993099310  1.71323302320232  1.46108004800480
 1 -4.08028839233923  3.66126937833783  1.29012510831083
 1 -10.31823394669467  3.99016129062906 -0.46796132233223
 1 -10.26537096119612 -2.56799233433343 -1.11106892629263
 1 -2.63614090129013 -1.14939514221422  1.97009350005001
 1 -2.11875534183418  1.62635469656966  1.02268591759176
 1 -2.23471655805581  0.80658976537654  3.46541687908791
 1 -3.39725683478348  2.38197742054205  3.44686270847085
 1 -3.93541634213421  0.81708686298630  3.63375506070607
 1 -1.91420653965396 -1.39455012581258 -0.32081008810881
 1 -2.08917528652865  0.13116073587359 -0.81073780838084
 1 -0.24580000870087  0.76639622692269  0.82058592159216
 1 -0.20112853315332 -0.99103987058706  1.48270172847285
 1 -5.89577375507551  6.81554906690669  0.64816464776478
 1 -5.56909838113811  6.39459234063406  2.12048406090609
 1 -4.54729957455746  5.64067833583358  1.01829256185619
 1 -9.29637989778978  5.64893827582758 -0.74505585828583
 1 -9.00691975567557  8.29195891689169  0.24340411611161
 1 -7.82735066716672  7.26469330573057  1.41947090739074
 1 -12.09750022302230  3.18257740484048 -1.66646247774778
 1 -13.21377867556756  1.92195093749375 -1.86530225842584
 1 -12.87536856955696  2.72553988808881 -0.17846828632863
 1 -12.29749171407141 -1.71983290609061 -1.13184668556856
 1 -13.24278657775778 -0.22151486198620 -1.53942969736974
 1 -12.92995819501950 -2.18841250335034 -3.51685264336434
 1 -12.09429983568357 -0.65921439273927 -4.02063104150415
 1 -11.16098093749375 -1.80082110931093 -3.26768504670467
 1 -9.11482610121012 -4.80316681748175 -1.64205026802680
 1 -7.92391677687769 -5.65763171647165 -0.84169412451245
 1 -9.65128930793079 -5.06956540494049 -0.05156742544254
 1 -3.30132765126513 -3.52366897249725 -0.22812055015502
 1 -1.81462485008501 -4.63045525892589  3.60681239883988
 1 -2.99091552885288 -6.04925445034504  3.52463350105010
 1 -1.31413193369337 -5.91362214701470  2.49741310241024
 1  2.68243629842984 -1.58294491729173 -1.81944339303930
 1  2.65169161046105  0.40929901470147 -2.18623968146815
 1  4.43270375707571 -1.06578499229923  0.02645404560456
 1  4.18769408090809  1.37820336303630 -2.63112359805981
 1  5.65829276147615  2.20685110901090 -2.31070850925093
 1  5.62191175967597  0.74966615751575 -3.26896315321532
 1  6.53838202210221  1.50471045164516  0.37268688258826
 1  6.24265213731373 -0.21393873057306  0.47973416891689
 1  7.43040516331633 -0.91097177017702 -1.67202195939594
 1  7.87531008950895  0.92901200420042 -1.81042186508651
 1  9.14019006330633  0.87225672317232  0.52404483258326
 1  8.46406952775278 -0.81709006170617  0.81266739013901
 1  10.13960859265927 -0.06384023622362 -1.75708086608661
 1  9.20182979207921 -2.19028731223122 -2.20381876377638
 1  10.68124726532653 -2.37144054335434 -2.15506086418642
 1  10.02851504860486 -2.74879899459946 -0.66584397809781
 1  11.46154779637964  0.79372580598060  0.20294806560656
 1  11.34834242974298 -1.04088538613861  0.75023134323432
 1  12.62623057555756 -1.57103452275227 -1.01906417791779
 1  12.85881171107111  0.03887882388239 -1.73487782148215
 1  13.73737515781578  0.62290765406541  0.82206703540354
 1  13.88420673127313 -1.05094147304730  0.98489086308631
 1  15.27197759915992  0.34017741474147 -1.43156442524252
 1  16.31739553635364 -2.31180052125213  0.07581944644464
 1  14.88332997739774 -2.30629514951495 -1.49156052955296
 1  16.72714099369937 -1.77028792579258 -1.38859537283728
 1  16.12420569406941  1.19858819251925  1.06720263656366
 1  16.39636371417142 -0.20797708250825  1.35254374907491
 1  18.05737247494750 -0.58959547354735 -0.39631982758276
 1  17.66364367396740  0.93456235033503 -1.10241598519852
 1  18.42998205510551  2.20247151515152  0.99482142894289
 1  18.78129409190919  0.47998283778378  1.65824907040704
 1  20.67343717601760  0.26578757635764  0.01983787598760
 1  20.24770158865887  3.26961773827383 -0.33256544124412
 1  21.56005980678068  2.01815295739574 -1.07366534773477
 1  19.94031242884288  2.02843313351335 -1.80542892729273
 1  21.31115496899690  1.05565120602060  2.41667533633363
 1  21.98862675547555  2.07679815051505  1.05189184278428
 1  20.66108618711871  2.75337145434543  1.87088422512251

