%nproc=4
%Mem=2GB
# td=(NStates=1) CAM-B3LYP/6-31G(d,p) 

TD

0 1
12 -7.13548412141214  0.59699844794479  0.08237592499250
 6 -4.85761037903790 -1.88514969336934  0.50167670037004
 6 -4.92756268516852  2.81061950925092  1.21983834873487
 6 -9.44573930943094  3.09798529402940 -0.36852971267127
 6 -9.49947026072607 -1.77319283028303 -0.91680810991099
 7 -5.23786721132113  0.35650546864686  0.79518993729373
 6 -4.36865657175718 -0.68519834183418  0.81925994919492
 6 -2.97648665406541 -0.31025045074507  1.19572992719272
 6 -3.04595803420342  1.16870953925393  1.66763749444944
 6 -4.48774576947695  1.55344609340934  1.19000603050305
 6 -2.92884796689669  1.29264155225523  3.22516392529253
 6 -1.95825928692869 -0.57780304170417  0.09011296959696
 6 -0.52411983458346 -0.42121646884688  0.49896402570257
 6  0.50610174737474 -0.72309582248225 -0.55574095459546
 8  0.19779101920192 -1.18313372097210 -1.65097142884288
 8  1.74735654615462 -0.58546594299430 -0.14882167106711
 7 -7.15304575247525  2.60740633043304  0.20802949844985
 6 -6.11439071807181  3.33447442324232  0.72001553515352
 6 -6.47294454755476  4.69996428582858  0.81710239743974
 6 -7.66619932693269  4.81125175667567  0.30895928722872
 6 -8.13751802340234  3.47453664896490 -0.04917237093709
 6 -5.55105306200620  5.73357582348235  1.34123888438844
 6 -8.51700949854985  6.05660669436944  0.08688567396740
 6 -8.48474236553655  7.25021113971397  0.74862111191119
 7 -9.08978125072507  0.57838069916992 -0.55157919161916
 6 -9.89866612631263  1.78186813991399 -0.66843316741674
 6 -11.16353545014501  1.44625296439644 -1.16639835933593
 6 -11.19515191909191  0.09842520662066 -1.31109982398240
 6 -9.89096477717772 -0.49237121142114 -0.92001701780178
 6 -12.25059388308831  2.43714428542854 -1.41837861266127
 6 -12.29583412971297 -0.66245365546555 -1.80443125162516
 6 -12.29947743614361 -1.23077548874887 -3.17205232383238
 7 -7.22740220852085 -1.40335994959496 -0.24210888788879
 6 -8.20478071787179 -2.22896806890689 -0.60982593779378
 6 -7.80398654425443 -3.59764803230323 -0.56360363766377
 6 -6.47313119721972 -3.55490982798280 -0.08578030993099
 6 -6.14707730413041 -2.21421970327033  0.02927573177318
 6 -8.55259272667267 -4.84185702810281 -0.82221069946995
 6 -5.26240071037104 -4.37467135063506  0.16458933153315
 8 -4.99510834873487 -5.54501898529853  0.17380441114111
 6 -4.17565114451445 -3.19879566936694  0.58805867116712
 6 -3.49257988888889 -3.62425764706471  1.92504287718772
 8 -3.71351295189519 -3.02874961116112  2.93781646274627
 8 -2.63634482818282 -4.58831355375538  1.76446502740274
 6 -2.02387297519752 -5.06683091219122  3.04194913041304
 6  2.83877638933893 -0.69260705530553 -1.18545974637464
 6  4.11140322932293 -0.40581875817582 -0.43086323532353
 6  5.07278076247625  0.43708997439744 -0.84780455315532
 6  4.93201162416242  1.24709735903590 -2.19533369866987
 6  6.39260359315932  0.51881373157316 -0.07292377757776
 6  7.61441897979798 -0.03722406930693 -0.88132508300830
 6  8.94523639623962  0.03093796339634 -0.11915372817282
 6  10.12500312481248 -0.44217128882888 -0.85869684018402
 6  9.94273097329733 -1.95597653375338 -1.36436990199020
 6  11.39930280718072 -0.35844962576258 -0.05812494389439
 6  12.81299620732073 -0.56808085918592 -0.73250327322732
 6  13.96929639803980 -0.17993919671967  0.21209827732773
 6  15.29327545244525 -0.20433416251625 -0.51548978877888
 6  15.72191386028603 -1.67754538833883 -0.88861847954796
 6  16.40651475737574  0.43535789578958  0.38169267646765
 6  17.69663425282528  0.54587598599860 -0.28208402300230
 6  18.87940831033103  1.12093031003100  0.70163059605961
 6  20.24322299149915  1.23950428392839  0.09382414561456
 6  20.39675102890289  2.23419171637164 -1.07251824452445
 6  21.17800873167317  1.68308124442444  1.27925328872887
 1 -4.33377486198620  3.78987450885089  1.52733732063206
 1 -10.25821621432143  3.79933076807681 -0.36163155465547
 1 -10.08491178057806 -2.72698203900390 -1.29682633483348
 1 -2.70834729162916 -0.92181049494949  2.06496718791879
 1 -2.26326993219322  1.78315189778978  1.17399805020502
 1 -1.91748620612061  0.92946339923992  3.49818353185318
 1 -3.09560462046205  2.32898695619562  3.52915508090809
 1 -3.78860230293029  0.73814849884988  3.76898931173117
 1 -2.07541002590259 -1.58025798619862 -0.45778968816882
 1 -2.13806547904790  0.17880513091309 -0.73120315991599
 1 -0.40677419481948  0.55078969286929  0.89100950005000
 1 -0.45678348034803 -1.11931644684468  1.35094905010501
 1 -5.72950172557256  6.59736838093809  0.77129283848385
 1 -5.81020801020102  5.90170353345334  2.42688898599860
 1 -4.52249620562056  5.59436060246025  1.31018419401940
 1 -9.24943699619962  6.02950909900990 -0.71909213741374
 1 -9.15379659555956  7.96997773667367  0.50468008980898
 1 -7.37149661546155  7.59838623812381  1.37664605010501
 1 -12.15323942904290  3.21275160116012 -2.10324332903290
 1 -13.10730039923992  1.95838973017302 -1.51557274877488
 1 -12.61714344544455  3.02956161086109 -0.44372561656166
 1 -12.38583336173617 -1.53001244634463 -1.02718767366737
 1 -13.10415913481348 -0.17017375417542 -1.66043157065707
 1 -13.19087544014402 -1.98389307550755 -3.31482136663666
 1 -12.57435099929993 -0.38489302690269 -3.93910740644064
 1 -11.39255553485349 -1.55774064116412 -3.60378899889989
 1 -9.10516011901190 -4.76332707560756 -1.73989725382538
 1 -7.66657602240224 -5.51751175537554 -1.02892250525053
 1 -9.28788867376738 -5.40099512081208  0.05884406180618
 1 -3.47278797469747 -3.61626487718772 -0.16188145964596
 1 -1.62749091559156 -4.16537297699770  3.52406532183218
 1 -2.67988759735974 -5.48736035363536  3.68539137803780
 1 -1.23879199069907 -5.84432370557056  2.78432238513851
 1  2.75479478357836 -1.72790462636264 -1.71473543854385
 1  2.66690416801680  0.10115439503950 -1.99430258245825
 1  4.46633753935394 -0.90424263946395  0.68872208820882
 1  4.02462142564256  1.27748645904590 -2.56914528422842
 1  5.34078949064907  2.24413467236724 -1.98901536973697
 1  5.58345565316532  1.20262136963696 -2.99982871387139
 1  6.69832189508951  1.51191519151915  0.14796743954395
 1  6.50661478087809  0.09707166976698  1.01752146884688
 1  7.58825621032103 -1.21706094129413 -1.22439376297630
 1  7.82159459535954  0.50532374047405 -2.04099702330233
 1  8.98937098869887  1.12266015101510  0.16424405660566
 1  8.66187467616762 -0.48983448964896  0.79182704640464
 1  10.29819737113711 -0.07191465376538 -1.77072196169617
 1  9.15872085758576 -2.13862183868387 -2.00007593239324
 1  10.91187374307431 -2.18710549444944 -1.94295853975398
 1  10.07767065306531 -2.62194413641364 -0.49226866656666
 1  11.47055473637364  0.53379560976098  0.54766625412541
 1  11.32128518191819 -0.93972993429343  0.92528314991499
 1  12.90496381528153 -1.68177633883388 -1.08965663326333
 1  12.91050480298030 -0.16775608460846 -1.71681504280428
 1  13.74002543924392  0.93703625962596  0.45750309330933
 1  14.11856460956096 -0.78134773947395  1.04252076857686
 1  15.35358864736474  0.27637712271227 -1.53495785378538
 1  15.50894833773377 -2.28554884698470  0.10633918001800
 1  14.94000705140514 -2.16111848744875 -1.43103051815182
 1  16.78653828322832 -1.91707723262326 -1.12920438993899
 1  15.94544974567457  1.36152398609861  0.80325686998700
 1  16.61399584678468 -0.13316249134913  1.32612537373737
 1  18.03605454415441 -0.42104865226523 -0.43813715411541
 1  17.64129119361936  1.45286260516052 -1.06834040984098
 1  18.63042383498350  2.14292845054505  1.11479948524852
 1  18.90993815411541  0.46314049504951  1.72127212751275
 1  20.59647456015601  0.22649879807981 -0.08266120212021
 1  20.06316042264226  3.18733229512951 -0.64553814721472
 1  21.51591584368437  2.42678933173317 -1.42207357065707
 1  19.76437034143414  2.03655546634663 -1.83440040904090
 1  21.47015299049905  1.08469657875788  2.12293191039104
 1  22.16157786408641  2.00598182788279  0.59222418871887
 1  20.85272500240024  2.76340642394239  1.57410785128513

