%nproc=4
%Mem=3GB
# td=(NStates=1) iop(3/107=0140000000,3/108=0140000000) CAM-B3LYP/6-31G(d,p) 

TD

0 1
12 -7.19449414111411  0.52096047954795  0.06007237723772
 6 -4.79185800230023 -1.90214744534453  0.37157255965597
 6 -4.79068509910991  2.84134285218522  1.20073017821782
 6 -9.34827159165917  3.05261281428143 -0.43620609590959
 6 -9.51638773677368 -1.68444020972097 -0.88024482938294
 7 -5.10945797699770  0.41532762336234  0.68610643464346
 6 -4.31232347964797 -0.74716585978598  0.67654554925493
 6 -2.87084330493049 -0.38084648264826  1.16177184628463
 6 -3.07714094099410  1.07232593419342  1.66270254955496
 6 -4.51191142584258  1.47869252035203  1.22404679857986
 6 -2.97817399819982  1.26867968726873  3.25473078767877
 6 -1.90795652535254 -0.51939792899290  0.02630644094409
 6 -0.53413912311231 -0.29242249024902  0.57065044734473
 6  0.47059898309831 -0.56986360826083 -0.56339612971297
 8  0.20371058785879 -0.91791556925693 -1.69032642574257
 8  1.75583418181818 -0.36796673507351 -0.19931531913191
 7 -7.12020966436644  2.62592580248025  0.28446937103710
 6 -6.12322246604661  3.37304107150715  0.85995187128713
 6 -6.44261917031703  4.75132199579958  0.81814007270727
 6 -7.75314009930993  4.82112391759176  0.29616574297430
 6 -8.19060858835884  3.48251519031903  0.02504050265027
 6 -5.51098313221322  5.87982745644564  1.19919007420742
 6 -8.61559156715671  6.01576184578458  0.14260487298730
 6 -8.43028143814381  7.24052320202020  0.77401146044604
 7 -9.11135017611761  0.68855584998500 -0.65170174407441
 6 -9.85674316061606  1.75951927622762 -0.73703651715172
 6 -11.24718867156716  1.47972741724172 -1.11515637533753
 6 -11.31321080828083  0.11263880968097 -1.18797882618262
 6 -9.91935953955396 -0.36875706910691 -0.90082228352835
 6 -12.37944888258826  2.36833207460746 -1.30348980168017
 6 -12.45316910981098 -0.82099822362236 -1.65984531513151
 6 -12.31065297419742 -1.06149634193419 -3.19292994419442
 7 -7.20007296969697 -1.36284111981198 -0.15655833093309
 6 -8.19448377467747 -2.16212475797580 -0.64792637253725
 6 -7.82514455425543 -3.55891644304430 -0.53192349214921
 6 -6.47901569206921 -3.50518350045005 -0.15121720342034
 6 -6.16676040774077 -2.19782773857386  0.11730356575658
 6 -8.48929126862686 -4.78250434883488 -0.88434181728173
 6 -5.34724018691869 -4.37604116751675  0.23726870097010
 8 -5.17633862616262 -5.57274413141314  0.28602455105511
 6 -4.08656315891589 -3.31386883428343  0.54465278687869
 6 -3.49449362616262 -3.66842478517852  1.88200416891689
 8 -3.70107289068907 -3.12359971787179  2.93389674787479
 8 -2.70502585538554 -4.83595221372137  1.68051708920892
 6 -2.04691364836484 -5.19470467636764  2.99954735513551
 6  2.79897621802180 -0.55564385328533 -1.20378389558956
 6  4.07358824402440 -0.43779904780478 -0.52254481728173
 6  5.14833032433243  0.40957748574857 -0.90832370937094
 6  5.11146487208721  1.39181685698570 -2.08312244724472
 6  6.38770504920492  0.39930054605461 -0.10421094549455
 6  7.58839029162916 -0.20824937293729 -0.83165349404940
 6  8.86675438703870 -0.20697251335134 -0.03480958335834
 6  10.13785924652465 -0.65239690289029 -0.79981570157016
 6  10.08060133673367 -2.12206008590859 -1.38595556155616
 6  11.49417408120812 -0.37646253735374 -0.08066602910291
 6  12.85870360586059 -0.55696573007301 -0.70842834793479
 6  13.94301557335734 -0.08349406370637  0.14900131173117
 6  15.42687867886789 -0.27593667726773 -0.44611026352635
 6  15.63950022102210 -1.79530791909191 -0.77122894919492
 6  16.45649264196420  0.37693421072107  0.43858859355936
 6  17.80052764046405  0.59073280288029 -0.22501902890289
 6  18.83643406200620  1.21058913741374  0.64425768246825
 6  20.34386719111911  1.30148958145815  0.14963166916692
 6  20.32389523532353  1.97265457055706 -1.14715941184118
 6  21.14919998699870  1.94034573447345  1.32262620262026
 1 -4.05808617211721  3.56177942934294  1.52465856165617
 1 -10.10336245954595  3.89292156665667 -0.85095962216222
 1 -10.22263668776878 -2.59419495459546 -1.19062688208821
 1 -2.86522380958096 -0.99047925062506  1.98711520222022
 1 -2.10333379967997  1.76186824792479  1.34281793079308
 1 -1.98948203460346  0.69277838423842  3.45554589198920
 1 -3.18620572967297  2.26324554735473  3.57051507370737
 1 -3.60927372787279  0.44181933623362  3.59888157335733
 1 -1.89395451445144 -1.59581025182518 -0.21150915801580
 1 -2.00036640564056  0.18493611341134 -0.72806954155416
 1 -0.39180460916092  0.67503709100910  0.85431929492949
 1 -0.21922034233423 -0.82558332493249  1.42666612491249
 1 -5.80021419911991  6.75160267226723  0.63384321562156
 1 -5.87338881018102  6.01528440984098  2.39883189568957
 1 -4.45304014861486  5.72530679867987  0.98085881848185
 1 -9.39902016181618  5.82791617361736 -0.48763011571157
 1 -8.94769383308331  8.08033775477548  0.26109588528853
 1 -7.59674760686069  7.53918075447545  1.44511347164716
 1 -12.29502997599760  3.02402154925493 -2.32540837233723
 1 -13.25073237093709  1.92817155955596 -1.48082381058106
 1 -12.58966999969997  3.15728306240624 -0.48892933243324
 1 -12.13048501340134 -1.92365328812881 -1.30785428632863
 1 -13.34136643574358 -0.58294100460046 -1.53993974837484
 1 -13.21615681488149 -1.70800446254625 -3.44494545264526
 1 -12.37941834753475 -0.10671914321432 -3.71105008340834
 1 -11.38609344874487 -1.33582460966097 -3.52149042724272
 1 -9.07731234983498 -4.59810631143114 -2.02173823682368
 1 -7.88798318351835 -5.70421637493750 -1.00887084218422
 1 -9.08611279027903 -5.11090953935394  0.02250998229823
 1 -3.31845936443644 -3.62466907250725 -0.10696843494349
 1 -1.75822921052105 -4.11378359175918  3.65604732233223
 1 -2.87178361566157 -5.81581110601060  3.50399143684368
 1 -1.34099461996200 -5.77760854565457  2.54961832293229
 1  2.53258131293129 -1.62188881168117 -1.84152560126013
 1  2.75091153245325  0.37840592539254 -1.93563462096210
 1  4.39086957365737 -1.22071048484848  0.31942334253425
 1  4.13229854135414  1.65770131283128 -2.42669315501550
 1  5.75090202240224  2.40313073697370 -1.85639307770777
 1  5.72209177767777  0.94878606950695 -2.95034129102910
 1  6.59020720462046  1.56360634123412  0.24640425432543
 1  6.16194406650665 -0.25361269796980  0.71482767826783
 1  7.34840696349635 -1.12306297929793 -1.30670542774277
 1  7.76312887138714  0.45774487748775 -1.69452027492749
 1  9.14173021732173  0.74526402390239  0.32396482458246
 1  8.71557467826783 -0.83740209290929  0.91826795019502
 1  10.14327895969597  0.00652680048005 -1.64699985798580
 1  9.09000860996100 -2.34150243374337 -1.87228561046105
 1  10.90166930753075 -2.38337173647365 -2.02879823792379
 1  10.13423562066207 -2.97197131183118 -0.68265565926593
 1  11.30069171077108  0.70018645204521  0.43340111091109
 1  11.53831142664266 -0.99075037263726  0.83121944204420
 1  13.07729568206821 -1.62238965826583 -0.97502977447745
 1  12.87782361226123  0.16879181518152 -1.67763209690969
 1  13.74793621392139  1.05325068836884  0.43571840054005
 1  13.79139745034503 -0.68275465436544  1.13784615861586
 1  15.54105450685069  0.09028242524252 -1.37862913171317
 1  15.63248704550455 -2.52549189038904 -0.04020215571557
 1  14.96183782818282 -1.91417593759376 -1.49755112861286
 1  16.67533581318132 -1.82733363036304 -1.19519603290329
 1  16.07765103860386  1.36358469216922  0.80390630693069
 1  16.69678375617562 -0.15074135893589  1.34093258795880
 1  18.23849058675868 -0.30880739473947 -0.66091628722872
 1  17.73925123472347  1.24666356045605 -1.13090883448345
 1  18.60795985288529  2.26869813781378  0.87901984878488
 1  19.00878684118412  0.85936077557756  1.62433567906791
 1  20.76392622492249  0.34462546014602  0.10957684988499
 1  19.95579239773977  3.11721249774978 -1.11501368606861
 1  21.34976877767777  2.00517165926593 -1.58073605480548
 1  19.78986738433843  1.55410570077008 -1.97955634003400
 1  21.25928978247825  1.25228086898690  2.15138880768077
 1  22.07339523232323  2.34854532523252  1.02664931853185
 1  20.64405448394839  2.88174429162916  1.67645478217822

