%nproc=4
%Mem=3GB
# td=(NStates=1) iop(3/107=0140000000,3/108=0140000000) CAM-B3LYP/6-31G(d,p) 

TD

0 1
12 -7.04995968766877  0.59885826932693  0.09524589458946
 6 -4.84837365386539 -1.95612284288429  0.42503790619062
 6 -4.68978500910091  2.74798351625163  1.16668677387739
 6 -9.42280904540454  3.15603315631563 -0.31308378367837
 6 -9.56674277227723 -1.73477524322432 -0.94563136803680
 7 -5.11033806500650  0.42944903550355  0.78273609760976
 6 -4.37047929522952 -0.71524266746675  0.78918681338134
 6 -3.01389761036104 -0.38509690769077  1.29918558765877
 6 -3.05491871877188  1.02868156975698  1.79456573587359
 6 -4.31774200890089  1.45026967806781  1.18164255815582
 6 -3.06764294509451  1.13525634493449  3.40925624022402
 6 -1.92439816951695 -0.62731872107211  0.15898970927093
 6 -0.49562527172717 -0.58116136413641  0.68058144044404
 6  0.42881480468047 -0.69053567546755 -0.54136392649265
 8  0.13403362016202 -0.84752853055306 -1.72614000710071
 8  1.65596419481948 -0.38266820522052 -0.01303669126913
 7 -7.11224886828683  2.63258646854685  0.28881980608061
 6 -5.97772791659166  3.33285705310531  0.75593146924692
 6 -6.38992390079008  4.74385124872487  0.67239549824982
 6 -7.70769555485549  4.85913771897190  0.28648477487749
 6 -8.14716424392439  3.50456739553955  0.04423242184218
 6 -5.35437747164716  5.78876835053505  1.04967512271227
 6 -8.49280928892889  6.06969723932393  0.16335694819482
 6 -8.39433784378438  7.18847799749975  0.76938099739974
 7 -9.15508454955495  0.70074706910691 -0.55144171807181
 6 -9.83365085138514  1.79404272857286 -0.56110892439244
 6 -11.12937689038904  1.49266871137114 -1.22154701440144
 6 -11.17558704590459  0.19053659945995 -1.39378940724072
 6 -9.89433703730373 -0.37173736713671 -1.05049725102510
 6 -12.28685962366237  2.32087732913291 -1.46536598929893
 6 -12.33914770767077 -0.68362448624862 -1.81783111371137
 6 -12.25245715461546 -1.08268846114611 -3.25051570277028
 7 -7.14822778517852 -1.36759159485949 -0.13024569966997
 6 -8.24925925222522 -2.15819436493649 -0.56045762566257
 6 -7.82354439423942 -3.60984153555356 -0.59527982778278
 6 -6.39077686818682 -3.57464044614461 -0.24496657835784
 6 -6.15712944464446 -2.19702765856586  0.04042587798780
 6 -8.56032837233723 -4.80322642104210 -0.97389077217722
 6 -5.33143860676068 -4.37949151255126  0.11888686278628
 8 -5.18541953425343 -5.60186704370437  0.11437738633863
 6 -4.16614111671167 -3.33588103550355  0.45076339793979
 6 -3.51913609040904 -3.65284322702270  1.84545051355136
 8 -3.78469125252525 -3.13789114701470  2.76970032823282
 8 -2.63748910171017 -4.61553017151715  1.78151718921892
 6 -2.18065702270227 -4.99157436333633  3.07821522192219
 6  2.80494681508151 -0.49003729262926 -1.00993451065107
 6  4.06406729192919 -0.38589385728573 -0.35146770957096
 6  5.16922241354135  0.33357988598860 -0.75540841784178
 6  5.01865559115912  1.41500917621762 -1.83508764376438
 6  6.47797407610761  0.29934055005501 -0.00841136553655
 6  7.66050750335033 -0.21702025002500 -0.82913324202420
 6  8.98429614121412 -0.18280009610961 -0.05980208260826
 6  10.18170363096310 -0.64784644784478 -0.83835955595560
 6  9.99290256685669 -2.09299717961796 -1.28101506750675
 6  11.41613627742774 -0.31148603970397 -0.01242920542054
 6  12.72981071657166 -0.56071610511051 -0.62706021112111
 6  13.95366663846385 -0.32251796609661  0.26234264586459
 6  15.32907889888989 -0.35504458805881 -0.42678833133313
 6  15.68616488748875 -1.76761514981498 -0.94083590989099
 6  16.45651264396440  0.33156967426743  0.39589432413241
 6  17.78180576827683  0.46557028662866 -0.37901442844284
 6  18.65189560816081  1.42787086558656  0.52187544424442
 6  20.16978978337834  1.44036346884688  0.01941864786479
 6  20.27073991979198  2.07386469156916 -1.31627632353235
 6  20.96923199019902  2.16095779567957  1.20844478447845
 1 -4.06256662016202  3.45302855425542  1.63323941974197
 1 -10.07800992429243  3.88399067356736 -0.51081560776078
 1 -10.34219864396440 -2.53500903600360 -1.12276009540954
 1 -2.69845713291329 -1.00095029772977  2.09751624232423
 1 -2.10859432573257  1.60281234233423  1.39663331233123
 1 -2.17661074747475  0.79287839423942  3.84683502090209
 1 -3.40894800390039  2.21485070787079  3.71280930313031
 1 -3.93765656615662  0.44847000130013  3.67396908210821
 1 -2.10792591159116 -1.55354602540254 -0.38655666276628
 1 -1.83323969296930  0.25472309210921 -0.62531926652665
 1 -0.02377780648065  0.27302688998900  1.34389825282528
 1 -0.29457787808781 -1.43233400000000  1.33764722302230
 1 -5.75352953065307  6.88882639463946  0.76982681398140
 1 -5.47536900820082  5.82133501490149  2.13193520602060
 1 -4.36071091569157  5.41056532453245  0.63608434103410
 1 -9.28299855965597  6.26224960696070 -0.64895624832483
 1 -9.00232929662966  7.99334905590559  0.33870364606461
 1 -7.66092402450245  7.40257709410941  1.33247220752075
 1 -11.90235070807081  3.27540668776878 -2.14743057455746
 1 -13.27958525622562  1.89122786518652 -1.82893862206221
 1 -12.41594262696270  3.15549288338834 -0.48798923842384
 1 -12.32701466636664 -1.46448737153715 -1.10786428732873
 1 -13.32825512461246 -0.14159687018702 -1.79755550995100
 1 -12.98045324452445 -1.76093975607561 -3.53524448254826
 1 -12.16162656835684 -0.30376884818482 -3.90508948734873
 1 -11.26697153655365 -1.61275230243024 -3.61558983718372
 1 -8.88249286788679 -4.77658415921592 -1.96782284528453
 1 -8.09212359755976 -5.90167612091209 -0.89500945604560
 1 -9.53028720772077 -4.89119756815682 -0.40222249094909
 1 -3.37117463596360 -3.78721532713271 -0.26289402750275
 1 -1.65857924552455 -4.30204241764176  3.75491720932093
 1 -3.11735817311731 -5.47915744064406  3.73239427712771
 1 -1.39960048054806 -5.94082486728673  2.84797815891589
 1  2.89257731253125 -1.47732435523552 -1.44081553025302
 1  2.71679812111211  0.36914499929993 -1.83546460396040
 1  4.28930941764176 -0.76486490029003  0.61457285748575
 1  4.02608792029203  1.70133567626763 -2.14363484918492
 1  5.38106503870387  2.37191761566157 -1.44534197259726
 1  5.56172574107411  1.12049324022402 -2.78934519141914
 1  6.75392357625763  1.50310029062906  0.20351996589659
 1  6.40167803990399 -0.25963330003000  0.96459265476548
 1  7.46359848264827 -1.38871954495450 -0.97234199139914
 1  7.68411096959696  0.39367847084708 -1.73452427532753
 1  9.30867691199120  0.96693619111911  0.14499692779278
 1  9.01588470927093 -0.63136148884888  0.83154927832783
 1  10.44709934173417 -0.01347519971997 -1.77342250025002
 1  9.16459606870687 -2.15663394689469 -1.72753113501350
 1  10.70026916751675 -2.45422882218222 -2.08058341644164
 1  9.93650584768477 -2.94942905760576 -0.57519491319132
 1  11.27344898649865  0.72080851425143  0.28409618041804
 1  11.35352294779478 -0.99554085168517  0.99257557765777
 1  12.73771172367237 -1.52588000730073 -1.16292856435644
 1  12.79819564946495 -0.08219328332833 -1.57441177487749
 1  13.83225464576458  0.74801016431643  0.53340816951695
 1  14.09261757235724 -1.10245662456246  1.08321069506951
 1  15.25696609800980  0.25697909490949 -1.39017028582858
 1  15.73392718951895 -2.31352069326933 -0.16045418091809
 1  15.15714735913591 -1.89374389438944 -1.91821319481948
 1  16.73948222782278 -1.99556045304530 -1.07148366166617
 1  16.26243951745175  1.38603693739374  0.80887680398040
 1  16.54245832363236 -0.39099538433843  1.30638913361336
 1  18.50820755845585 -0.50732724672467 -0.24160435603560
 1  17.51540885048505  0.68736763086309 -1.41690743434343
 1  18.15753481038104  2.41828309630963  0.42229417621762
 1  18.91544750725073  0.97722256175617  1.66583982948295
 1  20.46862669496950  0.49124012161216 -0.16320042784278
 1  19.68850566906691  3.14517529402940 -1.52934511921192
 1  21.46969076987699  2.21939308140814 -1.73780176137614
 1  19.95231362896289  1.45036532673267 -2.01833021742174
 1  20.88922277577758  1.43083872477248  2.00966463526353
 1  21.97770566336634  2.33145361606161  0.78139479307931
 1  20.65417549604961  3.13737985518552  1.46099323602360

