%nproc=4
%Mem=2GB
# td=(NStates=1) CAM-B3LYP/6-31G(d,p) 

TD

0 1
<<<<<<< HEAD
12 -7.16023659665967  0.70119886798680  0.06183387078708
 6 -4.87357197519752 -1.94489566796680  0.42120865356536
 6 -4.85667559645965  2.79266771407141  1.04877124202420
 6 -9.46505124062406  3.04783027852785 -0.34499735943594
 6 -9.58779909360936 -1.70788629962996 -0.84300072917292
 7 -5.10099352395240  0.44525434353435  0.63716413471347
 6 -4.33098280438044 -0.66184600660066  0.62973099629963
 6 -2.97390639603960 -0.40408983468347  1.15482583678368
 6 -3.02359579797980  1.10127279557956  1.60062079277928
 6 -4.36762375727573  1.53295404420442  1.03648067796780
 6 -2.76641172327233  1.39181146924692  3.04388579747975
 6 -1.92286574757476 -0.64284954635464  0.01962592089209
 6 -0.47272469506951 -0.48592293949395  0.53086721602160
 6  0.50313145034503 -0.82842635553555 -0.52342772327233
 8  0.25402664276428 -1.15270067766777 -1.71622795449545
 8  1.75981779227923 -0.69610700710071 -0.01470825972597
 7 -7.05489593749375  2.60071566136614  0.20896959245925
 6 -6.06578585758576  3.30202117791779  0.69212274587459
 6 -6.33032028512851  4.81214550395040  0.71336202340234
 6 -7.76063877087709  4.76344697619762  0.26362475377538
 6 -8.09175344694470  3.49721891719172 -0.03927138083808
 6 -5.40825878257826  5.86512897879788  1.13899866036604
 6 -8.61220901850185  6.02036307000700  0.14859184458446
 6 -8.38293218451845  7.08861498009801  0.88864511431143
 7 -9.12888516111611  0.66376923802380 -0.52189622332233
 6 -9.86190244994499  1.78973892699270 -0.76845316941694
 6 -11.28979807640764  1.50871921102110 -1.12395411491149
 6 -11.26950935483548  0.11673703780378 -1.21717043104310
 6 -10.01568724942494 -0.40566254055406 -0.84684970107011
 6 -12.38337716141614  2.46120669166917 -1.43279005380538
 6 -12.46015056135614 -0.76651406150615 -1.56769757825783
 6 -12.42756024442444 -1.10996340754075 -3.08174329292929
 7 -7.23333280158016 -1.31617123072307 -0.14047872487249
 6 -8.34528476827683 -2.15976114821482 -0.49067402260226
 6 -7.91175732133213 -3.59922819031903 -0.47341461876188
 6 -6.54089797389739 -3.48176251325133 -0.09420115201520
 6 -6.20812340874087 -2.10899918121812  0.09749255345535
 6 -8.63911137853785 -4.77090993339334 -0.76486496489649
 6 -5.33616808710871 -4.38114199769977  0.20223309590959
 8 -5.20163900180018 -5.60676515991599  0.18668569926993
 6 -4.15381896129613 -3.30114590439044  0.59394926022602
 6 -3.49224985588559 -3.66724194549455  1.88834920782078
 8 -3.61904350495050 -2.99044578077808  2.90010269136914
 8 -2.74644583828383 -4.74758948134813  1.83687226812681
 6 -2.13707429532953 -5.26428065716572  2.95066000150015
 6  2.73257576927693 -0.81940973557356 -1.12567376777678
 6  4.12074416341634 -0.50874905120512 -0.33225337433743
 6  5.14352783718372  0.26924318971897 -0.88692846554655
 6  5.04619304230423  1.04079672897290 -2.16470063536354
 6  6.47202153495349  0.44662651285129 -0.21199768496850
 6  7.65279281718172 -0.10469081598160 -0.90449740024002
 6  8.93774564716472 -0.06635176557656 -0.12343415621562
 6  10.12535315981598 -0.48996606830683 -0.95013598409841
 6  10.07901460166017 -1.98048898499850 -1.44163762876288
 6  11.42385526242624 -0.21036481728173 -0.16824595599560
 6  12.84643955165516 -0.43005705680568 -0.79560958385839
 6  14.05871533993399 -0.12481368416842  0.11847891539154
 6  15.42353847874787 -0.14411814091409 -0.48187642744274
 6  15.77459912881288 -1.50477811161116 -1.05259487718772
 6  16.48417252315232  0.36786114611461  0.50350485768577
 6  17.78214280368037  0.60157155555556 -0.18996481108111
 6  18.77398776827683  1.29773799079908  0.74267470047005
 6  20.29680835003500  1.38715904940494  0.35899066226623
 6  20.34973632743274  2.17245554275428 -0.94109510221022
 6  21.25285621642164  1.83248618491849  1.46137150055005
 1 -3.93361484598460  3.49994551595160  1.47437202410241
 1 -10.22546293899390  3.82933376837684 -0.46753214471447
 1 -10.43028631803180 -2.40541988278828 -1.05092174437444
 1 -2.88065452235223 -1.11745005890589  2.07209790099010
 1 -2.34448805400540  1.83409699229923  0.98324897529753
 1 -1.64135859335934  1.12014246714671  3.17076078957896
 1 -3.11420648064806  2.29246330383038  3.63644580998100
 1 -3.40526396909691  0.63415809980998  3.63720613341334
 1 -1.98288077297730 -1.96573653405340 -0.11362527172717
 1 -2.17743941644164 -0.12473522312231 -0.88287832743274
 1 -0.39334285168517  0.57755236913691  0.73883428252825
 1 -0.21727952995300 -1.07574208940894  1.41172512771277
 1 -5.99592836823682  6.80798944304430  0.82645835503550
 1 -5.43286027542754  5.77871123422342  2.33536983408341
 1 -4.48483243924392  5.61657282368237  0.55842901850185
 1 -9.40822287478748  5.90467661576158 -0.40698092629263
 1 -9.16351756765676  7.80772151105110  0.95781540334033
 1 -7.56348581438144  7.08618501800180  1.72527091259126
 1 -12.13454755985599  3.19633995999600 -2.18037104180418
 1 -13.25001467066707  1.90333422462246 -1.70730192169217
 1 -12.89104083518352  2.95286394109411 -0.29556080008001
 1 -12.42415719411941 -1.68929837493749 -0.93778873377338
 1 -13.38484720362036 -0.35400213701370 -1.34702022952295
 1 -13.42647900050005 -1.70637532373237 -3.46479636413641
 1 -12.35111867606761 -0.05417995559556 -3.71128462416242
 1 -11.46325260456046 -1.61580644774477 -3.32391101110111
 1 -8.97544714771477 -4.61276201910191 -1.83599686378638
 1 -7.92537190199020 -5.58960896509651 -0.83537315031503
 1 -9.42851273617362 -5.01527654895490 -0.34373619621962
 1 -3.28843953985399 -3.29909316001600 -0.13864913641364
 1 -1.46838500500050 -4.48729516921692  3.32613552885288
 1 -2.71485109370937 -5.51433305090509  3.75994883378338
 1 -1.51979009050905 -5.98487776097610  2.61850580348035
 1  2.64111341544154 -1.82110394629463 -1.75306927192719
 1  2.59848732633263  0.01298557815782 -1.85540869306931
 1  4.10454135973597 -0.95314752995300  0.61570478647865
 1  3.93143210671067  1.06968567896790 -2.43020138983898
 1  5.48640405210521  1.98982924182418 -2.11060752895290
 1  5.50375768336834  0.47663877137714 -3.00906963796380
 1  6.78276033893389  1.51589558955896  0.19586222902290
 1  6.39753387278728 -0.05817385478548  0.90856057275728
 1  7.37452483718372 -1.29642887808781 -1.09241056465647
 1  7.72581501740174  0.35538874697470 -1.99715263886389
 1  8.89114116571657  1.17540542554255  0.28166579877988
 1  8.91431992069207 -0.71447695389539  0.72944080778078
 1  10.17291484288429  0.25478801650165 -1.81873676317632
 1  9.04374936043604 -2.19461743824382 -1.95124104890489
 1  10.93673622932293 -2.21740852475248 -2.11913615751575
 1  10.11880476647665 -2.65396733873387 -0.50059949964997
 1  11.54501218211821  0.81056328652865  0.07726921442144
 1  11.40579363276328 -0.91066702800280  0.68292891449145
 1  12.78653197209721 -1.42277043824382 -1.19341700930093
 1  13.04471822432243  0.24632532353235 -1.83506686798680
 1  13.80245168186819  0.76464902090209  0.74049139213921
 1  14.14780753385339 -0.78265787048705  0.94384090059006
 1  15.17043033153315  0.73940342534253 -1.41776613461346
 1  15.79581702460246 -2.29201949404940 -0.25709716361636
 1  15.09949300000000 -1.66089846544654 -1.86698411351135
 1  16.66019564896490 -1.47895342024202 -1.76631810131013
 1  15.98964416511651  1.40016785048505  0.86132267656766
 1  16.55696014321432 -0.32993216831683  1.27786054725473
 1  18.10825176387639 -0.42426897429743 -0.43433677407741
 1  17.88218528302831  1.29747706660666 -1.08894247004700
 1  18.27868866146614  2.26866102380238  0.85693369866987
 1  18.78888604890489  1.05338951995200  1.77118711901190
 1  20.52232714541454  0.40759690789079  0.20625768976898
 1  20.16408051465146  3.29504306620662 -0.97593118651865
 1  21.43494774687469  2.33171982478248 -1.25208657195720
 1  19.97980188458846  1.49301111191119 -1.83400036903690
 1  21.33763973917392  1.22984109320932  2.38572819001900
 1  22.26989869616962  1.88338956865687  1.23505847214722
 1  20.87932766266627  2.73058314161416  2.04610505100510
=======
12 -7.17038761176118  0.57290603870387  0.02733042044204
 6 -4.78262288028803 -1.85122630103010  0.48288482118212
 6 -4.84518444734474  2.81777022432243  1.23971033593359
 6 -9.41265600110011  3.15207070257026 -0.46972983268327
 6 -9.52130244394439 -1.76554206520652 -0.78859528862886
 7 -5.06663008760876  0.51332115021502  0.74209462776278
 6 -4.28469817591759 -0.64938476047605  0.84779280248025
 6 -2.94061306670667 -0.36715614131413  1.30121047524752
 6 -3.08815225362536  1.11744441274127  1.80364109480948
 6 -4.41358835373537  1.55984673347335  1.22239926982698
 6 -2.88347342944294  1.22090437853785  3.39962137103710
 6 -1.98937239823982 -0.57617287868787  0.07835179347935
 6 -0.47078450105011 -0.30963531073107  0.39781391069107
 6  0.52887402460246 -0.52813632653265 -0.70231561206121
 8  0.25381662176218 -0.88214362196220 -1.76806313801380
 8  1.73559537003700 -0.46268366476648 -0.31714850375038
 7 -7.13170361826183  2.49732532233223  0.29781847734773
 6 -6.08682796179618  3.28750972677268  0.73814734833483
 6 -6.41854910801080  4.71924621402140  0.72503319051905
 6 -7.67502020902090  4.83461409290929  0.18909730103010
 6 -8.12150642224223  3.40432962826283 -0.06652410611061
 6 -5.52836079277928  5.88234069997000  1.04761952245225
 6 -8.52952074967497  6.03638467216722  0.06031301670167
 6 -8.35934982628263  7.14387050565056  0.82355860566057
 7 -9.08908118071807  0.70796365746575 -0.52703673737374
 6 -9.85253151285128  1.76964691779178 -0.70865718981898
 6 -11.22665176177618  1.49775811491149 -1.10646236573657
 6 -11.23962636653665  0.02754811891189 -1.24182289628963
 6 -9.88768444914491 -0.35145712001200 -0.78591360746075
 6 -12.29745856955696  2.34205477647765 -1.44189096389639
 6 -12.43858840514051 -0.73879128922892 -1.50353116161616
 6 -12.56382387078708 -1.21008341954195 -3.02723784238424
 7 -7.17268673697370 -1.42068168176818 -0.22553723072307
 6 -8.23767400720072 -2.22430760286029 -0.56218117331733
 6 -7.91323746934693 -3.50124839233923 -0.38007528482848
 6 -6.48673255735574 -3.53324766176618 -0.07705943784378
 6 -6.07443003940394 -2.15771405270527  0.00173297749775
 6 -8.63634110151015 -4.78288113051305 -0.85209368776878
 6 -5.38457292759276 -4.37324120762076  0.16323919651965
 8 -5.16378521642164 -5.53197768116812  0.05930296099610
 6 -4.21524510391039 -3.25308109790979  0.55750561586159
 6 -3.62828345924592 -3.66528174947495  1.83188356125613
 8 -3.74251585218522 -3.13271000720072  2.89569225032503
 8 -2.73217441114111 -4.71841656405641  1.73674225512551
 6 -2.13346393429343 -5.08172240134013  2.91768670417042
 6  2.84877738943894 -0.73787158175818 -1.26911811221122
 6  4.12494458345835 -0.52998117441744 -0.62031218021802
 6  5.18192167656766  0.35417168256826 -0.90595036773677
 6  5.10389881288129  1.16650930023002 -2.25696986228623
 6  6.43760809360936  0.28772062226223 -0.15518200340034
 6  7.64484202210221 -0.36912725962596 -0.89017596809681
 6  8.91109298189819 -0.29131426182618 -0.01053286608661
 6  10.21069169366937 -0.58431550325033 -0.76960793129313
 6  10.12894959515951 -2.00774171027103 -1.51864532953295
 6  11.42316519341934 -0.30484426522652  0.12041290989099
 6  12.79435434313431 -0.52299635073507 -0.62854287718772
 6  14.03353282168217 -0.32200340314031  0.25218228572857
 6  15.37934405930593 -0.27846157525753 -0.42676091589159
 6  15.72610427932793 -1.73611124492449 -0.98646826452645
 6  16.40656476237624  0.32097645764576  0.40829533673367
 6  17.77330191959196  0.60643204160416 -0.15978179277928
 6  18.84700507000700  1.36194441144114  0.76880731373137
 6  20.17863653285328  1.43120345384538  0.26464122732273
 6  20.23581493529353  2.42334063126313 -1.01758275097510
 6  21.07193812461246  2.01867480378038  1.23716908030803
 1 -4.10113159765977  3.67105262666267  1.53438802570257
 1 -10.05193558625863  4.02355319031903 -0.60072546404640
 1 -10.31624491389139 -2.52508184898490 -0.62426907910791
 1 -2.63834029092909 -1.07419573347335  2.03614430563056
 1 -2.37323092829283  1.87579116171617  1.28827947834784
 1 -1.76558101560156  0.89123957685769  3.45363907740774
 1 -2.77689274927493  2.39823388088809  3.46474864026403
 1 -3.51457490019002  0.53429811381138  3.93735614841484
 1 -1.94653713861386 -1.60952091249125 -0.35207911711171
 1 -2.30569224172417  0.29458670907091 -0.60664070367037
 1 -0.30702421982198  0.65428004190419  0.83607400650065
 1 -0.19353715571557 -0.87718223342334  1.44636859205921
 1 -5.74205298069807  6.75940458455846  0.36288199739974
 1 -5.69999698909891  6.27449081218122  2.10866716381638
 1 -4.56685064106411  5.54696586298630  0.94702787838784
 1 -9.05904795729573  6.24482063016302 -0.79925015321532
 1 -8.97007822372237  8.12381312021202  0.76090571237124
 1 -7.96267573337334  7.20983738323832  1.77603598909891
 1 -12.21148525362536  2.85800612661266 -2.44263726842684
 1 -13.13323299249925  1.82876676787679 -1.57285847734774
 1 -12.51466319741974  3.05112376707671 -0.64230547454746
 1 -12.46872165056506 -1.70237968306831 -0.87567252215221
 1 -13.41510022892289 -0.38506524332433 -1.07928345584558
 1 -13.47291364396440 -1.94893958015802 -3.31630151465147
 1 -12.47837140134014 -0.45820035763576 -3.71736523222322
 1 -11.59901618091809 -1.78592345944594 -3.30557917791779
 1 -8.85008461146115 -4.62436317921792 -1.91185444954495
 1 -8.12895226002600 -5.54968497269727 -0.66661627462746
 1 -9.50565044994499 -4.86632165346535 -0.22728455105511
 1 -3.37769846574657 -3.28093134383438 -0.24990026152615
 1 -1.37704587108711 -4.24594103380338  3.33842675797580
 1 -2.96606621522152 -5.24440605820582  3.71281412031203
 1 -1.75881399289929 -6.08272754595460  2.86628058095810
 1  2.75091439553955 -1.69903173907391 -1.75650961596160
 1  2.80606808440844  0.08918319791979 -2.03456660886089
 1  4.11340224582458 -1.05745796099610  0.32950616661666
 1  4.05869483298330  1.37561627202720 -2.50201857155716
 1  5.85707111881188  1.98924918381838 -1.99367583578358
 1  5.95417272487249  0.43110421792179 -2.92973170417042
 1  6.77892995589559  1.37190119011901  0.20313295609561
 1  6.48121224062406 -0.06940497789779  0.84074379107911
 1  7.41248863356336 -1.25174440964096 -1.17811913551355
 1  7.99802223812381  0.25780898899890 -1.68226114971497
 1  8.79719177077708  0.68590647564756  0.52370000220022
 1  8.90937942664267 -0.86266177237724  1.04568243194319
 1  10.24820237163716  0.24867740544054 -1.53390828032803
 1  9.30851583708371 -1.92227020352035 -2.36448237303730
 1  10.94650720642064 -2.30462724662466 -2.07347159105911
 1  10.09125201120112 -2.75236717871787 -0.56482592229223
 1  11.18897657855786  0.74081631183118  0.52821430893089
 1  11.43588664206421 -0.92408837013701  1.00590121172117
 1  12.90847416631663 -1.54263242444244 -1.18446611421142
 1  12.88290204270427  0.14903559455946 -1.55631899319932
 1  13.96676811351135  0.68477103310331  0.49095643864386
 1  13.85214796789679 -0.95200480518052  1.32214873137314
 1  15.25677896639664  0.29459894489449 -1.27638199619962
 1  16.08751619451945 -2.46356664876488 -0.09288074197420
 1  14.92271532223222 -2.18048042364236 -1.51014842994299
 1  16.70272990239024 -1.64053957885789 -1.72968443794379
 1  15.97860306100610  1.24686251995200  1.04166071037104
 1  16.38342278947895 -0.46830600570057  1.26878964016402
 1  18.41196213491349 -0.24918146554655 -0.63437677807781
 1  17.82706977147715  1.35710302920292 -1.13093666946695
 1  18.43557435003500  2.23520767846785  0.82355036033603
 1  18.74131129142915  0.92705688668867  1.75160516081608
 1  20.62157707040704  0.47765391359136 -0.26349928592859
 1  19.86813091969197  3.35521908380838 -0.86815040844084
 1  21.31861611371137  2.39170582338234 -1.38591995529553
 1  19.65728963336334  1.91831364216422 -1.88112508150815
 1  21.09088506370637  1.36467457655766  2.20565018221822
 1  22.13133483978398  2.09467069676968  0.92480744704470
 1  20.76493622352235  3.11504158745875  1.43348378887889
>>>>>>> 8e03b5b5abfc0030b3aa597dc0de36371bfbd096

