%nproc=4
%Mem=2GB
# td=(NStates=1) CAM-B3LYP/6-31G(d,p) 

TD

0 1
<<<<<<< HEAD
12 -7.17090766376638  0.56955570367037  0.11402909030903
 6 -4.82372699069907 -1.97289846824682  0.51167770047005
 6 -4.88652858175818  2.77148559585959  1.10571693659366
 6 -9.45648038353835  3.09521501700170 -0.40608346804680
 6 -9.52994330803080 -1.78029354035404 -0.81661809090909
 7 -5.15420884548455  0.41170098819882  0.72554297259726
 6 -4.30977068316832 -0.70333015501550  0.82388041124112
 6 -2.92063106850685 -0.34650407610761  1.25085543974397
 6 -3.05519895829583  1.11740440874087  1.62701343204320
 6 -4.54266126102610  1.52844359315932  1.18267529742974
 6 -2.77338242034203  1.30403269136914  3.16564797369737
 6 -1.91310477147715 -0.62849811121112  0.09194315261526
 6 -0.45050247284728 -0.43631797899790  0.63549767906791
 6  0.60273141034103 -0.68539205210521 -0.40276565706571
 8  0.29157039713971 -0.99449485708571 -1.57186351805180
 8  1.82345415591559 -0.43351074747475 -0.13053984288429
 7 -7.14601504940494  2.55040062986299  0.28483717921792
 6 -6.09896917591759  3.38946992279228  0.67736126972697
 6 -6.42616987008701  4.79902419181918  0.75926661386139
 6 -7.65261796879688  4.85860649214921  0.27068545984598
 6 -8.17471174277428  3.48321751705171  0.01776432273227
 6 -5.48614657135714  5.87731019691969  1.08654341484148
 6 -8.56580437803780  6.02634366806681  0.18802578797880
 6 -8.47983187448745  7.13343946254625  0.77217346714671
 7 -9.15968824142414  0.68895175627563 -0.49679371307131
 6 -9.89249550925092  1.74045399849985 -0.62539886398640
 6 -11.25250434703470  1.49497783688369 -1.14706642614261
 6 -11.29827223112311  0.03853921802180 -1.23954266826683
 6 -9.97449313001300 -0.40376235053505 -0.85084010011001
 6 -12.39418824252425  2.47794836583658 -1.35748252305231
 6 -12.35959050535054 -0.74849225932593 -1.81332214071407
 6 -12.19668715711571 -1.00932334353435 -3.40066518511851
 7 -7.30906037433743 -1.37226684028403 -0.18125280228023
 6 -8.30104034383438 -2.24380955305531 -0.54440939613961
 6 -7.83354950055006 -3.53765203270327 -0.50462774007401
 6 -6.46616050015002 -3.54609894689469 -0.10054178607861
 6 -6.19873246964696 -2.18994727602760 -0.01789898569857
 6 -8.53634110151015 -4.88988183058306 -0.73362184058406
 6 -5.34234870517052 -4.38544242774277  0.13642651525153
 8 -5.24952379027903 -5.59080356375638  0.21506853755376
 6 -4.20702428182818 -3.29416520632063  0.60702056735674
 6 -3.58619925082508 -3.68169339063906  1.91349172207221
 8 -3.81202280288029 -3.10556729292929  2.97457013811381
 8 -2.73975516921692 -4.80780550295029  1.69986856775678
 6 -2.25475606350635 -5.36350057915792  3.03606854235424
 6  2.80125263696370 -0.58877667226723 -1.15591679207921
 6  4.14963705270527 -0.47704588088809 -0.47658780778078
 6  5.15825931033103  0.32027829322932 -0.97888766146615
 6  5.08324674767477  1.10465311461146 -2.25943010831083
 6  6.41909624242424  0.43227507770777 -0.18017450265026
 6  7.56264380228023 -0.27546789368937 -0.97620457095710
 6  8.90176204880488 -0.05295042544254 -0.08035984878488
 6  10.18277890239024 -0.34714178587859 -0.91258222872287
 6  10.18941564176418 -1.80743167926793 -1.32840630563056
 6  11.47878075497550 -0.19991377217722 -0.09655878727873
 6  12.73158806650665 -0.34948900000000 -0.83455347824782
 6  13.91671113951395 -0.11833303610361  0.16379344684468
 6  15.34957108200820 -0.22697642674267 -0.56812505230523
 6  15.71668333723372 -1.65319295309531 -0.79875949364936
 6  16.43935804170417  0.43907826782678  0.33988849604960
 6  17.85496008540854  0.57717911631163 -0.30015583018302
 6  18.92719308880888  1.20701891889189  0.72910334333433
 6  20.31540020922092  1.29388972247225  0.18415317851785
 6  20.48592994679468  2.15811410861086 -1.11394238693869
 6  21.20343127392739  1.79592252855286  1.39757512091209
 1 -4.15684716921692  3.57733325472547  1.50126471337134
 1 -10.10519091179118  3.87125796079608 -0.82501789328933
 1 -10.15711900130013 -2.49529887068707 -1.41382803500350
 1 -2.52645910281028 -0.93421173507351  2.17046773797380
 1 -2.35190879607961  1.66708029062906  1.20403105350535
 1 -1.91569602710271  0.91584203710371  3.70593430693069
 1 -2.90669572957296  2.38885294279428  3.45376754215421
 1 -3.70778422112211  0.80532521652165  3.74621703450345
 1 -1.97468995389539 -1.72406236663666 -0.11488539773977
 1 -2.04806647914792  0.11905915631563 -0.88041808140814
 1 -0.30716423382338  0.62521713561356  0.87365776487649
 1 -0.16759456145615 -1.13435795099510  1.73539749494950
 1 -6.01491026642664  6.65577422152215  0.42842855205521
 1 -5.40395738513851  6.11069443254325  2.22840913801380
 1 -4.38384234023402  5.77221838823882  0.72622579817982
 1 -9.28678073057306  5.95610175827583 -0.75465569376938
 1 -9.18485970187019  7.94359509840984  0.46800642244224
 1 -7.64209367516752  7.39097549704971  1.38037642314231
 1 -12.11539564466447  3.01705203120312 -2.22180518521852
 1 -13.02732240144014  1.93246713791379 -1.60279147064706
 1 -12.48625035613561  2.94957361206121 -0.58077932193219
 1 -12.35526030443044 -1.65214465956596 -1.38990394529453
 1 -13.28378709760976 -0.36784352115212 -1.75863139063906
 1 -13.09138549114911 -1.35588027422742 -3.52288217271727
 1 -12.21930549474948  0.04794025642564 -3.73468696439644
 1 -11.41406768606861 -1.66021088818882 -3.47391601160116
 1 -9.00804040704070 -4.99025976887689 -2.00340360446045
 1 -7.99820918571857 -5.70188019221922 -0.58088770177018
 1 -9.51258114301430 -4.80834585588559 -0.30846266886689
 1 -3.31610230613061 -3.37794104480448 -0.19509478097810
 1 -1.65566373287329 -4.55968240794079  3.63538645394539
 1 -3.08319792839284 -5.95892751035104  3.44052689158916
 1 -1.66165427692769 -6.16097537073707  2.84769872277228
 1  2.71512081618162 -1.73091492739274 -1.56154011901190
 1  2.41356883448345  0.12974725432543 -1.94771792399240
 1  4.39734063966397 -0.96110832603260  0.57172038803880
 1  3.90481944544454  1.40251896229623 -2.36695506520652
 1  5.40801621332133  1.97653791269127 -2.20694716291629
 1  5.61255856345635  0.64533564106411 -3.21049978097810
 1  6.65555761866187  1.44289828982898 -0.16982433963396
 1  6.20458457785779  0.12349431203120  0.84648436513651
 1  7.35497288198820 -1.46066530173017 -0.82609393299330
 1  7.74882731863186  0.01537474557456 -1.91265418901890
 1  8.91926397799780  1.01978986398640  0.27486511871187
 1  8.93962245094509 -0.74846035223522  0.92852071577158
 1  10.34405195659566  0.21693423112311 -1.80843573307331
 1  9.26446143164316 -2.22012998949895 -1.84088001280128
 1  11.12584514021402 -2.04720150405041 -2.04736898079808
 1  10.34882776877688 -2.55040698269827 -0.57079651935194
 1  11.40236791769177  0.87396962716272  0.21229271677168
 1  11.31973502690269 -0.52430839213921  0.71320194179418
 1  12.76053937283728 -1.28107626882688 -1.20451811941194
 1  12.69433318581858  0.33928461946195 -1.73125648694870
 1  13.92295373207321  0.74000655665567  0.70011735473547
 1  13.96153890699070 -0.88638824352435  1.18046456295630
 1  15.31271455995599  0.27184666966697 -1.48866322432243
 1  15.69531697459746 -2.16440673277328  0.17938648474848
 1  15.01479453015302 -2.30297267286729 -1.30466788188819
 1  16.66799642904290 -1.65515104000400 -1.30790225972597
 1  16.04580978167817  1.36749458315832  0.50322686698670
 1  16.42270671787179 -0.08174734983498  1.44358711991199
 1  18.15322626132613 -0.37089363676368 -0.42439577997800
 1  17.66413347784779  1.02377969686969 -1.17431100690069
 1  18.55669646224623  2.29563372107211  1.13572157745775
 1  18.88134529482948  0.64050823182318  1.69155915621562
 1  20.75861077377738  0.33089923812381  0.02618968296830
 1  20.30790489708971  3.19752331423142 -0.73798739213921
 1  21.57931218331833  2.18948560136014 -1.26250761406141
 1  19.90151405580558  1.70998280908091 -1.76996396539654
 1  21.19758573377338  1.03142125122512  2.01279089628963
 1  22.28864057035704  1.73656488618862  1.03178814511451
 1  21.04409413931393  2.84326440974097  1.74550499099910
=======
12 -7.15053562656266  0.59621836993699  0.08137582498250
 6 -4.81317593559356 -1.96105728412841  0.45675220792079
 6 -4.75216514541454  2.85001344864486  1.14999136403640
 6 -9.33619835533553  3.07774326982698 -0.45572843254325
 6 -9.50605091879188 -1.77711322232223 -0.86353278237824
 7 -5.20945437003700  0.37345716381638  0.70846126442644
 6 -4.34479418551855 -0.72288211021102  0.82580060326033
 6 -2.93571257665767 -0.50484991069107  1.27799815401540
 6 -3.08866230463046  0.97547021532153  1.66076680738074
 6 -4.45822281718172  1.48788953775378  1.21612864276428
 6 -2.90911599369937  1.11961424952495  3.23304471337134
 6 -2.00119358035804 -0.73162842424242  0.10846480478048
 6 -0.54453187578758 -0.32123647084708  0.41615574487449
 6  0.46167730493049 -0.63891740464046 -0.77666304680468
 8  0.25948718881888 -1.03805921352135 -1.87374370607061
 8  1.77466927742774 -0.42402979937994 -0.34570135903590
 7 -7.08069851775178  2.57567315711571  0.33747244274427
 6 -5.99287856685669  3.37076805260526  0.74555808940894
 6 -6.37087434053405  4.69018330773077  0.80717140434043
 6 -7.72508521552155  4.80751138263826  0.26909530083008
 6 -8.12897716931693  3.43104229952995  0.02743528982898
 6 -5.52502045874587  5.88479094499450  1.21114587508751
 6 -8.67960575817582  5.93515454915492  0.08281526692669
 6 -8.47610150145015  7.12167828642864  0.67282353215322
 7 -9.14237651025103  0.65968882998300 -0.54113814751475
 6 -9.85209146884688  1.80897085018502 -0.66741306540654
 6 -11.16249534613461  1.47880621972197 -1.13498521802180
 6 -11.18895129902990  0.12497786188619 -1.21769048304831
 6 -9.92814849554956 -0.38106008030803 -0.86199121522152
 6 -12.22490131383138  2.49593016401640 -1.34708148294829
 6 -12.32874742104210 -0.72406981708171 -1.71972278077808
 6 -12.35066255465547 -0.96728914011401 -3.20174529312931
 7 -7.26320578887889 -1.43811342494249 -0.00646532353235
 6 -8.27036727652765 -2.22294746684668 -0.47383233843384
 6 -7.85961210681068 -3.63416168366837 -0.42020929822982
 6 -6.42780666476648 -3.58671300830083 -0.07840957285729
 6 -6.15320791719172 -2.14401268256826  0.12601540574057
 6 -8.66685415281528 -4.85906874927493 -0.67320579897990
 6 -5.30151462176218 -4.38221210471047  0.31866473907391
 8 -5.07403624152415 -5.53547803120312  0.22651968266827
 6 -4.09470304970497 -3.24868065786579  0.57837770307031
 6 -3.44397502840284 -3.70820604190419  1.85334570747075
 8 -3.72327392799280 -3.11653839003900  2.92983566466647
 8 -2.61968316201620 -4.72377710011001  1.70569915081508
 6 -2.10506109400940 -5.26425065416542  3.04120905640564
 6  2.74872738443844 -0.55869366396640 -1.32435363576358
 6  4.12119420842084 -0.37389556585659 -0.74816496549655
 6  5.10803428782878  0.45713197859786 -1.13724349704970
 6  4.98307673067307  1.21649429872987 -2.30303446874687
 6  6.32217655045505  0.49090094029403 -0.26084256945695
 6  7.65082262016202  0.05719537263726 -0.96999394989499
 6  8.92757463006301  0.07768263786379 -0.15535734853485
 6  10.09923054755476 -0.49580665236524 -0.87250822132213
 6  10.04624132433243 -1.97828876497650 -1.13690715571557
 6  11.39017189408941 -0.10671445224522  0.01543241184118
 6  12.81276618431843 -0.32773682478248 -0.70476049894990
 6  13.90748021642164 -0.15615681848185  0.20515758325833
 6  15.32663878877888 -0.18159188828883 -0.44406264606461
 6  15.76829849874987 -1.58534616841684 -0.78965858355836
 6  16.41705581148115  0.39329368936894  0.53112761996200
 6  17.83284787418742  0.45787718611861  0.02402658805881
 6  18.82294266376638  1.27682589958996  0.87566799979998
 6  20.27816648584858  1.18490882438244  0.21571633483348
 6  20.41932328612861  1.81952024922492 -1.20724171687169
 6  21.08003893469347  1.86734967126713  1.32067743114311
 1 -4.12783426792679  3.57408292969297  1.60024461136114
 1 -10.03017341004101  3.84197503250325 -0.69726511801180
 1 -10.18513180258026 -2.50705004580458 -1.45970262246225
 1 -2.52045850275028 -1.39415772967297  2.00547123832383
 1 -2.12420602580258  1.58729231183118  1.34874552495249
 1 -1.86080053755376  0.90941139403940  3.41768548204820
 1 -3.03371843184318  2.19427348484849  3.53264542994299
 1 -3.69529297199720  0.51348603260326  3.73427584038404
 1 -1.78384086898690 -1.78484844524452 -0.26047995719572
 1 -2.29160083258326 -0.06132888248825 -0.66577661726173
 1 -0.24804832223222  0.73643825772577  0.49010941004100
 1 -0.17249505150515 -1.02752726792679  1.17763171837184
 1 -5.62478125352535  6.81574021812181  0.56167187638764
 1 -5.97711470087009  6.21394475757576  2.33422972007201
 1 -4.36113006900690  5.43400456685668  1.23415659125913
 1 -9.43829588208821  5.91861800990099 -0.61442167036704
 1 -9.55847706360636  7.89016975587559  0.69739936173617
 1 -7.59774924072407  7.47711411091109  1.36641502700270
 1 -11.88255236033603  3.11369169516952 -2.03231623632363
 1 -13.21786145534553  1.98391228242824 -1.57562875437544
 1 -12.38284001510151  3.17188584328433 -0.56164740874087
 1 -12.31627640604060 -1.59815926102610 -0.84665962086209
 1 -13.20196891579158 -0.18940567736774 -1.37223275077508
 1 -13.21767812041204 -1.47475216141614 -3.68313819831983
 1 -12.39472303650365 -0.06364090169017 -3.69648314401440
 1 -11.42155843514352 -1.37535240234023 -3.40344896489649
 1 -9.18226782978298 -4.73930467336734 -1.69144240834083
 1 -8.01373073787379 -5.57611761596160 -0.58838845184518
 1 -9.30532041694169 -5.06243126442644  0.27670584798480
 1 -3.29450014591459 -3.40081333203320 -0.43366863836384
 1 -1.61487965446545 -4.46491293099310  3.63115603090309
 1 -2.91195080368037 -5.74951656925693  3.73649648854886
 1 -1.19118723022302 -5.76301557475748  2.73230718361836
 1  2.69644894899490 -1.58529036493649 -1.82583654865487
 1  2.46406388398840  0.11389566916692 -2.17707085928593
 1  4.16137704330433 -0.78036025122512  0.26311952795279
 1  4.08685764926493  1.00377908830883 -2.94928329802980
 1  5.17018242994299  2.28483874277428 -2.23852032023202
 1  5.70880818841884  0.91571267876788 -3.14480321132113
 1  6.52482454535454  1.48718271827183  0.02348499129913
 1  6.24954907430743 -0.14887292469247  0.54469418611861
 1  7.62614999969997 -0.99575881108111 -1.09918124172417
 1  7.68987142304230  0.53940714881488 -1.89844276787679
 1  9.23324537613761  1.22949083408341 -0.11539390719072
 1  8.72376086478648 -0.52230773697370  0.80409827352735
 1  10.36142369376938  0.06922946064606 -1.67120200970097
 1  9.13217820332033 -2.28808678517852 -1.77346327112711
 1  11.04540709640964 -2.34076085998600 -1.77417166106611
 1  9.92506539253925 -2.39594153615362 -0.24106354605461
 1  11.25766344724473  0.99156138633863  0.30925241274127
 1  11.28996204960496 -0.57410337163716  0.94544516611661
 1  12.82145546444644 -1.31579974117412 -1.15676334393439
 1  12.79164291679168  0.23953464446445 -1.60054341564156
 1  13.76912834953495  0.88794135013501  0.74718206120612
 1  13.77605035813581 -0.80986059075908  1.10006652315232
 1  15.48905219371937  0.44809429442944 -1.31333569156916
 1  15.69534697759776 -2.15592588468847  0.12708125422542
 1  15.01395444614461 -1.93712608820882 -1.52841025612561
 1  16.69201883128313 -1.47873339823982 -1.42311378087809
 1  15.82376757745774  1.30979881358136  0.89020556485649
 1  16.05736018321832 -0.09389856495650  1.45450821202120
 1  18.40972191089109 -0.65392193959396 -0.18034137453745
 1  17.77260432493249  0.80065738463846 -0.98685226102610
 1  18.44082487508751  2.37592174987499  0.96114411971197
 1  18.63376053635364  0.58619280028003  1.73617361766177
 1  20.44323923662366  0.10444659285929  0.01795885988599
 1  19.97916202280228  2.80657421932193 -1.26873046644664
 1  21.43072732483248  1.90598725152515 -1.60395175847585
 1  19.95372927732774  1.06907871867187 -2.00180714971497
 1  21.05219119431943  1.29344745384538  2.27581719891989
 1  22.08625033133313  1.90069129882988  1.03433840014001
 1  20.68620835073508  2.76900698399840  1.47574801530153
>>>>>>> 8e03b5b5abfc0030b3aa597dc0de36371bfbd096

