%nproc=4
%Mem=3GB
# td=(NStates=1) iop(3/107=0140000000,3/108=0140000000) CAM-B3LYP/6-31G(d,p) 

TD

0 1
12 -7.10390508220822  0.69689807330733 -0.06926055605561
 6 -4.82474129062906 -1.98335556615662  0.43055845824582
 6 -4.85309133973397  2.76517523542354  1.19361946714671
 6 -9.37897466196620  3.01804935793579 -0.31366384168417
 6 -9.52539863786379 -1.65808757445745 -0.98826563146315
 7 -5.12614964616462  0.39000509110911  0.70930875487549
 6 -4.32767501480148 -0.77563870707071  0.79554744944494
 6 -2.93027924852485 -0.48716711471147  1.23163883298330
 6 -3.04546777367737  1.08340704230423  1.60361664096410
 6 -4.39065930063006  1.41650630173017  1.15470986488649
 6 -2.98041422222222  1.08225104440444  3.17871318591859
 6 -1.87874360406041 -0.77145313451345  0.11958576887689
 6 -0.37204291349135 -0.51721496949695  0.52723610591059
 6  0.51415333853385 -0.60450707260726 -0.64071386148615
 8  0.18807902470247 -0.88692246994699 -1.76000339343934
 8  1.76630522892289 -0.40026996539654 -0.29014440204020
 7 -7.10727837123712  2.66019922982298  0.31911283538354
 6 -6.04753489728973  3.40572433983398  0.76798267436744
 6 -6.33708861726173  4.82612947654765  0.72965122382238
 6 -7.69677446274627  4.85207701290129  0.34584071047105
 6 -8.15479500700070  3.49854679347935  0.08990698929893
 6 -5.21100313421342  5.87893736743674  1.10358051325133
 6 -8.52259226722672  6.09659992959296  0.20898151065107
 6 -8.27976638663866  7.32024117381738  0.65776983628363
 7 -9.21213025412541  0.71412840724072 -0.48379495339534
 6 -9.87832531883188  1.79177250155015 -0.55921873537354
 6 -11.18398235093509  1.50015946044604 -0.99436429612961
 6 -11.31881136833683  0.09356690249025 -1.12043207150715
 6 -9.95664326792679 -0.35150534393439 -0.93435563686369
 6 -12.30384132183218  2.51553679507951 -1.20391984468447
 6 -12.29827362026203 -0.78556468026803 -1.68748807940794
 6 -12.07029893879388 -1.27345753805381 -3.11610226142614
 7 -7.14940790319032 -1.34424926062606 -0.28642131723172
 6 -8.21849617591759 -2.12325087058706 -0.72457403730373
 6 -7.82214425422542 -3.54766531793179 -0.54452475227523
 6 -6.38619641014101 -3.54175715781578 -0.08469055075508
 6 -6.15232896459646 -2.15217317311731  0.04255609100910
 6 -8.67011935143514 -4.77104320272027 -0.91838522162216
 6 -5.39586504940494 -4.42605616901690  0.24296927102710
 8 -5.26077707000700 -5.67218407540754  0.29658560716072
 6 -4.15779028162816 -3.43790123752375  0.61133945554555
 6 -3.58509268606861 -3.78035597829783  1.96207217571757
 8 -3.80335311871187 -3.14643200110011  2.99739309750975
 8 -2.75272062486249 -4.82686130463046  1.84431346884688
 6 -2.19762871987199 -5.25174037993799  3.05356275667567
 6  2.77483380378038 -0.64131242014201 -1.37929144634463
 6  4.12542342754275 -0.35868113601360 -0.62405496829683
 6  5.08381387268727  0.50123665166517 -1.00975385238524
 6  5.11853557915792  1.32698037333733 -2.29260339533953
 6  6.43943022172217  0.45252586858686 -0.23144366876688
 6  7.60866231883188 -0.18034658265827 -0.99104943364336
 6  8.81497920952095 -0.17461927802780 -0.18113421582158
 6  10.18280374097410 -0.54905656885689 -0.92057777777778
 6  10.22770604720472 -2.03580146004600 -1.21589855585559
 6  11.34472913671367 -0.10149504060406 -0.04599256175618
 6  12.77961569706971 -0.38476851035104 -0.74192169726973
 6  13.95464673647365  0.04540882658266  0.12484889648965
 6  15.36103209420942 -0.27323640724072 -0.48580423292329
 6  15.62135840684068 -1.65359374767477 -0.90698252455246
 6  16.39085607830783  0.25504202150215  0.45836057075708
 6  17.68556614431443  0.60523425302530 -0.17381390839084
 6  18.68925934453445  1.22273035153515  0.83233649034903
 6  20.20389319371937  1.25346477897790  0.30876758275828
 6  20.29088193399340  2.03382068716872 -1.00781547744774
 6  21.08983405040504  1.89905160506051  1.35205914591459
 1 -4.16932729622962  3.53946719811981  1.49727582338234
 1 -10.26917904120412  3.93125540004000 -0.41215574177418
 1 -10.20972539663966 -2.42085762086209 -1.39957777717772
 1 -2.78894618181818 -1.24403460616062  2.17607409810981
 1 -2.22514598089809  1.70477253835384  1.12724637363736
 1 -1.96128921532153  0.68124723112311  3.44843518091809
 1 -3.17142425152515  2.03584280708071  3.59901792399240
 1 -3.77197999849985  0.29154430873087  3.44945663086309
 1 -1.91793691269127 -1.64725539633963 -0.25594360146015
 1 -2.22325869486949  0.00958857865787 -0.70725746034603
 1 -0.26140156885689  0.50960054735474  0.92008587158716
 1 -0.07169558985899 -1.12653341994199  1.43304676297630
 1 -5.32479665736574  6.83277078907891  0.52633246454645
 1 -5.30522199349935  6.04201708310831  2.01072308480848
 1 -4.13314815941594  5.71893616161616  0.66885761836184
 1 -9.34103436323632  6.06049943194319 -0.46743809650965
 1 -9.00323938763876  8.14175389638964  0.37658743444344
 1 -7.35508344044404  7.29512634903490  1.38809777007701
 1 -12.37526799979998  3.24449359645965 -2.04882071357136
 1 -13.30066736443644  2.08026676907691 -1.41003673187319
 1 -12.51175220792079  3.27720505460546 -0.27760820032003
 1 -12.55753771867187 -1.80189111191119 -1.07511101200120
 1 -13.32207450655066 -0.28888159865987 -1.47169292369237
 1 -12.97860305950595 -1.70200386248625 -3.38334929302930
 1 -11.80560096579658 -0.31659013031303 -3.72094107250725
 1 -11.06966180558056 -1.96487751495149 -3.23734201240124
 1 -9.03171779037904 -4.74730123092309 -1.79226528952895
 1 -8.15289967516752 -5.77426337963796 -0.77737769286929
 1 -9.46571075007501 -4.95004345274528 -0.09585185388539
 1 -3.54569208770877 -3.70190679627963 -0.19796753485349
 1 -1.50932432003200 -4.43771598499850  3.49325104270427
 1 -3.14154059135914 -5.25710523542354  3.68417945564556
 1 -1.66205672617262 -6.19465024982498  2.76285964706471
 1  2.66881493629363 -1.53403002580258 -1.82326377507751
 1  2.62179862116212  0.25851393619362 -2.12463352085208
 1  4.19143963066307 -1.10851926572657  0.10633203340334
 1  4.00479579107911  1.04674021672167 -2.93102358805881
 1  5.26464339653965  2.30700112401240 -1.98622606100610
 1  5.95987555605561  1.04980617151715 -2.82755901280128
 1  6.67745592949295  1.42628260886089  0.14297391129113
 1  6.18980685278528 -0.05154249094910  0.60541673717372
 1  7.07079920272027 -1.21554222722272 -1.37732248944895
 1  7.79720227872787  0.43238234123412 -1.92703352625263
 1  9.09832587688769  0.78435793329333  0.20156258435844
 1  8.83195631643164 -0.76227458015802  0.61567769116912
 1  10.25414004580458  0.00432658045805 -1.94898005600560
 1  9.31894150325033 -2.60572885638564 -1.92554093599360
 1  11.08253739433944 -2.24969836913691 -1.95150050815082
 1  10.35425762286229 -2.73300741544154 -0.22618001170117
 1  11.18950059165916  1.09557599099910  0.14071184198420
 1  11.28340593609361 -0.77613891149115  0.91744806490649
 1  12.88397635013501 -1.45284270357036 -0.89907217871787
 1  12.79255508540854 -0.04553961796180 -1.69202353605361
 1  13.74998641894189  1.17055241854185  0.67401222992299
 1  14.08193650425043 -0.51844822372237  1.23161553555356
 1  15.52157255865587  0.46074947194719 -1.29099036783678
 1  15.82575637243724 -2.45701504270427  0.10674253875388
 1  14.76682832723272 -2.21201572157216 -1.51129250275028
 1  16.54067234683468 -1.68550944794479 -1.49315582888289
 1  15.80098337183718  1.17171550525053  0.85517143344334
 1  16.76536061386139 -0.33906019081908  1.50667916261626
 1  17.98882562026203 -0.56520303430343 -0.52897309290929
 1  17.33680098969897  1.13881277537754 -1.13888963256326
 1  18.29714877177718  2.24377564556456  1.08846079287929
 1  18.69548551105111  0.59545438493849  1.78153139863986
 1  20.54394422672267  0.30396139373937  0.28053394559456
 1  19.92421924042404  2.99295007150715 -0.80497268196820
 1  21.33617741854185  2.05093623572357 -1.31707968916892
 1  19.62911130873087  1.67128741894189 -1.86077446184618
 1  21.16881073457346  1.27477311821182  2.24715838463846
 1  22.30730862366237  2.08713918461846  0.93871052465246
 1  20.81296137463746  2.72183830103010  1.59883702040204

