%nproc=4
%Mem=3GB
# td=(NStates=1) iop(3/107=0140000000,3/108=0140000000) CAM-B3LYP/6-31G(d,p) 

TD

0 1
12 -7.14217890959096  0.62459084258426  0.07536390639064
 6 -4.94074289078908 -1.98096532713271  0.55090049244924
 6 -4.76216224682468  2.84611332923292  1.02994309950995
 6 -9.40894765926593  3.13183073607361 -0.32725520082008
 6 -9.46995309330933 -1.69981174687469 -0.83775057995800
 7 -5.11088812001200  0.43972006260626  0.64254207820782
 6 -4.36716896419642 -0.73030417361736  0.81195909060906
 6 -2.88979520012001 -0.40948934693469  1.25140080918092
 6 -3.06278950585059  1.02272097369737  1.62157843714371
 6 -4.31406164086409  1.48650330143014  0.97926232013201
 6 -3.00633681448145  1.05600842014201  3.18692400700070
 6 -1.99078480818082 -0.64702069126913  0.03339715001500
 6 -0.46829253845385 -0.45734898289829  0.48862224452445
 6  0.55462738593859 -0.71329795169517 -0.54544433453345
 8  0.25616583338334 -0.98750252795280 -1.75886327942794
 8  1.78896749514951 -0.49800973937394 -0.13073846144614
 7 -7.02418006140614  2.67084029392939  0.23684460856086
 6 -5.99679982378238  3.34597836523652  0.72287816391639
 6 -6.24327923632363  4.78724558815882  0.74803306200620
 6 -7.64414920022002  4.91941374657466  0.43855998239824
 6 -8.14082360986099  3.50363730253025  0.13941193979398
 6 -5.38370040394039  5.90380985468547  1.18537869306931
 6 -8.42600260826083  6.00493076267627  0.24744535703570
 6 -8.33848225822582  7.22127127682768  0.81012507180718
 7 -9.10149919101910  0.68101509590959 -0.56770334423442
 6 -9.78389587588759  1.89119244354435 -0.68289110261026
 6 -11.16103005570557  1.58922836733673 -1.13278813851385
 6 -11.17220670787079  0.15169271507151 -1.42211223952395
 6 -9.86007361096110 -0.27999819321932 -0.91426362766277
 6 -12.23988492619262  2.49368460986099 -1.33926337903790
 6 -12.32112590549055 -0.66880300410041 -1.89786911751175
 6 -12.16144805370537 -1.10629082138214 -3.30066071727173
 7 -7.25296825922592 -1.40599543524352 -0.02256493159316
 6 -8.25994032033203 -2.25822436793679 -0.50342192209221
 6 -7.87544958475848 -3.61055160656066 -0.45352565236524
 6 -6.55003279377938 -3.59802278437844 -0.10781286298630
 6 -6.23488722042204 -2.16732468826883  0.11247308270827
 6 -8.69271161066107 -4.84997109550955 -0.82125550865086
 6 -5.39374483738374 -4.44514807820782  0.10649562366237
 8 -5.25169616191619 -5.67293415041504  0.15684163276328
 6 -4.23797830043004 -3.35404285168517  0.59764808640864
 6 -3.62744692149215 -3.73139108180818  1.92012798129813
 8 -3.82918570197020 -3.06320367826783  2.95404876307631
 8 -2.81198655145515 -4.79219783828383  1.81037007450745
 6 -2.13373233023302 -5.29264447034703  2.96136353675368
 6  2.79532585298530 -0.73999228812881 -1.07227074427443
 6  4.10234111931193 -0.51460672857286 -0.50844340714071
 6  5.11633712501250  0.37506403440344 -0.91877475447545
 6  5.01952567816782  1.22732040734073 -2.15951008600860
 6  6.34931120982098  0.38000861686169 -0.03474399879988
 6  7.60466191879188 -0.09225777377738 -0.82695302400240
 6  8.85251296289629 -0.16429824592459 -0.07215331773177
 6  10.05979143974398 -0.60708237143714 -0.94004972497250
 6  10.04826810341034 -2.07052493239324 -1.36434340034003
 6  11.38740340414041 -0.21387627872787 -0.08533649614961
 6  12.69129686518652 -0.37148718221822 -0.71956946204620
 6  13.89406067786779 -0.07510322462246  0.16369278087809
 6  15.28431442244224 -0.19123820742074 -0.39425507800780
 6  15.57340361136114 -1.60413880218022 -0.85478730503050
 6  16.47399439213921  0.42840935823582  0.46093082778278
 6  17.78459604730473  0.50621435103510 -0.18712523952395
 6  18.84400481908191  1.25391346984698  0.64677793449345
 6  20.31152395679568  1.35042447494749  0.12846955295530
 6  20.35785863166317  2.18760606570657 -1.13394809070907
 6  21.21697676467647  2.00911261116112  1.19275321532153
 1 -4.09965032853285  3.45093834523452  1.53774987078708
 1 -10.02662478577858  4.03953622812281 -0.41790631683168
 1 -10.06860128422842 -2.41558709380938 -1.26387420682068
 1 -2.64284157135714 -1.00146034873487  1.98048453915392
 1 -2.21757522382238  1.48773083418342  1.18067171617162
 1 -1.87133021942194  0.96306541294129  3.53761409880988
 1 -3.20928803790379  2.17920714351435  3.54096211841184
 1 -3.80675347584759  0.26421157545755  3.64632631783178
 1 -2.06151127012701 -1.56739741054105 -0.38420642774277
 1 -2.27742411141114  0.00721834163416 -0.81065780038004
 1 -0.16172160086009  0.53517310461046  1.07511137413741
 1 -0.38585700600060 -1.25015578217822  1.08451190949095
 1 -5.34264844254426  6.66817432943294  0.49681951325132
 1 -5.62736420772077  6.27862074347435  2.18945095759576
 1 -4.32262710731073  5.42045631363136  1.22916364896490
 1 -9.25485574537454  5.74316769876988 -0.71132248494849
 1 -9.00282934663466  7.98629835083508  0.38630840654065
 1 -7.66381431353135  7.58054489088909  1.50519948024803
 1 -11.93276374937494  3.11504065116512 -2.24375020652065
 1 -13.17645494319432  1.92074081648165 -1.69273500170017
 1 -12.37085811851185  2.99335666976698 -0.50760119961996
 1 -12.43191515641564 -1.57286820962096 -1.24865836673667
 1 -13.10547284638464 -0.18654136463646 -1.75118087248725
 1 -12.93330853005301 -1.83688735083508 -3.60727168526853
 1 -12.05492589828983 -0.17288575987599 -4.13913289168917
 1 -11.18965380478048 -1.43136416361636 -3.53664194239424
 1 -8.92999761836183 -4.87436393719372 -1.89317538053805
 1 -8.25770015521552 -5.78716466976698 -0.19811976707671
 1 -9.69979415841584 -4.76327477587759 -0.34650691939194
 1 -3.47698521702170 -3.64038064366437 -0.21283902200220
 1 -1.43166655425543 -4.58445065846585  3.54737645524553
 1 -3.07637407470747 -5.52377190209021  3.37835887358736
 1 -1.57349787028703 -6.25157594239424  2.62092545364536
 1  2.61035909070907 -1.71980860366037 -1.43761521022102
 1  2.91099754105410  0.11786987178718 -2.03300435793579
 1  4.36131661836184 -1.06731514531453  0.38930033023302
 1  3.94444975647565  1.50017556025603 -2.50247073277328
 1  5.80132706490649  2.01634205810581 -1.99431687008701
 1  5.68985855435544  0.72538372927293 -3.22914917181718
 1  6.66367455135514  1.43449342994299  0.36086570047005
 1  6.25677354945494 -0.23104044074407  0.84514070957096
 1  7.28518064086409 -1.20730140314031 -0.97879263646365
 1  7.80018257675768  0.44803390639064 -1.89254007690769
 1  8.78093413771377  0.92806230373037  0.53205563366337
 1  8.68208132893290 -0.65641399409941  0.68390451385139
 1  10.05285991779178  0.03682983078308 -1.79457461546155
 1  9.01061067016702 -2.25474375787579 -1.79390777267727
 1  10.98350749134914 -2.37161056035604 -1.92384774287429
 1  10.10544274137414 -2.72461657635764 -0.45030242394239
 1  11.54882652425242  0.69190562396240  0.39775754655466
 1  11.53977157265727 -0.91800309790979  0.85348166826683
 1  12.83025097759776 -1.23772119141914 -1.13110538203820
 1  12.72042787268727 -0.08376344034403 -1.75868020172017
 1  13.57656907720772  0.91139650295029  0.58773360206021
 1  13.69970828142814 -0.66778315721572  1.08862123612361
 1  15.26991739313931  0.33724712171217 -1.30177144594459
 1  15.77603139993999 -2.21935127632763  0.21377324182418
 1  14.75759740414041 -2.11332585258526 -1.41728310181018
 1  16.64327260686069 -1.68036893389339 -1.16138265156516
 1  16.17312058555855  1.42985131883188  0.67884380068007
 1  16.47571164896490 -0.24687097189719  1.26763525822582
 1  18.33055979367937 -0.27409392339234 -0.57321751735174
 1  17.60524783438344  0.99860875497550 -1.10809655325533
 1  18.61546060296029  2.31605287328733  0.77022896969697
 1  18.86292225472547  0.81152599209921  1.64774802030203
 1  20.65392522482248  0.32791378897890  0.01433732593259
 1  19.97443426192619  3.15783656015602 -0.79917210191019
 1  21.35863966476648  2.29443058515852 -1.55239322052205
 1  19.97907630523052  1.37390768096810 -1.92992137653765
 1  21.04996885038504  1.58512415331533  2.25229889868987
 1  22.33083097589759  2.13015348604860  0.93888054165417
 1  20.94862494099410  3.07321343854385  1.29476661336134

