%nproc=4
%Mem=2GB
# td=(NStates=1) CAM-B3LYP/6-31G(d,p) 

TD

0 1
12 -7.18465903890389  0.56351509960996 -0.00298261086109
 6 -4.92619723772377 -2.01260243864386  0.54765129782978
 6 -4.84929485838584  2.83131157845785  1.12160852575258
 6 -9.32656739223922  2.97840333583358 -0.47713057275728
 6 -9.54185449914992 -1.83177868886889 -0.87574400350035
 7 -5.13522694729473  0.39442926102610  0.70852127042704
 6 -4.40673037913791 -0.72153197519752  0.89691771497150
 6 -2.93065207060706 -0.34704413011301  1.31631198539854
 6 -3.09755319371937  1.09372204050405  1.71434216491649
 6 -4.41905890079008  1.49904065286529  1.17078410831083
 6 -2.89348443054305  1.36214850295030  3.21205261416142
 6 -1.99664312531253 -0.66120138153815  0.21239519781978
 6 -0.47859528212821 -0.38384273147315  0.59987411671167
 6  0.58032917011701 -0.58672218511851 -0.50266564706471
 8  0.22024326442644 -0.86894230183018 -1.68185451715172
 8  1.87776958745875 -0.44574197059706 -0.15076186508651
 7 -7.09822026992699  2.61011660146015  0.21979067456746
 6 -6.02154143314332  3.40563153895390  0.80454398799880
 6 -6.41043829692969  4.74179846924693  0.89055974317432
 6 -7.67988069506951  4.89058969046905  0.41231962326233
 6 -8.19232350395040  3.49797899319932  0.06082862916292
 6 -5.47183514021402  5.79190165606561  1.28994375487549
 6 -8.59346714431443  6.07213824752475  0.26312329772977
 6 -8.51524541584159  7.14164028262826  1.02984923472347
 7 -9.13912618521852  0.61302416351635 -0.62724675837584
 6 -9.83471973167317  1.79889984308431 -0.84549087318732
 6 -11.13416251285128  1.38879721882188 -1.35963768326833
 6 -11.12949535343534  0.06123148724872 -1.42345105910591
 6 -9.93707938863886 -0.47647962226223 -0.97275229132913
 6 -12.21755057875787  2.41452202320232 -1.49551632643264
 6 -12.38037258355836 -0.81838924902490 -1.90880168866887
 6 -12.27636512491249 -1.08018042924292 -3.38835395399540
 7 -7.30325979427943 -1.41778139173917 -0.08087276427643
 6 -8.36511675147515 -2.33023819591959 -0.42417737293729
 6 -7.85837198279828 -3.69163743124312 -0.52709998729873
 6 -6.54755863996400 -3.52804714171417 -0.18191992389239
 6 -6.21597419381938 -2.20018830013001  0.04450725492549
 6 -8.73423089048905 -4.90354319671967 -0.76746522492249
 6 -5.30102457275728 -4.37985186868687  0.11348422102210
 8 -5.06547538543854 -5.55154963836384  0.13265029572957
 6 -4.19538311771177 -3.30282607240724  0.57174704000400
 6 -3.55407603850385 -3.66877209850985  1.94528490139014
 8 -3.78713031363136 -3.07078381458146  2.95768844994499
 8 -2.81100229392939 -4.80260498289829  1.87670625152515
 6 -2.32472306020602 -5.17123135223522  3.19394432993299
 6  2.96608912061206 -0.59510730533053 -1.07873907430743
 6  4.17884997399740 -0.28051622792279 -0.47393754275428
 6  5.15340882528253  0.50577684308431 -0.95414518721872
 6  5.00012843584358  1.25936858615862 -2.15877004230423
 6  6.49275360816082  0.58247009720972 -0.25713219841984
 6  7.68272581048105 -0.09430977787779 -0.99642659315932
 6  8.92230410301030  0.01864673427343 -0.20887270007001
 6  10.17289791429143 -0.49411648334833 -0.93303427392739
 6  9.91824852505250 -1.91901283738374 -1.43449691469147
 6  11.41458433533353 -0.22502628342834 -0.04470360176018
 6  12.78453336103610 -0.57945199629963 -0.57097712061206
 6  13.98890835923592 -0.09274047684768  0.26096316381638
 6  15.40446657155715 -0.26496022512251 -0.44287252705271
 6  15.74300596949695 -1.81934956875688 -0.63943356105611
 6  16.42701680758076  0.43689804980498  0.42064657185719
 6  17.92922751215121  0.38916031443144 -0.26273208780878
 6  18.85211558105811  1.29856807380738  0.62089252225223
 6  20.30682935213521  1.29296963046305  0.15376013921392
 6  20.32570392419242  2.00877917511751 -1.28247924062406
 6  21.29230016081608  1.89772270857086  1.07962332573257
 1 -4.10024150865087  3.54766028742874  1.50047463436344
 1 -10.16303669636964  3.73278411341134 -0.49178456995700
 1 -10.36974026342634 -2.61234057485749 -1.47337398959896
 1 -2.49423588048805 -1.04786310021002  2.14060475167517
 1 -2.35788939413941  1.67544112671267  1.16227687808781
 1 -1.85089954745475  1.33713416631663  3.74272798629863
 1 -2.93403846384638  2.38920297779778  3.30066223162316
 1 -3.76247969066907  1.00929561356136  3.80280269306931
 1 -2.04791727662766 -1.58983894429443 -0.30360426962696
 1 -2.13658533103310 -0.14105685528553 -0.86524656425643
 1 -0.51137465486549  0.57254186808681  0.98295869496950
 1  0.03276547454745 -0.92368688388839  1.30294424962496
 1 -5.80816959235924  6.80526917101710  0.76189189838984
 1 -5.50707769716972  6.07018038113811  2.42869916701670
 1 -4.46554051005101  5.59514068046805  1.06935011061106
 1 -9.39581163366337  6.00373652175218 -0.47011723992399
 1 -9.23547476337634  7.94917565646565  0.79926954875488
 1 -7.91062052785279  7.12546894639464  1.79442782828283
 1 -12.09621372647265  3.02117244324432 -2.55077808250825
 1 -13.06082575177518  1.71579547074708 -1.49535072657266
 1 -12.08562029312931  2.85421407610761 -0.46044728872887
 1 -12.21984676307631 -1.83143258835884 -1.40298525342534
 1 -13.29998871777178 -0.35691242804280 -1.59865539303930
 1 -13.05290164276428 -1.57849253545355 -3.68605849034903
 1 -12.38274183838384 -0.10659519711971 -3.82158565426543
 1 -11.43533981328133 -1.39738460556056 -3.63800242024202
 1 -8.89084868786879 -5.03193393629363 -1.89480274437444
 1 -8.02085144994499 -5.66208621282128 -0.46332594559456
 1 -9.70021990689069 -4.81676669796980 -0.17892971557156
 1 -3.43614431033103 -3.34085733643364 -0.26042131363136
 1 -1.88065623212321 -4.14287072677268  3.48680159545955
 1 -3.18584819341934 -5.25984760236024  3.80541338023802
 1 -1.64869298079808 -5.89135840904090  2.88768272117212
 1  2.84114341844184 -1.69607144304430 -1.41638560356036
 1  2.52292977057706  0.03951823142314 -1.93141629382938
 1  4.30055096069607 -0.49944215941594  0.56787000300030
 1  3.91444040754075  1.35755446584658 -2.48241661136114
 1  5.30090550225022  2.27413767266727 -2.09630609880988
 1  5.59819712731273  0.63260436793679 -2.86417514851485
 1  6.57797986088609  1.73513751375137 -0.18747610481048
 1  6.48678279767977  0.08820078267827  0.68621833853385
 1  7.28085547024702 -1.14002323752375 -1.20654197779778
 1  7.84728716461646  0.35736894499450 -1.92162508610861
 1  8.86462851445144  1.23300118511851 -0.04826719451945
 1  8.73797228592859 -0.56932243844384  0.68844670837084
 1  10.31612916431643  0.20419295699570 -1.74694958445845
 1  8.97861284678468 -1.86933490999100 -2.16891281608161
 1  10.87887044274427 -2.29106589048905 -1.98344258815882
 1  9.66246913291329 -2.78980092209221 -0.53510294999500
 1  11.43427110801080  0.83530576077608  0.18371985948595
 1  11.52493554695470 -0.75925188648865  1.06561718331833
 1  12.87098041694169 -1.68830699189919 -0.78403607120712
 1  13.01741549404940 -0.01887119611961 -1.51784514581458
 1  13.93916535323532  0.91985454145415  0.50731807480748
 1  13.98575132823282 -0.62296190089009  1.12601911841184
 1  15.35166845534553  0.35328481348135 -1.55490984898490
 1  15.66665410831083 -2.44311460356036  0.33981252735273
 1  14.81392444314431 -2.26189856545655 -1.16229364446445
 1  16.59640927032703 -1.89851537643764 -1.19146061556156
 1  16.02923812451245  1.37720555425543  0.74415095939594
 1  16.64973942114211 -0.05444461956196  1.36340910211021
 1  18.24674561326133 -0.59872642004200 -0.17791113151315
 1  17.90110717521753  0.81878919781978 -1.31008458425843
 1  18.44859565216522  2.36491064876488  0.98721672697270
 1  18.87300446074607  0.95541972297230  1.78425842614261
 1  20.43696860956096  0.25929207740774 -0.07166010201020
 1  20.15434954155415  2.98931249314931 -1.07007060046005
 1  21.39574382648265  2.04992164496450 -1.48118948224823
 1  19.69053295769577  1.57724953575358 -1.87501447044704
 1  21.48642461766176  1.25807391649165  2.04299391659166
 1  22.37300900720072  2.06742797249725  0.84164913121312
 1  21.10787051695170  2.88323840714071  1.47258769926993

